MODEL 1
REMARK VINA RESULT:      -8.4      0.000      0.000
REMARK  8 active torsions:
REMARK  status: ('A' for Active; 'I' for Inactive)
REMARK    1  A    between atoms: C4_5  and  N1_6 
REMARK    2  A    between atoms: N1_6  and  C5_7 
REMARK    3  A    between atoms: C6_8  and  C19_26 
REMARK    4  A    between atoms: N3_13  and  C10_14 
REMARK    5  A    between atoms: C10_14  and  C11_16 
REMARK    6  A    between atoms: C11_16  and  C12_17 
REMARK    7  A    between atoms: C12_17  and  N4_18 
REMARK    8  A    between atoms: C18_25  and  C19_26 
ROOT
HETATM    1  C5  UNL     1      24.366  -0.448  54.182  1.00  0.00     0.100 A 
HETATM    2  C6  UNL     1      24.216  -1.186  55.457  1.00  0.00     0.022 A 
HETATM    3  N2  UNL     1      23.318  -0.880  54.547  1.00  0.00     0.000 N 
HETATM    4  C7  UNL     1      21.940  -0.993  54.193  1.00  0.00     0.011 A 
HETATM    5  C8  UNL     1      21.017  -0.649  53.208  1.00  0.00     0.015 A 
HETATM    6  C9  UNL     1      21.495   0.063  52.131  1.00  0.00     0.027 A 
HETATM    7  N3  UNL     1      20.794   0.501  51.060  1.00  0.00    -0.351 N 
HETATM    8  C17 UNL     1      22.832   0.101  52.606  1.00  0.00     0.016 A 
HETATM    9  C18 UNL     1      22.871  -0.562  53.801  1.00  0.00     0.018 A 
HETATM   10  C19 UNL     1      22.642  -1.351  55.116  1.00  0.00     0.022 A 
HETATM   11  H7  UNL     1      20.925  -0.314  50.473  1.00  0.00     0.166 HD
ENDROOT
BRANCH   7  12
HETATM   12  C10 UNL     1      20.361   1.769  51.468  1.00  0.00     0.079 C 
HETATM   13  S1  UNL     1      19.150   1.611  50.352  1.00  0.00    -0.065 SA
BRANCH  12  14
HETATM   14  C11 UNL     1      19.911   3.080  51.888  1.00  0.00     0.100 C 
BRANCH  14  15
HETATM   15  C12 UNL     1      20.975   4.161  51.861  1.00  0.00     0.279 C 
BRANCH  15  16
HETATM   16  N4  UNL     1      22.198   3.617  51.334  1.00  0.00     0.092 N 
HETATM   17  C13 UNL     1      22.547   4.468  50.185  1.00  0.00     0.298 C 
HETATM   18  C14 UNL     1      23.876   4.072  49.616  1.00  0.00     0.198 C 
HETATM   19  O1  UNL     1      24.833   4.335  50.609  1.00  0.00    -0.388 OA
HETATM   20  C15 UNL     1      24.573   3.447  51.636  1.00  0.00     0.198 C 
HETATM   21  C16 UNL     1      23.248   3.785  52.314  1.00  0.00     0.298 C 
ENDBRANCH  15  16
ENDBRANCH  14  15
ENDBRANCH  12  14
ENDBRANCH   7  12
BRANCH   1  22
HETATM   22  N1  UNL     1      25.238  -1.027  53.219  1.00  0.00    -0.384 N 
HETATM   23  H3  UNL     1      24.879  -1.662  52.475  1.00  0.00     0.160 HD
BRANCH  22  24
HETATM   24  C4  UNL     1      26.625  -0.736  53.273  1.00  0.00     0.030 A 
HETATM   25  C3  UNL     1      27.600  -1.702  53.145  1.00  0.00     0.032 A 
HETATM   26  C2  UNL     1      28.952  -1.427  53.198  1.00  0.00     0.046 A 
HETATM   27  C1  UNL     1      29.359  -0.119  53.389  1.00  0.00     0.138 A 
HETATM   28  F1  UNL     1      30.679   0.153  53.441  1.00  0.00    -0.204 F 
HETATM   29  C21 UNL     1      28.404   0.891  53.522  1.00  0.00     0.074 A 
HETATM   30  C20 UNL     1      27.060   0.567  53.463  1.00  0.00     0.056 A 
HETATM   31 CL1  UNL     1      28.914   2.540  53.762  1.00  0.00    -0.081 Cl
ENDBRANCH  22  24
ENDBRANCH   1  22
TORSDOF 8
ENDMDL
MODEL 2
REMARK VINA RESULT:      -8.3      2.312      4.849
REMARK  8 active torsions:
REMARK  status: ('A' for Active; 'I' for Inactive)
REMARK    1  A    between atoms: C4_5  and  N1_6 
REMARK    2  A    between atoms: N1_6  and  C5_7 
REMARK    3  A    between atoms: C6_8  and  C19_26 
REMARK    4  A    between atoms: N3_13  and  C10_14 
REMARK    5  A    between atoms: C10_14  and  C11_16 
REMARK    6  A    between atoms: C11_16  and  C12_17 
REMARK    7  A    between atoms: C12_17  and  N4_18 
REMARK    8  A    between atoms: C18_25  and  C19_26 
ROOT
HETATM    1  C5  UNL     1      25.982   2.824  50.643  1.00  0.00     0.100 A 
HETATM    2  C6  UNL     1      26.610   3.448  49.456  1.00  0.00     0.022 A 
HETATM    3  N2  UNL     1      25.410   3.619  49.965  1.00  0.00     0.000 N 
HETATM    4  C7  UNL     1      24.177   4.322  49.817  1.00  0.00     0.011 A 
HETATM    5  C8  UNL     1      22.914   4.476  50.384  1.00  0.00     0.015 A 
HETATM    6  C9  UNL     1      22.641   3.723  51.504  1.00  0.00     0.027 A 
HETATM    7  N3  UNL     1      21.495   3.707  52.223  1.00  0.00    -0.351 N 
HETATM    8  C17 UNL     1      23.913   3.096  51.530  1.00  0.00     0.016 A 
HETATM    9  C18 UNL     1      24.641   3.579  50.479  1.00  0.00     0.018 A 
HETATM   10  C19 UNL     1      25.239   4.278  49.231  1.00  0.00     0.022 A 
HETATM   11  H7  UNL     1      21.738   4.440  52.878  1.00  0.00     0.166 HD
ENDROOT
BRANCH   7  12
HETATM   12  C10 UNL     1      20.747   2.702  51.596  1.00  0.00     0.079 C 
HETATM   13  S1  UNL     1      19.502   3.790  51.548  1.00  0.00    -0.065 SA
BRANCH  12  14
HETATM   14  C11 UNL     1      19.972   1.665  50.946  1.00  0.00     0.100 C 
BRANCH  14  15
HETATM   15  C12 UNL     1      20.140   0.278  51.534  1.00  0.00     0.279 C 
BRANCH  15  16
HETATM   16  N4  UNL     1      21.079   0.329  52.623  1.00  0.00     0.092 N 
HETATM   17  C13 UNL     1      20.469  -0.456  53.708  1.00  0.00     0.298 C 
HETATM   18  C14 UNL     1      21.411  -0.578  54.869  1.00  0.00     0.198 C 
HETATM   19  O1  UNL     1      22.514  -1.319  54.415  1.00  0.00    -0.388 OA
HETATM   20  C15 UNL     1      23.152  -0.524  53.482  1.00  0.00     0.198 C 
HETATM   21  C16 UNL     1      22.288  -0.363  52.235  1.00  0.00     0.298 C 
ENDBRANCH  15  16
ENDBRANCH  14  15
ENDBRANCH  12  14
ENDBRANCH   7  12
BRANCH   1  22
HETATM   22  N1  UNL     1      26.617   3.070  51.892  1.00  0.00    -0.384 N 
HETATM   23  H3  UNL     1      26.579   4.008  52.345  1.00  0.00     0.160 HD
BRANCH  22  24
HETATM   24  C4  UNL     1      27.316   2.017  52.535  1.00  0.00     0.030 A 
HETATM   25  C3  UNL     1      28.385   2.232  53.379  1.00  0.00     0.032 A 
HETATM   26  C2  UNL     1      29.072   1.212  54.007  1.00  0.00     0.046 A 
HETATM   27  C1  UNL     1      28.676  -0.095  53.785  1.00  0.00     0.138 A 
HETATM   28  F1  UNL     1      29.346  -1.092  54.397  1.00  0.00    -0.204 F 
HETATM   29  C21 UNL     1      27.597  -0.357  52.938  1.00  0.00     0.074 A 
HETATM   30  C20 UNL     1      26.940   0.699  52.329  1.00  0.00     0.056 A 
HETATM   31 CL1  UNL     1      27.096  -2.002  52.657  1.00  0.00    -0.081 Cl
ENDBRANCH  22  24
ENDBRANCH   1  22
TORSDOF 8
ENDMDL
MODEL 3
REMARK VINA RESULT:      -8.1      1.868      2.255
REMARK  8 active torsions:
REMARK  status: ('A' for Active; 'I' for Inactive)
REMARK    1  A    between atoms: C4_5  and  N1_6 
REMARK    2  A    between atoms: N1_6  and  C5_7 
REMARK    3  A    between atoms: C6_8  and  C19_26 
REMARK    4  A    between atoms: N3_13  and  C10_14 
REMARK    5  A    between atoms: C10_14  and  C11_16 
REMARK    6  A    between atoms: C11_16  and  C12_17 
REMARK    7  A    between atoms: C12_17  and  N4_18 
REMARK    8  A    between atoms: C18_25  and  C19_26 
ROOT
HETATM    1  C5  UNL     1      24.294  -0.237  53.692  1.00  0.00     0.100 A 
HETATM    2  C6  UNL     1      23.494  -0.995  54.681  1.00  0.00     0.022 A 
HETATM    3  N2  UNL     1      23.108  -0.319  53.622  1.00  0.00     0.000 N 
HETATM    4  C7  UNL     1      21.976   0.076  52.847  1.00  0.00     0.011 A 
HETATM    5  C8  UNL     1      21.605   0.803  51.718  1.00  0.00     0.015 A 
HETATM    6  C9  UNL     1      22.618   1.407  51.009  1.00  0.00     0.027 A 
HETATM    7  N3  UNL     1      22.502   2.155  49.886  1.00  0.00    -0.351 N 
HETATM    8  C17 UNL     1      23.648   0.944  51.867  1.00  0.00     0.016 A 
HETATM    9  C18 UNL     1      23.067   0.200  52.856  1.00  0.00     0.018 A 
HETATM   10  C19 UNL     1      22.168  -0.583  53.848  1.00  0.00     0.022 A 
HETATM   11  H7  UNL     1      22.593   1.402  49.215  1.00  0.00     0.166 HD
ENDROOT
BRANCH   7  12
HETATM   12  C10 UNL     1      22.336   3.451  50.391  1.00  0.00     0.079 C 
HETATM   13  S1  UNL     1      21.255   3.690  49.162  1.00  0.00    -0.065 SA
BRANCH  12  14
HETATM   14  C11 UNL     1      22.163   4.792  50.911  1.00  0.00     0.100 C 
BRANCH  14  15
HETATM   15  C12 UNL     1      23.430   5.449  51.421  1.00  0.00     0.279 C 
BRANCH  15  16
HETATM   16  N4  UNL     1      24.113   6.087  50.327  1.00  0.00     0.092 N 
HETATM   17  C13 UNL     1      24.423   7.448  50.793  1.00  0.00     0.298 C 
HETATM   18  C14 UNL     1      25.246   8.182  49.777  1.00  0.00     0.198 C 
HETATM   19  O1  UNL     1      26.473   7.504  49.687  1.00  0.00    -0.388 OA
HETATM   20  C15 UNL     1      26.188   6.270  49.135  1.00  0.00     0.198 C 
HETATM   21  C16 UNL     1      25.378   5.420  50.109  1.00  0.00     0.298 C 
ENDBRANCH  15  16
ENDBRANCH  14  15
ENDBRANCH  12  14
ENDBRANCH   7  12
BRANCH   1  22
HETATM   22  N1  UNL     1      25.245  -0.986  52.946  1.00  0.00    -0.384 N 
HETATM   23  H3  UNL     1      24.948  -1.730  52.279  1.00  0.00     0.160 HD
BRANCH  22  24
HETATM   24  C4  UNL     1      26.627  -0.715  53.111  1.00  0.00     0.030 A 
HETATM   25  C3  UNL     1      27.597  -1.692  53.038  1.00  0.00     0.032 A 
HETATM   26  C2  UNL     1      28.945  -1.437  53.200  1.00  0.00     0.046 A 
HETATM   27  C1  UNL     1      29.352  -0.139  53.448  1.00  0.00     0.138 A 
HETATM   28  F1  UNL     1      30.668   0.113  53.607  1.00  0.00    -0.204 F 
HETATM   29  C21 UNL     1      28.402   0.882  53.529  1.00  0.00     0.074 A 
HETATM   30  C20 UNL     1      27.062   0.577  53.361  1.00  0.00     0.056 A 
HETATM   31 CL1  UNL     1      28.913   2.518  53.841  1.00  0.00    -0.081 Cl
ENDBRANCH  22  24
ENDBRANCH   1  22
TORSDOF 8
ENDMDL
MODEL 4
REMARK VINA RESULT:      -8.1      2.792      4.278
REMARK  8 active torsions:
REMARK  status: ('A' for Active; 'I' for Inactive)
REMARK    1  A    between atoms: C4_5  and  N1_6 
REMARK    2  A    between atoms: N1_6  and  C5_7 
REMARK    3  A    between atoms: C6_8  and  C19_26 
REMARK    4  A    between atoms: N3_13  and  C10_14 
REMARK    5  A    between atoms: C10_14  and  C11_16 
REMARK    6  A    between atoms: C11_16  and  C12_17 
REMARK    7  A    between atoms: C12_17  and  N4_18 
REMARK    8  A    between atoms: C18_25  and  C19_26 
ROOT
HETATM    1  C5  UNL     1      26.021   2.629  51.028  1.00  0.00     0.100 A 
HETATM    2  C6  UNL     1      26.534   3.584  50.018  1.00  0.00     0.022 A 
HETATM    3  N2  UNL     1      25.335   3.476  50.547  1.00  0.00     0.000 N 
HETATM    4  C7  UNL     1      24.019   4.026  50.559  1.00  0.00     0.011 A 
HETATM    5  C8  UNL     1      22.761   3.880  51.140  1.00  0.00     0.015 A 
HETATM    6  C9  UNL     1      22.616   2.863  52.056  1.00  0.00     0.027 A 
HETATM    7  N3  UNL     1      21.500   2.533  52.748  1.00  0.00    -0.351 N 
HETATM    8  C17 UNL     1      23.958   2.418  51.944  1.00  0.00     0.016 A 
HETATM    9  C18 UNL     1      24.591   3.219  51.035  1.00  0.00     0.018 A 
HETATM   10  C19 UNL     1      25.062   4.257  49.983  1.00  0.00     0.022 A 
HETATM   11  H7  UNL     1      21.663   3.123  53.554  1.00  0.00     0.166 HD
ENDROOT
BRANCH   7  12
HETATM   12  C10 UNL     1      20.872   1.609  51.903  1.00  0.00     0.079 C 
HETATM   13  S1  UNL     1      20.751   0.624  53.226  1.00  0.00    -0.065 SA
BRANCH  12  14
HETATM   14  C11 UNL     1      20.222   0.652  51.031  1.00  0.00     0.100 C 
BRANCH  14  15
HETATM   15  C12 UNL     1      19.678   1.229  49.739  1.00  0.00     0.279 C 
BRANCH  15  16
HETATM   16  N4  UNL     1      20.630   2.158  49.190  1.00  0.00     0.092 N 
HETATM   17  C13 UNL     1      21.575   1.342  48.411  1.00  0.00     0.298 C 
HETATM   18  C14 UNL     1      22.557   2.214  47.687  1.00  0.00     0.198 C 
HETATM   19  O1  UNL     1      21.819   2.963  46.756  1.00  0.00    -0.388 OA
HETATM   20  C15 UNL     1      21.020   3.814  47.497  1.00  0.00     0.198 C 
HETATM   21  C16 UNL     1      19.954   3.026  48.252  1.00  0.00     0.298 C 
ENDBRANCH  15  16
ENDBRANCH  14  15
ENDBRANCH  12  14
ENDBRANCH   7  12
BRANCH   1  22
HETATM   22  N1  UNL     1      26.651   2.664  52.303  1.00  0.00    -0.384 N 
HETATM   23  H3  UNL     1      26.549   3.486  52.936  1.00  0.00     0.160 HD
BRANCH  22  24
HETATM   24  C4  UNL     1      27.434   1.559  52.722  1.00  0.00     0.030 A 
HETATM   25  C3  UNL     1      28.635   1.699  53.383  1.00  0.00     0.032 A 
HETATM   26  C2  UNL     1      29.405   0.628  53.793  1.00  0.00     0.046 A 
HETATM   27  C1  UNL     1      28.957  -0.654  53.531  1.00  0.00     0.138 A 
HETATM   28  F1  UNL     1      29.707  -1.702  53.929  1.00  0.00    -0.204 F 
HETATM   29  C21 UNL     1      27.744  -0.841  52.863  1.00  0.00     0.074 A 
HETATM   30  C20 UNL     1      27.008   0.264  52.471  1.00  0.00     0.056 A 
HETATM   31 CL1  UNL     1      27.177  -2.455  52.531  1.00  0.00    -0.081 Cl
ENDBRANCH  22  24
ENDBRANCH   1  22
TORSDOF 8
ENDMDL
MODEL 5
REMARK VINA RESULT:      -8.0      1.801      2.463
REMARK  8 active torsions:
REMARK  status: ('A' for Active; 'I' for Inactive)
REMARK    1  A    between atoms: C4_5  and  N1_6 
REMARK    2  A    between atoms: N1_6  and  C5_7 
REMARK    3  A    between atoms: C6_8  and  C19_26 
REMARK    4  A    between atoms: N3_13  and  C10_14 
REMARK    5  A    between atoms: C10_14  and  C11_16 
REMARK    6  A    between atoms: C11_16  and  C12_17 
REMARK    7  A    between atoms: C12_17  and  N4_18 
REMARK    8  A    between atoms: C18_25  and  C19_26 
ROOT
HETATM    1  C5  UNL     1      22.345   0.275  53.564  1.00  0.00     0.100 A 
HETATM    2  C6  UNL     1      21.611  -0.323  54.703  1.00  0.00     0.022 A 
HETATM    3  N2  UNL     1      21.194  -0.026  53.492  1.00  0.00     0.000 N 
HETATM    4  C7  UNL     1      20.069  -0.049  52.615  1.00  0.00     0.011 A 
HETATM    5  C8  UNL     1      19.664   0.281  51.323  1.00  0.00     0.015 A 
HETATM    6  C9  UNL     1      20.613   0.843  50.500  1.00  0.00     0.027 A 
HETATM    7  N3  UNL     1      20.455   1.238  49.215  1.00  0.00    -0.351 N 
HETATM    8  C17 UNL     1      21.643   0.807  51.475  1.00  0.00     0.016 A 
HETATM    9  C18 UNL     1      21.123   0.259  52.614  1.00  0.00     0.018 A 
HETATM   10  C19 UNL     1      20.296  -0.380  53.760  1.00  0.00     0.022 A 
HETATM   11  H7  UNL     1      20.711   0.364  48.775  1.00  0.00     0.166 HD
ENDROOT
BRANCH   7  12
HETATM   12  C10 UNL     1      20.050   2.573  49.348  1.00  0.00     0.079 C 
HETATM   13  S1  UNL     1      20.453   2.754  47.753  1.00  0.00    -0.065 SA
BRANCH  12  14
HETATM   14  C11 UNL     1      19.631   3.953  49.481  1.00  0.00     0.100 C 
BRANCH  14  15
HETATM   15  C12 UNL     1      20.113   4.649  50.739  1.00  0.00     0.279 C 
BRANCH  15  16
HETATM   16  N4  UNL     1      21.545   4.540  50.829  1.00  0.00     0.092 N 
HETATM   17  C13 UNL     1      22.074   5.785  50.252  1.00  0.00     0.298 C 
HETATM   18  C14 UNL     1      23.566   5.845  50.395  1.00  0.00     0.198 C 
HETATM   19  O1  UNL     1      23.835   5.901  51.772  1.00  0.00    -0.388 OA
HETATM   20  C15 UNL     1      23.447   4.679  52.288  1.00  0.00     0.198 C 
HETATM   21  C16 UNL     1      21.930   4.528  52.223  1.00  0.00     0.298 C 
ENDBRANCH  15  16
ENDBRANCH  14  15
ENDBRANCH  12  14
ENDBRANCH   7  12
BRANCH   1  22
HETATM   22  N1  UNL     1      23.452  -0.468  53.070  1.00  0.00    -0.384 N 
HETATM   23  H3  UNL     1      23.327  -1.411  52.644  1.00  0.00     0.160 HD
BRANCH  22  24
HETATM   24  C4  UNL     1      24.755   0.086  53.158  1.00  0.00     0.030 A 
HETATM   25  C3  UNL     1      24.989   1.441  53.250  1.00  0.00     0.032 A 
HETATM   26  C2  UNL     1      26.255   1.988  53.333  1.00  0.00     0.046 A 
HETATM   27  C1  UNL     1      27.349   1.142  53.325  1.00  0.00     0.138 A 
HETATM   28  F1  UNL     1      28.586   1.673  53.406  1.00  0.00    -0.204 F 
HETATM   29  C21 UNL     1      27.155  -0.239  53.234  1.00  0.00     0.074 A 
HETATM   30  C20 UNL     1      25.868  -0.740  53.151  1.00  0.00     0.056 A 
HETATM   31 CL1  UNL     1      28.532  -1.307  53.223  1.00  0.00    -0.081 Cl
ENDBRANCH  22  24
ENDBRANCH   1  22
TORSDOF 8
ENDMDL
MODEL 6
REMARK VINA RESULT:      -7.9      1.928      2.386
REMARK  8 active torsions:
REMARK  status: ('A' for Active; 'I' for Inactive)
REMARK    1  A    between atoms: C4_5  and  N1_6 
REMARK    2  A    between atoms: N1_6  and  C5_7 
REMARK    3  A    between atoms: C6_8  and  C19_26 
REMARK    4  A    between atoms: N3_13  and  C10_14 
REMARK    5  A    between atoms: C10_14  and  C11_16 
REMARK    6  A    between atoms: C11_16  and  C12_17 
REMARK    7  A    between atoms: C12_17  and  N4_18 
REMARK    8  A    between atoms: C18_25  and  C19_26 
ROOT
HETATM    1  C5  UNL     1      23.737  -0.017  53.622  1.00  0.00     0.100 A 
HETATM    2  C6  UNL     1      22.983  -0.998  54.435  1.00  0.00     0.022 A 
HETATM    3  N2  UNL     1      22.628  -0.352  53.347  1.00  0.00     0.000 N 
HETATM    4  C7  UNL     1      21.575  -0.162  52.402  1.00  0.00     0.011 A 
HETATM    5  C8  UNL     1      21.234   0.542  51.249  1.00  0.00     0.015 A 
HETATM    6  C9  UNL     1      22.183   1.401  50.744  1.00  0.00     0.027 A 
HETATM    7  N3  UNL     1      22.081   2.181  49.642  1.00  0.00    -0.351 N 
HETATM    8  C17 UNL     1      23.140   1.118  51.751  1.00  0.00     0.016 A 
HETATM    9  C18 UNL     1      22.593   0.197  52.602  1.00  0.00     0.018 A 
HETATM   10  C19 UNL     1      21.750  -0.831  53.399  1.00  0.00     0.022 A 
HETATM   11  H7  UNL     1      22.448   1.515  48.973  1.00  0.00     0.166 HD
ENDROOT
BRANCH   7  12
HETATM   12  C10 UNL     1      21.546   3.371  50.151  1.00  0.00     0.079 C 
HETATM   13  S1  UNL     1      20.708   3.492  48.730  1.00  0.00    -0.065 SA
BRANCH  12  14
HETATM   14  C11 UNL     1      20.991   4.602  50.675  1.00  0.00     0.100 C 
BRANCH  14  15
HETATM   15  C12 UNL     1      21.977   5.487  51.412  1.00  0.00     0.279 C 
BRANCH  15  16
HETATM   16  N4  UNL     1      22.988   5.944  50.496  1.00  0.00     0.092 N 
HETATM   17  C13 UNL     1      23.100   7.394  50.722  1.00  0.00     0.298 C 
HETATM   18  C14 UNL     1      24.214   7.974  49.902  1.00  0.00     0.198 C 
HETATM   19  O1  UNL     1      25.405   7.405  50.382  1.00  0.00    -0.388 OA
HETATM   20  C15 UNL     1      25.345   6.063  50.057  1.00  0.00     0.198 C 
HETATM   21  C16 UNL     1      24.259   5.363  50.868  1.00  0.00     0.298 C 
ENDBRANCH  15  16
ENDBRANCH  14  15
ENDBRANCH  12  14
ENDBRANCH   7  12
BRANCH   1  22
HETATM   22  N1  UNL     1      24.941  -0.485  53.027  1.00  0.00    -0.384 N 
HETATM   23  H3  UNL     1      24.939  -1.277  52.350  1.00  0.00     0.160 HD
BRANCH  22  24
HETATM   24  C4  UNL     1      26.170   0.138  53.362  1.00  0.00     0.030 A 
HETATM   25  C3  UNL     1      26.271   1.474  53.684  1.00  0.00     0.032 A 
HETATM   26  C2  UNL     1      27.464   2.089  54.009  1.00  0.00     0.046 A 
HETATM   27  C1  UNL     1      28.622   1.334  54.016  1.00  0.00     0.138 A 
HETATM   28  F1  UNL     1      29.789   1.932  54.333  1.00  0.00    -0.204 F 
HETATM   29  C21 UNL     1      28.565  -0.025  53.697  1.00  0.00     0.074 A 
HETATM   30  C20 UNL     1      27.346  -0.596  53.376  1.00  0.00     0.056 A 
HETATM   31 CL1  UNL     1      30.024  -0.979  53.705  1.00  0.00    -0.081 Cl
ENDBRANCH  22  24
ENDBRANCH   1  22
TORSDOF 8
ENDMDL
MODEL 7
REMARK VINA RESULT:      -7.8      1.871      2.476
REMARK  8 active torsions:
REMARK  status: ('A' for Active; 'I' for Inactive)
REMARK    1  A    between atoms: C4_5  and  N1_6 
REMARK    2  A    between atoms: N1_6  and  C5_7 
REMARK    3  A    between atoms: C6_8  and  C19_26 
REMARK    4  A    between atoms: N3_13  and  C10_14 
REMARK    5  A    between atoms: C10_14  and  C11_16 
REMARK    6  A    between atoms: C11_16  and  C12_17 
REMARK    7  A    between atoms: C12_17  and  N4_18 
REMARK    8  A    between atoms: C18_25  and  C19_26 
ROOT
HETATM    1  C5  UNL     1      21.980   0.113  53.536  1.00  0.00     0.100 A 
HETATM    2  C6  UNL     1      21.165  -0.539  54.587  1.00  0.00     0.022 A 
HETATM    3  N2  UNL     1      20.834  -0.169  53.370  1.00  0.00     0.000 N 
HETATM    4  C7  UNL     1      19.771  -0.128  52.419  1.00  0.00     0.011 A 
HETATM    5  C8  UNL     1      19.457   0.278  51.124  1.00  0.00     0.015 A 
HETATM    6  C9  UNL     1      20.465   0.874  50.400  1.00  0.00     0.027 A 
HETATM    7  N3  UNL     1      20.398   1.343  49.132  1.00  0.00    -0.351 N 
HETATM    8  C17 UNL     1      21.426   0.770  51.438  1.00  0.00     0.016 A 
HETATM    9  C18 UNL     1      20.825   0.165  52.507  1.00  0.00     0.018 A 
HETATM   10  C19 UNL     1      19.917  -0.526  53.556  1.00  0.00     0.022 A 
HETATM   11  H7  UNL     1      20.676   0.491  48.660  1.00  0.00     0.166 HD
ENDROOT
BRANCH   7  12
HETATM   12  C10 UNL     1      19.997   2.673  49.312  1.00  0.00     0.079 C 
HETATM   13  S1  UNL     1      20.217   2.861  47.683  1.00  0.00    -0.065 SA
BRANCH  12  14
HETATM   14  C11 UNL     1      19.582   4.049  49.496  1.00  0.00     0.100 C 
BRANCH  14  15
HETATM   15  C12 UNL     1      20.073   4.700  50.774  1.00  0.00     0.279 C 
BRANCH  15  16
HETATM   16  N4  UNL     1      21.506   4.588  50.849  1.00  0.00     0.092 N 
HETATM   17  C13 UNL     1      22.025   5.927  50.526  1.00  0.00     0.298 C 
HETATM   18  C14 UNL     1      23.515   5.971  50.686  1.00  0.00     0.198 C 
HETATM   19  O1  UNL     1      23.779   5.763  52.050  1.00  0.00    -0.388 OA
HETATM   20  C15 UNL     1      23.400   4.461  52.317  1.00  0.00     0.198 C 
HETATM   21  C16 UNL     1      21.885   4.311  52.216  1.00  0.00     0.298 C 
ENDBRANCH  15  16
ENDBRANCH  14  15
ENDBRANCH  12  14
ENDBRANCH   7  12
BRANCH   1  22
HETATM   22  N1  UNL     1      23.111  -0.615  53.076  1.00  0.00    -0.384 N 
HETATM   23  H3  UNL     1      23.005  -1.498  52.533  1.00  0.00     0.160 HD
BRANCH  22  24
HETATM   24  C4  UNL     1      24.413  -0.129  53.361  1.00  0.00     0.030 A 
HETATM   25  C3  UNL     1      25.145  -0.544  54.453  1.00  0.00     0.032 A 
HETATM   26  C2  UNL     1      26.412  -0.075  54.739  1.00  0.00     0.046 A 
HETATM   27  C1  UNL     1      26.984   0.859  53.894  1.00  0.00     0.138 A 
HETATM   28  F1  UNL     1      28.221   1.319  54.171  1.00  0.00    -0.204 F 
HETATM   29  C21 UNL     1      26.276   1.306  52.776  1.00  0.00     0.074 A 
HETATM   30  C20 UNL     1      25.008   0.807  52.531  1.00  0.00     0.056 A 
HETATM   31 CL1  UNL     1      26.994   2.482  51.709  1.00  0.00    -0.081 Cl
ENDBRANCH  22  24
ENDBRANCH   1  22
TORSDOF 8
ENDMDL
MODEL 8
REMARK VINA RESULT:      -7.7      3.442      5.488
REMARK  8 active torsions:
REMARK  status: ('A' for Active; 'I' for Inactive)
REMARK    1  A    between atoms: C4_5  and  N1_6 
REMARK    2  A    between atoms: N1_6  and  C5_7 
REMARK    3  A    between atoms: C6_8  and  C19_26 
REMARK    4  A    between atoms: N3_13  and  C10_14 
REMARK    5  A    between atoms: C10_14  and  C11_16 
REMARK    6  A    between atoms: C11_16  and  C12_17 
REMARK    7  A    between atoms: C12_17  and  N4_18 
REMARK    8  A    between atoms: C18_25  and  C19_26 
ROOT
HETATM    1  C5  UNL     1      25.380   3.128  50.828  1.00  0.00     0.100 A 
HETATM    2  C6  UNL     1      26.490   3.064  49.851  1.00  0.00     0.022 A 
HETATM    3  N2  UNL     1      25.588   4.000  50.044  1.00  0.00     0.000 N 
HETATM    4  C7  UNL     1      25.130   5.278  49.606  1.00  0.00     0.011 A 
HETATM    5  C8  UNL     1      24.157   6.248  49.839  1.00  0.00     0.015 A 
HETATM    6  C9  UNL     1      23.247   5.985  50.838  1.00  0.00     0.027 A 
HETATM    7  N3  UNL     1      22.224   6.772  51.246  1.00  0.00    -0.351 N 
HETATM    8  C17 UNL     1      23.807   4.724  51.171  1.00  0.00     0.016 A 
HETATM    9  C18 UNL     1      24.876   4.510  50.347  1.00  0.00     0.018 A 
HETATM   10  C19 UNL     1      26.024   4.516  49.305  1.00  0.00     0.022 A 
HETATM   11  H7  UNL     1      22.728   7.289  51.955  1.00  0.00     0.166 HD
ENDROOT
BRANCH   7  12
HETATM   12  C10 UNL     1      21.165   6.354  50.429  1.00  0.00     0.079 C 
HETATM   13  S1  UNL     1      20.868   7.958  50.155  1.00  0.00    -0.065 SA
BRANCH  12  14
HETATM   14  C11 UNL     1      20.070   5.924  49.584  1.00  0.00     0.100 C 
BRANCH  14  15
HETATM   15  C12 UNL     1      20.479   5.115  48.369  1.00  0.00     0.279 C 
BRANCH  15  16
HETATM   16  N4  UNL     1      21.139   3.909  48.795  1.00  0.00     0.092 N 
HETATM   17  C13 UNL     1      20.145   2.836  48.633  1.00  0.00     0.298 C 
HETATM   18  C14 UNL     1      20.753   1.499  48.936  1.00  0.00     0.198 C 
HETATM   19  O1  UNL     1      21.739   1.276  47.961  1.00  0.00    -0.388 OA
HETATM   20  C15 UNL     1      22.728   2.213  48.196  1.00  0.00     0.198 C 
HETATM   21  C16 UNL     1      22.222   3.618  47.882  1.00  0.00     0.298 C 
ENDBRANCH  15  16
ENDBRANCH  14  15
ENDBRANCH  12  14
ENDBRANCH   7  12
BRANCH   1  22
HETATM   22  N1  UNL     1      25.749   3.110  52.201  1.00  0.00    -0.384 N 
HETATM   23  H3  UNL     1      26.166   3.947  52.662  1.00  0.00     0.160 HD
BRANCH  22  24
HETATM   24  C4  UNL     1      25.546   1.930  52.961  1.00  0.00     0.030 A 
HETATM   25  C3  UNL     1      26.435   1.492  53.919  1.00  0.00     0.032 A 
HETATM   26  C2  UNL     1      26.245   0.342  54.661  1.00  0.00     0.046 A 
HETATM   27  C1  UNL     1      25.109  -0.414  54.439  1.00  0.00     0.138 A 
HETATM   28  F1  UNL     1      24.922  -1.537  55.162  1.00  0.00    -0.204 F 
HETATM   29  C21 UNL     1      24.182  -0.006  53.478  1.00  0.00     0.074 A 
HETATM   30  C20 UNL     1      24.416   1.153  52.758  1.00  0.00     0.056 A 
HETATM   31 CL1  UNL     1      22.749  -0.957  53.197  1.00  0.00    -0.081 Cl
ENDBRANCH  22  24
ENDBRANCH   1  22
TORSDOF 8
ENDMDL
MODEL 9
REMARK VINA RESULT:      -7.5      4.391      6.485
REMARK  8 active torsions:
REMARK  status: ('A' for Active; 'I' for Inactive)
REMARK    1  A    between atoms: C4_5  and  N1_6 
REMARK    2  A    between atoms: N1_6  and  C5_7 
REMARK    3  A    between atoms: C6_8  and  C19_26 
REMARK    4  A    between atoms: N3_13  and  C10_14 
REMARK    5  A    between atoms: C10_14  and  C11_16 
REMARK    6  A    between atoms: C11_16  and  C12_17 
REMARK    7  A    between atoms: C12_17  and  N4_18 
REMARK    8  A    between atoms: C18_25  and  C19_26 
ROOT
HETATM    1  C5  UNL     1      22.705   0.168  52.810  1.00  0.00     0.100 A 
HETATM    2  C6  UNL     1      23.636  -0.869  53.311  1.00  0.00     0.022 A 
HETATM    3  N2  UNL     1      23.827   0.418  53.122  1.00  0.00     0.000 N 
HETATM    4  C7  UNL     1      24.778   1.477  53.225  1.00  0.00     0.011 A 
HETATM    5  C8  UNL     1      24.943   2.843  53.010  1.00  0.00     0.015 A 
HETATM    6  C9  UNL     1      23.857   3.529  52.516  1.00  0.00     0.027 A 
HETATM    7  N3  UNL     1      23.778   4.850  52.234  1.00  0.00    -0.351 N 
HETATM    8  C17 UNL     1      23.017   2.387  52.464  1.00  0.00     0.016 A 
HETATM    9  C18 UNL     1      23.738   1.316  52.914  1.00  0.00     0.018 A 
HETATM   10  C19 UNL     1      24.762   0.285  53.455  1.00  0.00     0.022 A 
HETATM   11  H7  UNL     1      23.457   5.162  53.142  1.00  0.00     0.166 HD
ENDROOT
BRANCH   7  12
HETATM   12  C10 UNL     1      24.186   4.907  50.895  1.00  0.00     0.079 C 
HETATM   13  S1  UNL     1      24.136   6.554  51.049  1.00  0.00    -0.065 SA
BRANCH  12  14
HETATM   14  C11 UNL     1      24.607   4.969  49.511  1.00  0.00     0.100 C 
BRANCH  14  15
HETATM   15  C12 UNL     1      23.479   5.031  48.500  1.00  0.00     0.279 C 
BRANCH  15  16
HETATM   16  N4  UNL     1      22.463   4.076  48.857  1.00  0.00     0.092 N 
HETATM   17  C13 UNL     1      21.225   4.562  48.227  1.00  0.00     0.298 C 
HETATM   18  C14 UNL     1      20.107   3.582  48.429  1.00  0.00     0.198 C 
HETATM   19  O1  UNL     1      20.469   2.412  47.741  1.00  0.00    -0.388 OA
HETATM   20  C15 UNL     1      21.561   1.896  48.414  1.00  0.00     0.198 C 
HETATM   21  C16 UNL     1      22.775   2.805  48.242  1.00  0.00     0.298 C 
ENDBRANCH  15  16
ENDBRANCH  14  15
ENDBRANCH  12  14
ENDBRANCH   7  12
BRANCH   1  22
HETATM   22  N1  UNL     1      21.535   0.391  53.588  1.00  0.00    -0.384 N 
HETATM   23  H3  UNL     1      21.587   0.829  54.533  1.00  0.00     0.160 HD
BRANCH  22  24
HETATM   24  C4  UNL     1      20.272   0.011  53.068  1.00  0.00     0.030 A 
HETATM   25  C3  UNL     1      19.435  -0.879  53.706  1.00  0.00     0.032 A 
HETATM   26  C2  UNL     1      18.205  -1.257  53.206  1.00  0.00     0.046 A 
HETATM   27  C1  UNL     1      17.780  -0.719  52.004  1.00  0.00     0.138 A 
HETATM   28  F1  UNL     1      16.579  -1.086  51.513  1.00  0.00    -0.204 F 
HETATM   29  C21 UNL     1      18.597   0.188  51.325  1.00  0.00     0.074 A 
HETATM   30  C20 UNL     1      19.823   0.535  51.866  1.00  0.00     0.056 A 
HETATM   31 CL1  UNL     1      18.065   0.867  49.811  1.00  0.00    -0.081 Cl
ENDBRANCH  22  24
ENDBRANCH   1  22
TORSDOF 8
ENDMDL
