MODEL 1
REMARK VINA RESULT:      -7.8      0.000      0.000
REMARK  6 active torsions:
REMARK  status: ('A' for Active; 'I' for Inactive)
REMARK    1  A    between atoms: C2_2  and  C3_3 
REMARK    2  A    between atoms: C3_3  and  N1_4 
REMARK    3  A    between atoms: N1_4  and  C5_6 
REMARK    4  A    between atoms: C5_6  and  C6_7 
REMARK    5  A    between atoms: C6_7  and  O1_8 
REMARK    6  A    between atoms: O1_8  and  C7_9 
ROOT
HETATM    1  C7  UNL     1      23.557  -0.314  53.659  1.00  0.00     0.082 A 
HETATM    2  C8  UNL     1      22.970  -1.051  54.653  1.00  0.00     0.038 A 
HETATM    3  C9  UNL     1      21.663  -0.755  54.896  1.00  0.00     0.005 A 
HETATM    4  C10 UNL     1      20.981   0.230  54.176  1.00  0.00     0.032 A 
HETATM    5  C11 UNL     1      21.557   1.001  53.154  1.00  0.00     0.069 A 
HETATM    6  C12 UNL     1      22.886   0.683  52.924  1.00  0.00     0.041 A 
HETATM    7  C13 UNL     1      23.703   1.167  52.078  1.00  0.00     0.100 C 
HETATM    8  N2  UNL     1      24.203   1.951  51.060  1.00  0.00    -0.386 N 
HETATM    9  C14 UNL     1      22.938   2.633  50.855  1.00  0.00     0.061 A 
HETATM   10  C15 UNL     1      22.999   3.666  51.754  1.00  0.00     0.057 A 
HETATM   11  C16 UNL     1      21.959   4.446  52.117  1.00  0.00    -0.025 A 
HETATM   12  C17 UNL     1      21.557   3.536  51.223  1.00  0.00     0.056 A 
HETATM   13  C18 UNL     1      21.150   2.587  50.293  1.00  0.00     0.097 A 
HETATM   14 CL1  UNL     1      19.970   1.839  49.272  1.00  0.00    -0.110 Cl
HETATM   15  C19 UNL     1      22.240   1.849  49.976  1.00  0.00     0.056 A 
HETATM   16  P1  UNL     1      19.972   2.883  51.891  1.00  0.00     0.001 P 
HETATM   17  N3  UNL     1      20.462   1.585  53.010  1.00  0.00    -0.266 NA
HETATM   18  H19 UNL     1      24.699   2.443  50.347  1.00  0.00     0.159 HD
HETATM   19  H23 UNL     1      19.112   3.865  52.450  1.00  0.00     0.079 HD
ENDROOT
BRANCH   1  20
HETATM   20  O1  UNL     1      24.896  -0.587  53.381  1.00  0.00    -0.348 OA
BRANCH  20  21
HETATM   21  C6  UNL     1      25.842  -0.481  54.399  1.00  0.00     0.206 C 
BRANCH  21  22
HETATM   22  C5  UNL     1      26.345   0.916  54.609  1.00  0.00     0.298 C 
BRANCH  22  23
HETATM   23  N1  UNL     1      27.717   1.118  54.256  1.00  0.00     0.086 N 
HETATM   24  C4  UNL     1      27.793   1.344  52.844  1.00  0.00     0.310 C 
BRANCH  23  25
HETATM   25  C3  UNL     1      28.433  -0.098  54.560  1.00  0.00     0.271 C 
BRANCH  25  26
HETATM   26  C2  UNL     1      29.493  -0.475  53.592  1.00  0.00     0.026 C 
HETATM   27  C1  UNL     1      29.458  -1.970  53.311  1.00  0.00     0.007 C 
ENDBRANCH  25  26
ENDBRANCH  23  25
ENDBRANCH  22  23
ENDBRANCH  21  22
ENDBRANCH  20  21
ENDBRANCH   1  20
TORSDOF 6
ENDMDL
MODEL 2
REMARK VINA RESULT:      -7.6      1.533      2.018
REMARK  6 active torsions:
REMARK  status: ('A' for Active; 'I' for Inactive)
REMARK    1  A    between atoms: C2_2  and  C3_3 
REMARK    2  A    between atoms: C3_3  and  N1_4 
REMARK    3  A    between atoms: N1_4  and  C5_6 
REMARK    4  A    between atoms: C5_6  and  C6_7 
REMARK    5  A    between atoms: C6_7  and  O1_8 
REMARK    6  A    between atoms: O1_8  and  C7_9 
ROOT
HETATM    1  C7  UNL     1      24.206   0.276  53.528  1.00  0.00     0.082 A 
HETATM    2  C8  UNL     1      23.514  -0.856  53.869  1.00  0.00     0.038 A 
HETATM    3  C9  UNL     1      22.275  -0.964  53.314  1.00  0.00     0.005 A 
HETATM    4  C10 UNL     1      21.759   0.015  52.460  1.00  0.00     0.032 A 
HETATM    5  C11 UNL     1      22.444   1.184  52.095  1.00  0.00     0.069 A 
HETATM    6  C12 UNL     1      23.701   1.272  52.671  1.00  0.00     0.041 A 
HETATM    7  C13 UNL     1      24.588   2.178  52.554  1.00  0.00     0.100 C 
HETATM    8  N2  UNL     1      25.208   3.340  52.148  1.00  0.00    -0.386 N 
HETATM    9  C14 UNL     1      24.090   3.741  51.313  1.00  0.00     0.061 A 
HETATM   10  C15 UNL     1      23.281   4.415  52.190  1.00  0.00     0.057 A 
HETATM   11  C16 UNL     1      22.002   4.775  51.951  1.00  0.00    -0.025 A 
HETATM   12  C17 UNL     1      22.502   4.134  50.889  1.00  0.00     0.056 A 
HETATM   13  C18 UNL     1      23.031   3.467  49.791  1.00  0.00     0.097 A 
HETATM   14 CL1  UNL     1      22.940   2.836  48.182  1.00  0.00    -0.110 Cl
HETATM   15  C19 UNL     1      24.309   3.142  50.102  1.00  0.00     0.056 A 
HETATM   16  P1  UNL     1      21.184   2.954  50.384  1.00  0.00     0.001 P 
HETATM   17  N3  UNL     1      21.462   1.515  51.399  1.00  0.00    -0.266 NA
HETATM   18  H19 UNL     1      25.776   4.136  51.944  1.00  0.00     0.159 HD
HETATM   19  H23 UNL     1      19.865   3.478  50.434  1.00  0.00     0.079 HD
ENDROOT
BRANCH   1  20
HETATM   20  O1  UNL     1      25.479   0.423  54.078  1.00  0.00    -0.348 OA
BRANCH  20  21
HETATM   21  C6  UNL     1      26.327  -0.681  54.148  1.00  0.00     0.206 C 
BRANCH  21  22
HETATM   22  C5  UNL     1      27.255  -0.802  52.976  1.00  0.00     0.298 C 
BRANCH  22  23
HETATM   23  N1  UNL     1      28.619  -0.479  53.257  1.00  0.00     0.086 N 
HETATM   24  C4  UNL     1      29.364  -1.697  53.353  1.00  0.00     0.310 C 
BRANCH  23  25
HETATM   25  C3  UNL     1      28.660   0.181  54.540  1.00  0.00     0.271 C 
BRANCH  25  26
HETATM   26  C2  UNL     1      29.307   1.516  54.553  1.00  0.00     0.026 C 
HETATM   27  C1  UNL     1      28.611   2.462  53.586  1.00  0.00     0.007 C 
ENDBRANCH  25  26
ENDBRANCH  23  25
ENDBRANCH  22  23
ENDBRANCH  21  22
ENDBRANCH  20  21
ENDBRANCH   1  20
TORSDOF 6
ENDMDL
MODEL 3
REMARK VINA RESULT:      -7.4      3.953      5.492
REMARK  6 active torsions:
REMARK  status: ('A' for Active; 'I' for Inactive)
REMARK    1  A    between atoms: C2_2  and  C3_3 
REMARK    2  A    between atoms: C3_3  and  N1_4 
REMARK    3  A    between atoms: N1_4  and  C5_6 
REMARK    4  A    between atoms: C5_6  and  C6_7 
REMARK    5  A    between atoms: C6_7  and  O1_8 
REMARK    6  A    between atoms: O1_8  and  C7_9 
ROOT
HETATM    1  C7  UNL     1      23.198   3.428  51.111  1.00  0.00     0.082 A 
HETATM    2  C8  UNL     1      22.813   2.319  50.405  1.00  0.00     0.038 A 
HETATM    3  C9  UNL     1      22.694   2.502  49.062  1.00  0.00     0.005 A 
HETATM    4  C10 UNL     1      22.951   3.737  48.458  1.00  0.00     0.032 A 
HETATM    5  C11 UNL     1      23.345   4.889  49.156  1.00  0.00     0.069 A 
HETATM    6  C12 UNL     1      23.459   4.679  50.520  1.00  0.00     0.041 A 
HETATM    7  C13 UNL     1      23.800   5.487  51.442  1.00  0.00     0.100 C 
HETATM    8  N2  UNL     1      24.198   6.651  52.064  1.00  0.00    -0.386 N 
HETATM    9  C14 UNL     1      24.267   7.390  50.815  1.00  0.00     0.061 A 
HETATM   10  C15 UNL     1      22.984   7.847  50.661  1.00  0.00     0.057 A 
HETATM   11  C16 UNL     1      22.479   8.384  49.531  1.00  0.00    -0.025 A 
HETATM   12  C17 UNL     1      23.758   8.044  49.342  1.00  0.00     0.056 A 
HETATM   13  C18 UNL     1      25.089   7.686  49.157  1.00  0.00     0.097 A 
HETATM   14 CL1  UNL     1      26.536   7.576  48.216  1.00  0.00    -0.110 Cl
HETATM   15  C19 UNL     1      25.525   7.161  50.327  1.00  0.00     0.056 A 
HETATM   16  P1  UNL     1      23.789   7.202  47.707  1.00  0.00     0.001 P 
HETATM   17  N3  UNL     1      23.378   5.506  48.071  1.00  0.00    -0.266 NA
HETATM   18  H19 UNL     1      24.479   7.412  52.646  1.00  0.00     0.159 HD
HETATM   19  H23 UNL     1      22.985   7.813  46.708  1.00  0.00     0.079 HD
ENDROOT
BRANCH   1  20
HETATM   20  O1  UNL     1      23.329   3.280  52.492  1.00  0.00    -0.348 OA
BRANCH  20  21
HETATM   21  C6  UNL     1      23.943   2.137  53.003  1.00  0.00     0.206 C 
BRANCH  21  22
HETATM   22  C5  UNL     1      25.437   2.241  53.080  1.00  0.00     0.298 C 
BRANCH  22  23
HETATM   23  N1  UNL     1      26.136   1.627  51.993  1.00  0.00     0.086 N 
HETATM   24  C4  UNL     1      27.124   0.741  52.531  1.00  0.00     0.310 C 
BRANCH  23  25
HETATM   25  C3  UNL     1      26.813   2.670  51.261  1.00  0.00     0.271 C 
BRANCH  25  26
HETATM   26  C2  UNL     1      26.517   2.727  49.807  1.00  0.00     0.026 C 
HETATM   27  C1  UNL     1      26.929   4.071  49.226  1.00  0.00     0.007 C 
ENDBRANCH  25  26
ENDBRANCH  23  25
ENDBRANCH  22  23
ENDBRANCH  21  22
ENDBRANCH  20  21
ENDBRANCH   1  20
TORSDOF 6
ENDMDL
MODEL 4
REMARK VINA RESULT:      -7.0      3.315      6.001
REMARK  6 active torsions:
REMARK  status: ('A' for Active; 'I' for Inactive)
REMARK    1  A    between atoms: C2_2  and  C3_3 
REMARK    2  A    between atoms: C3_3  and  N1_4 
REMARK    3  A    between atoms: N1_4  and  C5_6 
REMARK    4  A    between atoms: C5_6  and  C6_7 
REMARK    5  A    between atoms: C6_7  and  O1_8 
REMARK    6  A    between atoms: O1_8  and  C7_9 
ROOT
HETATM    1  C7  UNL     1      21.692   2.024  52.601  1.00  0.00     0.082 A 
HETATM    2  C8  UNL     1      20.626   1.168  52.683  1.00  0.00     0.038 A 
HETATM    3  C9  UNL     1      20.951  -0.140  52.878  1.00  0.00     0.005 A 
HETATM    4  C10 UNL     1      22.278  -0.565  52.986  1.00  0.00     0.032 A 
HETATM    5  C11 UNL     1      23.389   0.289  52.904  1.00  0.00     0.069 A 
HETATM    6  C12 UNL     1      23.035   1.614  52.706  1.00  0.00     0.041 A 
HETATM    7  C13 UNL     1      23.772   2.645  52.596  1.00  0.00     0.100 C 
HETATM    8  N2  UNL     1      24.905   3.428  52.535  1.00  0.00    -0.386 N 
HETATM    9  C14 UNL     1      25.795   2.300  52.750  1.00  0.00     0.061 A 
HETATM   10  C15 UNL     1      25.992   1.821  51.481  1.00  0.00     0.057 A 
HETATM   11  C16 UNL     1      26.551   0.632  51.175  1.00  0.00    -0.025 A 
HETATM   12  C17 UNL     1      26.511   0.789  52.503  1.00  0.00     0.056 A 
HETATM   13  C18 UNL     1      26.464   0.963  53.881  1.00  0.00     0.097 A 
HETATM   14 CL1  UNL     1      26.777   0.463  55.507  1.00  0.00    -0.110 Cl
HETATM   15  C19 UNL     1      25.896   2.172  54.109  1.00  0.00     0.056 A 
HETATM   16  P1  UNL     1      25.909  -0.823  53.153  1.00  0.00     0.001 P 
HETATM   17  N3  UNL     1      24.132  -0.700  53.072  1.00  0.00    -0.266 NA
HETATM   18  H19 UNL     1      25.628   4.114  52.469  1.00  0.00     0.159 HD
HETATM   19  H23 UNL     1      26.462  -1.965  52.517  1.00  0.00     0.079 HD
ENDROOT
BRANCH   1  20
HETATM   20  O1  UNL     1      21.400   3.373  52.400  1.00  0.00    -0.348 OA
BRANCH  20  21
HETATM   21  C6  UNL     1      20.244   3.729  51.706  1.00  0.00     0.206 C 
BRANCH  21  22
HETATM   22  C5  UNL     1      20.513   4.481  50.437  1.00  0.00     0.298 C 
BRANCH  22  23
HETATM   23  N1  UNL     1      21.865   4.408  49.973  1.00  0.00     0.086 N 
HETATM   24  C4  UNL     1      22.274   5.717  49.560  1.00  0.00     0.310 C 
BRANCH  23  25
HETATM   25  C3  UNL     1      21.887   3.541  48.820  1.00  0.00     0.271 C 
BRANCH  25  26
HETATM   26  C2  UNL     1      22.538   2.222  49.024  1.00  0.00     0.026 C 
HETATM   27  C1  UNL     1      21.508   1.103  48.992  1.00  0.00     0.007 C 
ENDBRANCH  25  26
ENDBRANCH  23  25
ENDBRANCH  22  23
ENDBRANCH  21  22
ENDBRANCH  20  21
ENDBRANCH   1  20
TORSDOF 6
ENDMDL
MODEL 5
REMARK VINA RESULT:      -6.8      3.078      5.636
REMARK  6 active torsions:
REMARK  status: ('A' for Active; 'I' for Inactive)
REMARK    1  A    between atoms: C2_2  and  C3_3 
REMARK    2  A    between atoms: C3_3  and  N1_4 
REMARK    3  A    between atoms: N1_4  and  C5_6 
REMARK    4  A    between atoms: C5_6  and  C6_7 
REMARK    5  A    between atoms: C6_7  and  O1_8 
REMARK    6  A    between atoms: O1_8  and  C7_9 
ROOT
HETATM    1  C7  UNL     1      24.526   1.671  52.603  1.00  0.00     0.082 A 
HETATM    2  C8  UNL     1      25.636   0.873  52.686  1.00  0.00     0.038 A 
HETATM    3  C9  UNL     1      26.664   1.228  51.867  1.00  0.00     0.005 A 
HETATM    4  C10 UNL     1      26.581   2.329  51.010  1.00  0.00     0.032 A 
HETATM    5  C11 UNL     1      25.457   3.163  50.903  1.00  0.00     0.069 A 
HETATM    6  C12 UNL     1      24.424   2.783  51.745  1.00  0.00     0.041 A 
HETATM    7  C13 UNL     1      23.279   3.309  51.915  1.00  0.00     0.100 C 
HETATM    8  N2  UNL     1      22.213   4.172  51.768  1.00  0.00    -0.386 N 
HETATM    9  C14 UNL     1      22.903   4.986  50.784  1.00  0.00     0.061 A 
HETATM   10  C15 UNL     1      22.617   4.346  49.605  1.00  0.00     0.057 A 
HETATM   11  C16 UNL     1      23.229   4.577  48.425  1.00  0.00    -0.025 A 
HETATM   12  C17 UNL     1      23.746   5.371  49.369  1.00  0.00     0.056 A 
HETATM   13  C18 UNL     1      24.275   6.191  50.359  1.00  0.00     0.097 A 
HETATM   14 CL1  UNL     1      25.335   7.438  50.921  1.00  0.00    -0.110 Cl
HETATM   15  C19 UNL     1      23.614   5.906  51.506  1.00  0.00     0.056 A 
HETATM   16  P1  UNL     1      25.566   5.277  49.124  1.00  0.00     0.001 P 
HETATM   17  N3  UNL     1      26.066   3.835  50.045  1.00  0.00    -0.266 NA
HETATM   18  H19 UNL     1      21.371   4.708  51.769  1.00  0.00     0.159 HD
HETATM   19  H23 UNL     1      25.986   5.299  47.768  1.00  0.00     0.079 HD
ENDROOT
BRANCH   1  20
HETATM   20  O1  UNL     1      23.450   1.338  53.426  1.00  0.00    -0.348 OA
BRANCH  20  21
HETATM   21  C6  UNL     1      23.045   0.007  53.520  1.00  0.00     0.206 C 
BRANCH  21  22
HETATM   22  C5  UNL     1      21.969  -0.364  52.544  1.00  0.00     0.298 C 
BRANCH  22  23
HETATM   23  N1  UNL     1      20.824   0.493  52.561  1.00  0.00     0.086 N 
HETATM   24  C4  UNL     1      19.741  -0.210  53.181  1.00  0.00     0.310 C 
BRANCH  23  25
HETATM   25  C3  UNL     1      20.460   0.768  51.192  1.00  0.00     0.271 C 
BRANCH  25  26
HETATM   26  C2  UNL     1      21.558   0.642  50.201  1.00  0.00     0.026 C 
HETATM   27  C1  UNL     1      21.125   1.180  48.845  1.00  0.00     0.007 C 
ENDBRANCH  25  26
ENDBRANCH  23  25
ENDBRANCH  22  23
ENDBRANCH  21  22
ENDBRANCH  20  21
ENDBRANCH   1  20
TORSDOF 6
ENDMDL
MODEL 6
REMARK VINA RESULT:      -6.8      2.278      3.798
REMARK  6 active torsions:
REMARK  status: ('A' for Active; 'I' for Inactive)
REMARK    1  A    between atoms: C2_2  and  C3_3 
REMARK    2  A    between atoms: C3_3  and  N1_4 
REMARK    3  A    between atoms: N1_4  and  C5_6 
REMARK    4  A    between atoms: C5_6  and  C6_7 
REMARK    5  A    between atoms: C6_7  and  O1_8 
REMARK    6  A    between atoms: O1_8  and  C7_9 
ROOT
HETATM    1  C7  UNL     1      25.543   1.821  51.467  1.00  0.00     0.082 A 
HETATM    2  C8  UNL     1      26.666   2.469  51.024  1.00  0.00     0.038 A 
HETATM    3  C9  UNL     1      26.450   3.406  50.061  1.00  0.00     0.005 A 
HETATM    4  C10 UNL     1      25.170   3.680  49.569  1.00  0.00     0.032 A 
HETATM    5  C11 UNL     1      24.003   3.032  50.003  1.00  0.00     0.069 A 
HETATM    6  C12 UNL     1      24.248   2.083  50.982  1.00  0.00     0.041 A 
HETATM    7  C13 UNL     1      23.434   1.325  51.601  1.00  0.00     0.100 C 
HETATM    8  N2  UNL     1      22.249   0.736  51.987  1.00  0.00    -0.386 N 
HETATM    9  C14 UNL     1      21.456   1.548  51.083  1.00  0.00     0.061 A 
HETATM   10  C15 UNL     1      21.494   0.831  49.916  1.00  0.00     0.057 A 
HETATM   11  C16 UNL     1      21.107   1.289  48.707  1.00  0.00    -0.025 A 
HETATM   12  C17 UNL     1      20.938   2.241  49.631  1.00  0.00     0.056 A 
HETATM   13  C18 UNL     1      20.767   3.223  50.599  1.00  0.00     0.097 A 
HETATM   14 CL1  UNL     1      20.273   4.795  51.127  1.00  0.00    -0.110 Cl
HETATM   15  C19 UNL     1      21.172   2.693  51.778  1.00  0.00     0.056 A 
HETATM   16  P1  UNL     1      21.598   3.774  48.857  1.00  0.00     0.001 P 
HETATM   17  N3  UNL     1      23.346   3.731  49.203  1.00  0.00    -0.266 NA
HETATM   18  H19 UNL     1      21.479   0.224  52.364  1.00  0.00     0.159 HD
HETATM   19  H23 UNL     1      21.261   3.943  47.488  1.00  0.00     0.079 HD
ENDROOT
BRANCH   1  20
HETATM   20  O1  UNL     1      25.724   0.852  52.453  1.00  0.00    -0.348 OA
BRANCH  20  21
HETATM   21  C6  UNL     1      26.452  -0.300  52.157  1.00  0.00     0.206 C 
BRANCH  21  22
HETATM   22  C5  UNL     1      27.205  -0.853  53.330  1.00  0.00     0.298 C 
BRANCH  22  23
HETATM   23  N1  UNL     1      28.619  -0.640  53.287  1.00  0.00     0.086 N 
HETATM   24  C4  UNL     1      29.269  -1.914  53.219  1.00  0.00     0.310 C 
BRANCH  23  25
HETATM   25  C3  UNL     1      29.005  -0.000  54.522  1.00  0.00     0.271 C 
BRANCH  25  26
HETATM   26  C2  UNL     1      28.415   1.341  54.759  1.00  0.00     0.026 C 
HETATM   27  C1  UNL     1      28.948   2.350  53.752  1.00  0.00     0.007 C 
ENDBRANCH  25  26
ENDBRANCH  23  25
ENDBRANCH  22  23
ENDBRANCH  21  22
ENDBRANCH  20  21
ENDBRANCH   1  20
TORSDOF 6
ENDMDL
MODEL 7
REMARK VINA RESULT:      -6.8      3.611      5.927
REMARK  6 active torsions:
REMARK  status: ('A' for Active; 'I' for Inactive)
REMARK    1  A    between atoms: C2_2  and  C3_3 
REMARK    2  A    between atoms: C3_3  and  N1_4 
REMARK    3  A    between atoms: N1_4  and  C5_6 
REMARK    4  A    between atoms: C5_6  and  C6_7 
REMARK    5  A    between atoms: C6_7  and  O1_8 
REMARK    6  A    between atoms: O1_8  and  C7_9 
ROOT
HETATM    1  C7  UNL     1      23.480   3.501  52.214  1.00  0.00     0.082 A 
HETATM    2  C8  UNL     1      22.124   3.519  52.025  1.00  0.00     0.038 A 
HETATM    3  C9  UNL     1      21.490   2.340  52.274  1.00  0.00     0.005 A 
HETATM    4  C10 UNL     1      22.185   1.201  52.692  1.00  0.00     0.032 A 
HETATM    5  C11 UNL     1      23.573   1.153  52.892  1.00  0.00     0.069 A 
HETATM    6  C12 UNL     1      24.196   2.363  52.633  1.00  0.00     0.041 A 
HETATM    7  C13 UNL     1      25.425   2.680  52.719  1.00  0.00     0.100 C 
HETATM    8  N2  UNL     1      26.781   2.566  52.943  1.00  0.00    -0.386 N 
HETATM    9  C14 UNL     1      26.679   1.176  53.350  1.00  0.00     0.061 A 
HETATM   10  C15 UNL     1      26.765   0.503  52.159  1.00  0.00     0.057 A 
HETATM   11  C16 UNL     1      26.479  -0.804  51.981  1.00  0.00    -0.025 A 
HETATM   12  C17 UNL     1      26.293  -0.467  53.262  1.00  0.00     0.056 A 
HETATM   13  C18 UNL     1      26.102  -0.106  54.590  1.00  0.00     0.097 A 
HETATM   14 CL1  UNL     1      25.700  -0.452  56.237  1.00  0.00    -0.110 Cl
HETATM   15  C19 UNL     1      26.409   1.209  54.691  1.00  0.00     0.056 A 
HETATM   16  P1  UNL     1      24.688  -1.237  53.725  1.00  0.00     0.001 P 
HETATM   17  N3  UNL     1      23.460  -0.047  53.220  1.00  0.00    -0.266 NA
HETATM   18  H19 UNL     1      27.770   2.633  53.062  1.00  0.00     0.159 HD
HETATM   19  H23 UNL     1      24.491  -2.551  53.225  1.00  0.00     0.079 HD
ENDROOT
BRANCH   1  20
HETATM   20  O1  UNL     1      24.165   4.691  51.967  1.00  0.00    -0.348 OA
BRANCH  20  21
HETATM   21  C6  UNL     1      23.491   5.761  51.381  1.00  0.00     0.206 C 
BRANCH  21  22
HETATM   22  C5  UNL     1      24.107   6.226  50.095  1.00  0.00     0.298 C 
BRANCH  22  23
HETATM   23  N1  UNL     1      25.536   6.284  50.102  1.00  0.00     0.086 N 
HETATM   24  C4  UNL     1      25.935   7.652  50.237  1.00  0.00     0.310 C 
BRANCH  23  25
HETATM   25  C3  UNL     1      26.002   5.799  48.825  1.00  0.00     0.271 C 
BRANCH  25  26
HETATM   26  C2  UNL     1      27.107   4.809  48.881  1.00  0.00     0.026 C 
HETATM   27  C1  UNL     1      26.616   3.485  49.447  1.00  0.00     0.007 C 
ENDBRANCH  25  26
ENDBRANCH  23  25
ENDBRANCH  22  23
ENDBRANCH  21  22
ENDBRANCH  20  21
ENDBRANCH   1  20
TORSDOF 6
ENDMDL
MODEL 8
REMARK VINA RESULT:      -6.6      5.763      8.047
REMARK  6 active torsions:
REMARK  status: ('A' for Active; 'I' for Inactive)
REMARK    1  A    between atoms: C2_2  and  C3_3 
REMARK    2  A    between atoms: C3_3  and  N1_4 
REMARK    3  A    between atoms: N1_4  and  C5_6 
REMARK    4  A    between atoms: C5_6  and  C6_7 
REMARK    5  A    between atoms: C6_7  and  O1_8 
REMARK    6  A    between atoms: O1_8  and  C7_9 
ROOT
HETATM    1  C7  UNL     1      25.114   5.020  50.396  1.00  0.00     0.082 A 
HETATM    2  C8  UNL     1      25.495   3.706  50.327  1.00  0.00     0.038 A 
HETATM    3  C9  UNL     1      26.577   3.460  49.538  1.00  0.00     0.005 A 
HETATM    4  C10 UNL     1      27.242   4.482  48.855  1.00  0.00     0.032 A 
HETATM    5  C11 UNL     1      26.874   5.835  48.906  1.00  0.00     0.069 A 
HETATM    6  C12 UNL     1      25.771   6.061  49.714  1.00  0.00     0.041 A 
HETATM    7  C13 UNL     1      25.179   7.152  49.994  1.00  0.00     0.100 C 
HETATM    8  N2  UNL     1      24.877   8.497  50.008  1.00  0.00    -0.386 N 
HETATM    9  C14 UNL     1      25.985   8.838  49.133  1.00  0.00     0.061 A 
HETATM   10  C15 UNL     1      25.446   8.674  47.882  1.00  0.00     0.057 A 
HETATM   11  C16 UNL     1      26.148   8.636  46.731  1.00  0.00    -0.025 A 
HETATM   12  C17 UNL     1      26.978   8.809  47.765  1.00  0.00     0.056 A 
HETATM   13  C18 UNL     1      27.831   8.988  48.848  1.00  0.00     0.097 A 
HETATM   14 CL1  UNL     1      29.392   9.230  49.554  1.00  0.00    -0.110 Cl
HETATM   15  C19 UNL     1      27.060   9.019  49.960  1.00  0.00     0.056 A 
HETATM   16  P1  UNL     1      28.372   7.650  47.453  1.00  0.00     0.001 P 
HETATM   17  N3  UNL     1      27.822   6.098  48.138  1.00  0.00    -0.266 NA
HETATM   18  H19 UNL     1      24.542   9.432  50.113  1.00  0.00     0.159 HD
HETATM   19  H23 UNL     1      28.806   7.590  46.103  1.00  0.00     0.079 HD
ENDROOT
BRANCH   1  20
HETATM   20  O1  UNL     1      24.008   5.312  51.194  1.00  0.00    -0.348 OA
BRANCH  20  21
HETATM   21  C6  UNL     1      23.592   4.390  52.153  1.00  0.00     0.206 C 
BRANCH  21  22
HETATM   22  C5  UNL     1      22.106   4.186  52.186  1.00  0.00     0.298 C 
BRANCH  22  23
HETATM   23  N1  UNL     1      21.669   2.901  51.736  1.00  0.00     0.086 N 
HETATM   24  C4  UNL     1      22.674   1.937  52.068  1.00  0.00     0.310 C 
BRANCH  23  25
HETATM   25  C3  UNL     1      21.549   2.955  50.299  1.00  0.00     0.271 C 
BRANCH  25  26
HETATM   26  C2  UNL     1      22.324   1.932  49.553  1.00  0.00     0.026 C 
HETATM   27  C1  UNL     1      22.673   2.431  48.159  1.00  0.00     0.007 C 
ENDBRANCH  25  26
ENDBRANCH  23  25
ENDBRANCH  22  23
ENDBRANCH  21  22
ENDBRANCH  20  21
ENDBRANCH   1  20
TORSDOF 6
ENDMDL
MODEL 9
REMARK VINA RESULT:      -6.6      5.549      7.448
REMARK  6 active torsions:
REMARK  status: ('A' for Active; 'I' for Inactive)
REMARK    1  A    between atoms: C2_2  and  C3_3 
REMARK    2  A    between atoms: C3_3  and  N1_4 
REMARK    3  A    between atoms: N1_4  and  C5_6 
REMARK    4  A    between atoms: C5_6  and  C6_7 
REMARK    5  A    between atoms: C6_7  and  O1_8 
REMARK    6  A    between atoms: O1_8  and  C7_9 
ROOT
HETATM    1  C7  UNL     1      26.012   6.374  49.348  1.00  0.00     0.082 A 
HETATM    2  C8  UNL     1      27.148   6.047  48.657  1.00  0.00     0.038 A 
HETATM    3  C9  UNL     1      27.491   4.730  48.699  1.00  0.00     0.005 A 
HETATM    4  C10 UNL     1      26.729   3.790  49.400  1.00  0.00     0.032 A 
HETATM    5  C11 UNL     1      25.563   4.097  50.117  1.00  0.00     0.069 A 
HETATM    6  C12 UNL     1      25.234   5.442  50.059  1.00  0.00     0.041 A 
HETATM    7  C13 UNL     1      24.251   6.061  50.578  1.00  0.00     0.100 C 
HETATM    8  N2  UNL     1      23.094   6.291  51.292  1.00  0.00    -0.386 N 
HETATM    9  C14 UNL     1      22.941   4.893  51.651  1.00  0.00     0.061 A 
HETATM   10  C15 UNL     1      23.691   4.788  52.794  1.00  0.00     0.057 A 
HETATM   11  C16 UNL     1      24.062   3.629  53.378  1.00  0.00    -0.025 A 
HETATM   12  C17 UNL     1      23.338   3.376  52.282  1.00  0.00     0.056 A 
HETATM   13  C18 UNL     1      22.585   3.124  51.142  1.00  0.00     0.097 A 
HETATM   14 CL1  UNL     1      21.799   2.069  50.018  1.00  0.00    -0.110 Cl
HETATM   15  C19 UNL     1      22.249   4.326  50.615  1.00  0.00     0.056 A 
HETATM   16  P1  UNL     1      24.249   2.036  51.412  1.00  0.00     0.001 P 
HETATM   17  N3  UNL     1      25.464   2.891  50.427  1.00  0.00    -0.266 NA
HETATM   18  H19 UNL     1      22.275   6.607  51.768  1.00  0.00     0.159 HD
HETATM   19  H23 UNL     1      24.769   1.022  52.259  1.00  0.00     0.079 HD
ENDROOT
BRANCH   1  20
HETATM   20  O1  UNL     1      25.629   7.716  49.329  1.00  0.00    -0.348 OA
BRANCH  20  21
HETATM   21  C6  UNL     1      26.551   8.686  48.940  1.00  0.00     0.206 C 
BRANCH  21  22
HETATM   22  C5  UNL     1      27.334   9.263  50.082  1.00  0.00     0.298 C 
BRANCH  22  23
HETATM   23  N1  UNL     1      28.545   9.924  49.704  1.00  0.00     0.086 N 
HETATM   24  C4  UNL     1      28.240  10.889  48.692  1.00  0.00     0.310 C 
BRANCH  23  25
HETATM   25  C3  UNL     1      29.427   8.933  49.136  1.00  0.00     0.271 C 
BRANCH  25  26
HETATM   26  C2  UNL     1      30.876   9.155  49.371  1.00  0.00     0.026 C 
HETATM   27  C1  UNL     1      31.623   7.831  49.417  1.00  0.00     0.007 C 
ENDBRANCH  25  26
ENDBRANCH  23  25
ENDBRANCH  22  23
ENDBRANCH  21  22
ENDBRANCH  20  21
ENDBRANCH   1  20
TORSDOF 6
ENDMDL
