MODEL 1
REMARK VINA RESULT:      -8.1      0.000      0.000
REMARK  5 active torsions:
REMARK  status: ('A' for Active; 'I' for Inactive)
REMARK    1  A    between atoms: O1_2  and  C2_3 
REMARK    2  A    between atoms: N1_6  and  C5_7 
REMARK    3  A    between atoms: C8_11  and  N3_12 
REMARK    4  A    between atoms: N3_12  and  C9_13 
REMARK    5  A    between atoms: C13_17  and  O2_18 
ROOT
HETATM    1  C5  UNL     1      23.291   1.813  52.051  1.00  0.00     0.154 A 
HETATM    2  C6  UNL     1      23.313   2.548  50.887  1.00  0.00     0.071 A 
HETATM    3  C7  UNL     1      24.433   3.162  50.370  1.00  0.00     0.140 A 
HETATM    4  N2  UNL     1      25.576   3.021  51.068  1.00  0.00    -0.075 NA
HETATM    5  C8  UNL     1      25.614   2.306  52.225  1.00  0.00     0.728 A 
HETATM    6  N4  UNL     1      24.486   1.735  52.668  1.00  0.00    -0.044 NA
ENDROOT
BRANCH   5   7
HETATM    7  N3  UNL     1      26.840   2.178  52.935  1.00  0.00    -0.188 N 
HETATM    8  H9  UNL     1      27.179   2.992  53.490  1.00  0.00     0.184 HD
BRANCH   7   9
HETATM    9  C9  UNL     1      27.592   1.001  52.908  1.00  0.00     0.049 C 
HETATM   10  C10 UNL     1      28.799   1.050  53.436  1.00  0.00     0.030 C 
HETATM   11  C11 UNL     1      29.778  -0.043  53.529  1.00  0.00     0.001 C 
HETATM   12  C12 UNL     1      29.465  -1.345  53.502  1.00  0.00     0.008 C 
HETATM   13  C13 UNL     1      28.207  -2.116  53.384  1.00  0.00     0.164 C 
HETATM   14  C14 UNL     1      27.214  -1.431  52.510  1.00  0.00     0.011 C 
HETATM   15  C15 UNL     1      26.927  -0.158  52.283  1.00  0.00     0.029 C 
BRANCH  13  16
HETATM   16  O2  UNL     1      28.533  -3.366  52.867  1.00  0.00    -0.388 OA
HETATM   17  H14 UNL     1      28.695  -3.987  53.621  1.00  0.00     0.210 HD
ENDBRANCH  13  16
ENDBRANCH   7   9
ENDBRANCH   5   7
BRANCH   1  18
HETATM   18  N1  UNL     1      22.150   1.173  52.599  1.00  0.00    -0.317 N 
HETATM   19  C4  UNL     1      22.317   0.344  53.753  1.00  0.00     0.097 A 
HETATM   20  C3  UNL     1      21.282  -0.265  54.288  1.00  0.00     0.026 A 
HETATM   21  C2  UNL     1      19.908  -0.175  53.798  1.00  0.00     0.169 A 
HETATM   22  C17 UNL     1      19.874   0.709  52.607  1.00  0.00     0.026 A 
HETATM   23  C16 UNL     1      20.868   1.349  52.018  1.00  0.00     0.097 A 
BRANCH  21  24
HETATM   24  O1  UNL     1      19.331  -1.411  53.538  1.00  0.00    -0.383 OA
HETATM   25  C1  UNL     1      17.998  -1.366  53.209  1.00  0.00     0.202 C 
ENDBRANCH  21  24
ENDBRANCH   1  18
TORSDOF 5
ENDMDL
MODEL 2
REMARK VINA RESULT:      -8.1      3.678      6.541
REMARK  5 active torsions:
REMARK  status: ('A' for Active; 'I' for Inactive)
REMARK    1  A    between atoms: O1_2  and  C2_3 
REMARK    2  A    between atoms: N1_6  and  C5_7 
REMARK    3  A    between atoms: C8_11  and  N3_12 
REMARK    4  A    between atoms: N3_12  and  C9_13 
REMARK    5  A    between atoms: C13_17  and  O2_18 
ROOT
HETATM    1  C5  UNL     1      25.434   3.875  49.974  1.00  0.00     0.154 A 
HETATM    2  C6  UNL     1      24.210   3.422  49.535  1.00  0.00     0.071 A 
HETATM    3  C7  UNL     1      23.472   2.437  50.155  1.00  0.00     0.140 A 
HETATM    4  N2  UNL     1      24.003   1.893  51.266  1.00  0.00    -0.075 NA
HETATM    5  C8  UNL     1      25.210   2.300  51.746  1.00  0.00     0.728 A 
HETATM    6  N4  UNL     1      25.872   3.264  51.092  1.00  0.00    -0.044 NA
ENDROOT
BRANCH   5   7
HETATM    7  N3  UNL     1      25.739   1.701  52.922  1.00  0.00    -0.188 N 
HETATM    8  H9  UNL     1      25.377   2.017  53.847  1.00  0.00     0.184 HD
BRANCH   7   9
HETATM    9  C9  UNL     1      26.723   0.709  52.869  1.00  0.00     0.049 C 
HETATM   10  C10 UNL     1      27.910   1.017  53.353  1.00  0.00     0.030 C 
HETATM   11  C11 UNL     1      29.100   0.157  53.413  1.00  0.00     0.001 C 
HETATM   12  C12 UNL     1      29.069  -1.182  53.398  1.00  0.00     0.008 C 
HETATM   13  C13 UNL     1      28.000  -2.203  53.327  1.00  0.00     0.164 C 
HETATM   14  C14 UNL     1      26.854  -1.751  52.489  1.00  0.00     0.011 C 
HETATM   15  C15 UNL     1      26.296  -0.570  52.271  1.00  0.00     0.029 C 
BRANCH  13  16
HETATM   16  O2  UNL     1      28.565  -3.360  52.801  1.00  0.00    -0.388 OA
HETATM   17  H14 UNL     1      28.776  -3.976  53.547  1.00  0.00     0.210 HD
ENDBRANCH  13  16
ENDBRANCH   7   9
ENDBRANCH   5   7
BRANCH   1  18
HETATM   18  N1  UNL     1      26.209   4.887  49.352  1.00  0.00    -0.317 N 
HETATM   19  C4  UNL     1      27.522   4.559  48.888  1.00  0.00     0.097 A 
HETATM   20  C3  UNL     1      28.268   5.471  48.307  1.00  0.00     0.026 A 
HETATM   21  C2  UNL     1      27.871   6.859  48.075  1.00  0.00     0.169 A 
HETATM   22  C17 UNL     1      26.499   7.065  48.600  1.00  0.00     0.026 A 
HETATM   23  C16 UNL     1      25.696   6.200  49.192  1.00  0.00     0.097 A 
BRANCH  21  24
HETATM   24  O1  UNL     1      28.765   7.785  48.596  1.00  0.00    -0.383 OA
HETATM   25  C1  UNL     1      28.181   8.874  49.196  1.00  0.00     0.202 C 
ENDBRANCH  21  24
ENDBRANCH   1  18
TORSDOF 5
ENDMDL
MODEL 3
REMARK VINA RESULT:      -8.1      1.620      7.582
REMARK  5 active torsions:
REMARK  status: ('A' for Active; 'I' for Inactive)
REMARK    1  A    between atoms: O1_2  and  C2_3 
REMARK    2  A    between atoms: N1_6  and  C5_7 
REMARK    3  A    between atoms: C8_11  and  N3_12 
REMARK    4  A    between atoms: N3_12  and  C9_13 
REMARK    5  A    between atoms: C13_17  and  O2_18 
ROOT
HETATM    1  C5  UNL     1      25.060   2.012  53.006  1.00  0.00     0.154 A 
HETATM    2  C6  UNL     1      24.607   3.309  53.080  1.00  0.00     0.071 A 
HETATM    3  C7  UNL     1      23.394   3.743  52.590  1.00  0.00     0.140 A 
HETATM    4  N2  UNL     1      22.614   2.817  52.001  1.00  0.00    -0.075 NA
HETATM    5  C8  UNL     1      23.011   1.519  51.899  1.00  0.00     0.728 A 
HETATM    6  N4  UNL     1      24.203   1.168  52.399  1.00  0.00    -0.044 NA
ENDROOT
BRANCH   5   7
HETATM    7  N3  UNL     1      22.160   0.569  51.270  1.00  0.00    -0.188 N 
HETATM    8  H9  UNL     1      22.540   0.009  50.478  1.00  0.00     0.184 HD
BRANCH   7   9
HETATM    9  C9  UNL     1      20.840   0.369  51.685  1.00  0.00     0.049 C 
HETATM   10  C10 UNL     1      19.896   0.541  50.780  1.00  0.00     0.030 C 
HETATM   11  C11 UNL     1      18.445   0.393  50.965  1.00  0.00     0.001 C 
HETATM   12  C12 UNL     1      17.875  -0.349  51.923  1.00  0.00     0.008 C 
HETATM   13  C13 UNL     1      18.377  -1.198  53.026  1.00  0.00     0.164 C 
HETATM   14  C14 UNL     1      19.639  -0.663  53.610  1.00  0.00     0.011 C 
HETATM   15  C15 UNL     1      20.675  -0.015  53.099  1.00  0.00     0.029 C 
BRANCH  13  16
HETATM   16  O2  UNL     1      17.378  -1.257  53.992  1.00  0.00    -0.388 OA
HETATM   17  H14 UNL     1      17.561  -2.025  54.590  1.00  0.00     0.210 HD
ENDBRANCH  13  16
ENDBRANCH   7   9
ENDBRANCH   5   7
BRANCH   1  18
HETATM   18  N1  UNL     1      26.304   1.544  53.504  1.00  0.00    -0.317 N 
HETATM   19  C4  UNL     1      27.503   2.196  53.078  1.00  0.00     0.097 A 
HETATM   20  C3  UNL     1      28.673   1.790  53.519  1.00  0.00     0.026 A 
HETATM   21  C2  UNL     1      28.882   0.682  54.450  1.00  0.00     0.169 A 
HETATM   22  C17 UNL     1      27.567   0.097  54.811  1.00  0.00     0.026 A 
HETATM   23  C16 UNL     1      26.360   0.452  54.408  1.00  0.00     0.097 A 
BRANCH  21  24
HETATM   24  O1  UNL     1      29.760  -0.282  53.975  1.00  0.00    -0.383 OA
HETATM   25  C1  UNL     1      29.159  -1.368  53.386  1.00  0.00     0.202 C 
ENDBRANCH  21  24
ENDBRANCH   1  18
TORSDOF 5
ENDMDL
MODEL 4
REMARK VINA RESULT:      -8.0      2.413      3.824
REMARK  5 active torsions:
REMARK  status: ('A' for Active; 'I' for Inactive)
REMARK    1  A    between atoms: O1_2  and  C2_3 
REMARK    2  A    between atoms: N1_6  and  C5_7 
REMARK    3  A    between atoms: C8_11  and  N3_12 
REMARK    4  A    between atoms: N3_12  and  C9_13 
REMARK    5  A    between atoms: C13_17  and  O2_18 
ROOT
HETATM    1  C5  UNL     1      21.179  -0.604  53.423  1.00  0.00     0.154 A 
HETATM    2  C6  UNL     1      21.474  -1.167  54.644  1.00  0.00     0.071 A 
HETATM    3  C7  UNL     1      22.743  -1.275  55.170  1.00  0.00     0.140 A 
HETATM    4  N2  UNL     1      23.751  -0.790  54.420  1.00  0.00    -0.075 NA
HETATM    5  C8  UNL     1      23.519  -0.223  53.205  1.00  0.00     0.728 A 
HETATM    6  N4  UNL     1      22.259  -0.150  52.757  1.00  0.00    -0.044 NA
ENDROOT
BRANCH   5   7
HETATM    7  N3  UNL     1      24.610   0.279  52.442  1.00  0.00    -0.188 N 
HETATM    8  H9  UNL     1      24.443   0.535  51.446  1.00  0.00     0.184 HD
BRANCH   7   9
HETATM    9  C9  UNL     1      25.887   0.434  52.989  1.00  0.00     0.049 C 
HETATM   10  C10 UNL     1      26.747  -0.544  52.787  1.00  0.00     0.030 C 
HETATM   11  C11 UNL     1      28.139  -0.620  53.254  1.00  0.00     0.001 C 
HETATM   12  C12 UNL     1      28.891   0.443  53.572  1.00  0.00     0.008 C 
HETATM   13  C13 UNL     1      28.678   1.907  53.586  1.00  0.00     0.164 C 
HETATM   14  C14 UNL     1      27.279   2.264  53.953  1.00  0.00     0.011 C 
HETATM   15  C15 UNL     1      26.106   1.690  53.730  1.00  0.00     0.029 C 
BRANCH  13  16
HETATM   16  O2  UNL     1      29.577   2.448  54.500  1.00  0.00    -0.388 OA
HETATM   17  H14 UNL     1      30.270   2.950  54.002  1.00  0.00     0.210 HD
ENDBRANCH  13  16
ENDBRANCH   7   9
ENDBRANCH   5   7
BRANCH   1  18
HETATM   18  N1  UNL     1      19.881  -0.481  52.864  1.00  0.00    -0.317 N 
HETATM   19  C4  UNL     1      19.706   0.344  51.709  1.00  0.00     0.097 A 
HETATM   20  C3  UNL     1      18.518   0.480  51.164  1.00  0.00     0.026 A 
HETATM   21  C2  UNL     1      17.294  -0.160  51.644  1.00  0.00     0.169 A 
HETATM   22  C17 UNL     1      17.613  -0.981  52.838  1.00  0.00     0.026 A 
HETATM   23  C16 UNL     1      18.776  -1.163  53.436  1.00  0.00     0.097 A 
BRANCH  21  24
HETATM   24  O1  UNL     1      16.264   0.736  51.897  1.00  0.00    -0.383 OA
HETATM   25  C1  UNL     1      15.266   0.251  52.708  1.00  0.00     0.202 C 
ENDBRANCH  21  24
ENDBRANCH   1  18
TORSDOF 5
ENDMDL
MODEL 5
REMARK VINA RESULT:      -7.7      4.017      7.409
REMARK  5 active torsions:
REMARK  status: ('A' for Active; 'I' for Inactive)
REMARK    1  A    between atoms: O1_2  and  C2_3 
REMARK    2  A    between atoms: N1_6  and  C5_7 
REMARK    3  A    between atoms: C8_11  and  N3_12 
REMARK    4  A    between atoms: N3_12  and  C9_13 
REMARK    5  A    between atoms: C13_17  and  O2_18 
ROOT
HETATM    1  C5  UNL     1      25.695   2.375  52.522  1.00  0.00     0.154 A 
HETATM    2  C6  UNL     1      24.435   2.590  53.032  1.00  0.00     0.071 A 
HETATM    3  C7  UNL     1      23.444   3.304  52.393  1.00  0.00     0.140 A 
HETATM    4  N2  UNL     1      23.751   3.817  51.187  1.00  0.00    -0.075 NA
HETATM    5  C8  UNL     1      24.981   3.636  50.633  1.00  0.00     0.728 A 
HETATM    6  N4  UNL     1      25.896   2.931  51.311  1.00  0.00    -0.044 NA
ENDROOT
BRANCH   5   7
HETATM    7  N3  UNL     1      25.268   4.194  49.357  1.00  0.00    -0.188 N 
HETATM    8  H9  UNL     1      24.687   3.900  48.544  1.00  0.00     0.184 HD
BRANCH   7   9
HETATM    9  C9  UNL     1      26.301   5.118  49.168  1.00  0.00     0.049 C 
HETATM   10  C10 UNL     1      27.432   4.657  48.672  1.00  0.00     0.030 C 
HETATM   11  C11 UNL     1      28.655   5.419  48.383  1.00  0.00     0.001 C 
HETATM   12  C12 UNL     1      28.692   6.739  48.160  1.00  0.00     0.008 C 
HETATM   13  C13 UNL     1      27.682   7.820  48.117  1.00  0.00     0.164 C 
HETATM   14  C14 UNL     1      26.581   7.594  49.094  1.00  0.00     0.011 C 
HETATM   15  C15 UNL     1      25.984   6.505  49.555  1.00  0.00     0.029 C 
BRANCH  13  16
HETATM   16  O2  UNL     1      28.341   9.015  48.391  1.00  0.00    -0.388 OA
HETATM   17  H14 UNL     1      29.058   9.141  47.720  1.00  0.00     0.210 HD
ENDBRANCH  13  16
ENDBRANCH   7   9
ENDBRANCH   5   7
BRANCH   1  18
HETATM   18  N1  UNL     1      26.729   1.644  53.162  1.00  0.00    -0.317 N 
HETATM   19  C4  UNL     1      27.990   2.283  53.377  1.00  0.00     0.097 A 
HETATM   20  C3  UNL     1      28.971   1.636  53.967  1.00  0.00     0.026 A 
HETATM   21  C2  UNL     1      28.898   0.259  54.451  1.00  0.00     0.169 A 
HETATM   22  C17 UNL     1      27.546  -0.283  54.169  1.00  0.00     0.026 A 
HETATM   23  C16 UNL     1      26.519   0.305  53.583  1.00  0.00     0.097 A 
BRANCH  21  24
HETATM   24  O1  UNL     1      29.897  -0.560  53.943  1.00  0.00    -0.383 OA
HETATM   25  C1  UNL     1      29.451  -1.735  53.387  1.00  0.00     0.202 C 
ENDBRANCH  21  24
ENDBRANCH   1  18
TORSDOF 5
ENDMDL
MODEL 6
REMARK VINA RESULT:      -7.6      3.570      6.226
REMARK  5 active torsions:
REMARK  status: ('A' for Active; 'I' for Inactive)
REMARK    1  A    between atoms: O1_2  and  C2_3 
REMARK    2  A    between atoms: N1_6  and  C5_7 
REMARK    3  A    between atoms: C8_11  and  N3_12 
REMARK    4  A    between atoms: N3_12  and  C9_13 
REMARK    5  A    between atoms: C13_17  and  O2_18 
ROOT
HETATM    1  C5  UNL     1      24.120   3.450  49.769  1.00  0.00     0.154 A 
HETATM    2  C6  UNL     1      23.071   2.845  49.115  1.00  0.00     0.071 A 
HETATM    3  C7  UNL     1      22.331   1.799  49.622  1.00  0.00     0.140 A 
HETATM    4  N2  UNL     1      22.674   1.354  50.846  1.00  0.00    -0.075 NA
HETATM    5  C8  UNL     1      23.702   1.913  51.539  1.00  0.00     0.728 A 
HETATM    6  N4  UNL     1      24.379   2.928  50.984  1.00  0.00    -0.044 NA
ENDROOT
BRANCH   5   7
HETATM    7  N3  UNL     1      24.036   1.416  52.829  1.00  0.00    -0.188 N 
HETATM    8  H9  UNL     1      23.284   1.354  53.548  1.00  0.00     0.184 HD
BRANCH   7   9
HETATM    9  C9  UNL     1      25.334   1.010  53.153  1.00  0.00     0.049 C 
HETATM   10  C10 UNL     1      25.667  -0.229  52.848  1.00  0.00     0.030 C 
HETATM   11  C11 UNL     1      26.959  -0.890  53.083  1.00  0.00     0.001 C 
HETATM   12  C12 UNL     1      28.124  -0.246  53.233  1.00  0.00     0.008 C 
HETATM   13  C13 UNL     1      28.541   1.174  53.228  1.00  0.00     0.164 C 
HETATM   14  C14 UNL     1      27.496   2.064  53.807  1.00  0.00     0.011 C 
HETATM   15  C15 UNL     1      26.172   2.036  53.801  1.00  0.00     0.029 C 
BRANCH  13  16
HETATM   16  O2  UNL     1      29.720   1.263  53.962  1.00  0.00    -0.388 OA
HETATM   17  H14 UNL     1      29.918   2.219  54.127  1.00  0.00     0.210 HD
ENDBRANCH  13  16
ENDBRANCH   7   9
ENDBRANCH   5   7
BRANCH   1  18
HETATM   18  N1  UNL     1      24.894   4.527  49.266  1.00  0.00    -0.317 N 
HETATM   19  C4  UNL     1      26.319   4.413  49.278  1.00  0.00     0.097 A 
HETATM   20  C3  UNL     1      27.068   5.392  48.820  1.00  0.00     0.026 A 
HETATM   21  C2  UNL     1      26.564   6.649  48.269  1.00  0.00     0.169 A 
HETATM   22  C17 UNL     1      25.081   6.638  48.314  1.00  0.00     0.026 A 
HETATM   23  C16 UNL     1      24.269   5.696  48.759  1.00  0.00     0.097 A 
BRANCH  21  24
HETATM   24  O1  UNL     1      27.089   7.774  48.890  1.00  0.00    -0.383 OA
HETATM   25  C1  UNL     1      26.463   8.131  50.060  1.00  0.00     0.202 C 
ENDBRANCH  21  24
ENDBRANCH   1  18
TORSDOF 5
ENDMDL
MODEL 7
REMARK VINA RESULT:      -7.6      2.992      7.163
REMARK  5 active torsions:
REMARK  status: ('A' for Active; 'I' for Inactive)
REMARK    1  A    between atoms: O1_2  and  C2_3 
REMARK    2  A    between atoms: N1_6  and  C5_7 
REMARK    3  A    between atoms: C8_11  and  N3_12 
REMARK    4  A    between atoms: N3_12  and  C9_13 
REMARK    5  A    between atoms: C13_17  and  O2_18 
ROOT
HETATM    1  C5  UNL     1      24.388   0.005  52.970  1.00  0.00     0.154 A 
HETATM    2  C6  UNL     1      23.324  -0.730  53.441  1.00  0.00     0.071 A 
HETATM    3  C7  UNL     1      22.016  -0.558  53.043  1.00  0.00     0.140 A 
HETATM    4  N2  UNL     1      21.785   0.402  52.127  1.00  0.00    -0.075 NA
HETATM    5  C8  UNL     1      22.797   1.160  51.626  1.00  0.00     0.728 A 
HETATM    6  N4  UNL     1      24.046   0.937  52.059  1.00  0.00    -0.044 NA
ENDROOT
BRANCH   5   7
HETATM    7  N3  UNL     1      22.514   2.165  50.660  1.00  0.00    -0.188 N 
HETATM    8  H9  UNL     1      21.770   1.980  49.954  1.00  0.00     0.184 HD
BRANCH   7   9
HETATM    9  C9  UNL     1      23.201   3.382  50.636  1.00  0.00     0.049 C 
HETATM   10  C10 UNL     1      23.843   3.684  49.525  1.00  0.00     0.030 C 
HETATM   11  C11 UNL     1      24.633   4.893  49.250  1.00  0.00     0.001 C 
HETATM   12  C12 UNL     1      24.477   6.061  49.888  1.00  0.00     0.008 C 
HETATM   13  C13 UNL     1      23.591   6.553  50.966  1.00  0.00     0.164 C 
HETATM   14  C14 UNL     1      23.283   5.490  51.964  1.00  0.00     0.011 C 
HETATM   15  C15 UNL     1      23.114   4.180  51.873  1.00  0.00     0.029 C 
BRANCH  13  16
HETATM   16  O2  UNL     1      24.236   7.624  51.577  1.00  0.00    -0.388 OA
HETATM   17  H14 UNL     1      24.779   7.278  52.329  1.00  0.00     0.210 HD
ENDBRANCH  13  16
ENDBRANCH   7   9
ENDBRANCH   5   7
BRANCH   1  18
HETATM   18  N1  UNL     1      25.741  -0.155  53.366  1.00  0.00    -0.317 N 
HETATM   19  C4  UNL     1      26.130   0.278  54.672  1.00  0.00     0.097 A 
HETATM   20  C3  UNL     1      27.375   0.145  55.073  1.00  0.00     0.026 A 
HETATM   21  C2  UNL     1      28.457  -0.433  54.277  1.00  0.00     0.169 A 
HETATM   22  C17 UNL     1      27.922  -0.839  52.954  1.00  0.00     0.026 A 
HETATM   23  C16 UNL     1      26.691  -0.735  52.487  1.00  0.00     0.097 A 
BRANCH  21  24
HETATM   24  O1  UNL     1      29.558   0.403  54.152  1.00  0.00    -0.383 OA
HETATM   25  C1  UNL     1      29.291   1.739  54.328  1.00  0.00     0.202 C 
ENDBRANCH  21  24
ENDBRANCH   1  18
TORSDOF 5
ENDMDL
MODEL 8
REMARK VINA RESULT:      -7.6      3.063      7.100
REMARK  5 active torsions:
REMARK  status: ('A' for Active; 'I' for Inactive)
REMARK    1  A    between atoms: O1_2  and  C2_3 
REMARK    2  A    between atoms: N1_6  and  C5_7 
REMARK    3  A    between atoms: C8_11  and  N3_12 
REMARK    4  A    between atoms: N3_12  and  C9_13 
REMARK    5  A    between atoms: C13_17  and  O2_18 
ROOT
HETATM    1  C5  UNL     1      24.781   1.002  53.279  1.00  0.00     0.154 A 
HETATM    2  C6  UNL     1      23.912  -0.058  53.412  1.00  0.00     0.071 A 
HETATM    3  C7  UNL     1      22.581  -0.027  53.058  1.00  0.00     0.140 A 
HETATM    4  N2  UNL     1      22.117   1.129  52.548  1.00  0.00    -0.075 NA
HETATM    5  C8  UNL     1      22.929   2.210  52.394  1.00  0.00     0.728 A 
HETATM    6  N4  UNL     1      24.215   2.109  52.759  1.00  0.00    -0.044 NA
ENDROOT
BRANCH   5   7
HETATM    7  N3  UNL     1      22.404   3.415  51.852  1.00  0.00    -0.188 N 
HETATM    8  H9  UNL     1      21.387   3.611  51.970  1.00  0.00     0.184 HD
BRANCH   7   9
HETATM    9  C9  UNL     1      23.209   4.335  51.173  1.00  0.00     0.049 C 
HETATM   10  C10 UNL     1      23.388   5.509  51.744  1.00  0.00     0.030 C 
HETATM   11  C11 UNL     1      24.182   6.637  51.237  1.00  0.00     0.001 C 
HETATM   12  C12 UNL     1      25.189   6.522  50.360  1.00  0.00     0.008 C 
HETATM   13  C13 UNL     1      25.827   5.395  49.644  1.00  0.00     0.164 C 
HETATM   14  C14 UNL     1      24.846   4.330  49.293  1.00  0.00     0.011 C 
HETATM   15  C15 UNL     1      23.759   3.863  49.889  1.00  0.00     0.029 C 
BRANCH  13  16
HETATM   16  O2  UNL     1      26.417   5.914  48.495  1.00  0.00    -0.388 OA
HETATM   17  H14 UNL     1      27.242   5.401  48.305  1.00  0.00     0.210 HD
ENDBRANCH  13  16
ENDBRANCH   7   9
ENDBRANCH   5   7
BRANCH   1  18
HETATM   18  N1  UNL     1      26.154   0.992  53.636  1.00  0.00    -0.317 N 
HETATM   19  C4  UNL     1      27.040   1.904  52.981  1.00  0.00     0.097 A 
HETATM   20  C3  UNL     1      28.318   1.923  53.287  1.00  0.00     0.026 A 
HETATM   21  C2  UNL     1      28.958   1.062  54.280  1.00  0.00     0.169 A 
HETATM   22  C17 UNL     1      27.935   0.171  54.880  1.00  0.00     0.026 A 
HETATM   23  C16 UNL     1      26.641   0.097  54.623  1.00  0.00     0.097 A 
BRANCH  21  24
HETATM   24  O1  UNL     1      30.034   0.343  53.778  1.00  0.00    -0.383 OA
HETATM   25  C1  UNL     1      29.756  -0.964  53.462  1.00  0.00     0.202 C 
ENDBRANCH  21  24
ENDBRANCH   1  18
TORSDOF 5
ENDMDL
MODEL 9
REMARK VINA RESULT:      -7.6      4.065      7.281
REMARK  5 active torsions:
REMARK  status: ('A' for Active; 'I' for Inactive)
REMARK    1  A    between atoms: O1_2  and  C2_3 
REMARK    2  A    between atoms: N1_6  and  C5_7 
REMARK    3  A    between atoms: C8_11  and  N3_12 
REMARK    4  A    between atoms: N3_12  and  C9_13 
REMARK    5  A    between atoms: C13_17  and  O2_18 
ROOT
HETATM    1  C5  UNL     1      25.106   4.849  49.500  1.00  0.00     0.154 A 
HETATM    2  C6  UNL     1      23.918   4.605  48.847  1.00  0.00     0.071 A 
HETATM    3  C7  UNL     1      22.817   4.010  49.423  1.00  0.00     0.140 A 
HETATM    4  N2  UNL     1      22.931   3.650  50.716  1.00  0.00    -0.075 NA
HETATM    5  C8  UNL     1      24.081   3.866  51.411  1.00  0.00     0.728 A 
HETATM    6  N4  UNL     1      25.113   4.450  50.787  1.00  0.00    -0.044 NA
ENDROOT
BRANCH   5   7
HETATM    7  N3  UNL     1      24.164   3.472  52.775  1.00  0.00    -0.188 N 
HETATM    8  H9  UNL     1      23.807   4.125  53.504  1.00  0.00     0.184 HD
BRANCH   7   9
HETATM    9  C9  UNL     1      24.707   2.242  53.158  1.00  0.00     0.049 C 
HETATM   10  C10 UNL     1      23.956   1.174  52.977  1.00  0.00     0.030 C 
HETATM   11  C11 UNL     1      24.295  -0.220  53.296  1.00  0.00     0.001 C 
HETATM   12  C12 UNL     1      25.544  -0.691  53.405  1.00  0.00     0.008 C 
HETATM   13  C13 UNL     1      26.897  -0.105  53.274  1.00  0.00     0.164 C 
HETATM   14  C14 UNL     1      26.941   1.306  53.748  1.00  0.00     0.011 C 
HETATM   15  C15 UNL     1      26.069   2.302  53.721  1.00  0.00     0.029 C 
BRANCH  13  16
HETATM   16  O2  UNL     1      27.766  -0.898  54.017  1.00  0.00    -0.388 OA
HETATM   17  H14 UNL     1      28.455  -0.315  54.423  1.00  0.00     0.210 HD
ENDBRANCH  13  16
ENDBRANCH   7   9
ENDBRANCH   5   7
BRANCH   1  18
HETATM   18  N1  UNL     1      26.251   5.460  48.926  1.00  0.00    -0.317 N 
HETATM   19  C4  UNL     1      27.460   4.702  48.835  1.00  0.00     0.097 A 
HETATM   20  C3  UNL     1      28.540   5.236  48.309  1.00  0.00     0.026 A 
HETATM   21  C2  UNL     1      28.635   6.596  47.782  1.00  0.00     0.169 A 
HETATM   22  C17 UNL     1      27.321   7.268  47.936  1.00  0.00     0.026 A 
HETATM   23  C16 UNL     1      26.201   6.796  48.452  1.00  0.00     0.097 A 
BRANCH  21  24
HETATM   24  O1  UNL     1      29.662   7.339  48.347  1.00  0.00    -0.383 OA
HETATM   25  C1  UNL     1      30.759   6.606  48.730  1.00  0.00     0.202 C 
ENDBRANCH  21  24
ENDBRANCH   1  18
TORSDOF 5
ENDMDL
