MODEL 1
REMARK VINA RESULT:      -7.9      0.000      0.000
REMARK  5 active torsions:
REMARK  status: ('A' for Active; 'I' for Inactive)
REMARK    1  A    between atoms: C2_2  and  N1_3 
REMARK    2  A    between atoms: N1_3  and  O1_4 
REMARK    3  A    between atoms: N1_3  and  C3_5 
REMARK    4  A    between atoms: C8_12  and  N4_13 
REMARK    5  A    between atoms: N4_13  and  C9_14 
ROOT
HETATM    1  C3  UNL     1      26.658   1.119  53.759  1.00  0.00     0.063 A 
HETATM    2  C4  UNL     1      25.911   0.020  54.152  1.00  0.00     0.034 A 
HETATM    3  C5  UNL     1      24.632  -0.093  53.640  1.00  0.00     0.035 A 
HETATM    4  C6  UNL     1      24.087   0.811  52.784  1.00  0.00     0.072 A 
HETATM    5  N2  UNL     1      22.830   0.666  52.317  1.00  0.00    -0.241 NA
HETATM    6  C7  UNL     1      22.299   1.596  51.464  1.00  0.00     0.235 A 
HETATM    7  N3  UNL     1      23.062   2.639  51.118  1.00  0.00    -0.224 NA
HETATM    8  C8  UNL     1      24.306   2.860  51.530  1.00  0.00     0.138 A 
HETATM    9  C14 UNL     1      24.830   1.905  52.394  1.00  0.00     0.041 A 
HETATM   10  C15 UNL     1      26.102   2.056  52.877  1.00  0.00     0.049 A 
ENDROOT
BRANCH   8  11
HETATM   11  N4  UNL     1      25.024   4.015  51.110  1.00  0.00    -0.363 N 
HETATM   12  H8  UNL     1      25.368   4.769  51.714  1.00  0.00     0.162 HD
BRANCH  11  13
HETATM   13  C9  UNL     1      25.302   4.149  49.698  1.00  0.00     0.131 A 
HETATM   14  C10 UNL     1      26.659   3.602  49.409  1.00  0.00     0.003 A 
HETATM   15  C11 UNL     1      27.429   4.542  48.887  1.00  0.00     0.017 A 
HETATM   16  C12 UNL     1      26.648   5.775  48.791  1.00  0.00     0.009 A 
HETATM   17 BR1  UNL     1      27.638   7.246  48.043  1.00  0.00    -0.051 Br
HETATM   18  C13 UNL     1      25.413   5.548  49.262  1.00  0.00     0.021 A 
ENDBRANCH  11  13
ENDBRANCH   8  11
BRANCH   1  19
HETATM   19  N1  UNL     1      28.000   1.406  54.212  1.00  0.00    -0.237 N 
BRANCH  19  20
HETATM   20  C2  UNL     1      28.842   0.356  54.671  1.00  0.00     0.113 C 
HETATM   21  C1  UNL     1      29.609   0.036  53.620  1.00  0.00     0.032 C 
ENDBRANCH  19  20
BRANCH  19  22
HETATM   22  O1  UNL     1      28.120   2.739  54.056  1.00  0.00    -0.283 OA
HETATM   23  H4  UNL     1      28.907   3.138  54.500  1.00  0.00     0.245 HD
ENDBRANCH  19  22
ENDBRANCH   1  19
TORSDOF 5
ENDMDL
MODEL 2
REMARK VINA RESULT:      -7.4      1.779      2.043
REMARK  5 active torsions:
REMARK  status: ('A' for Active; 'I' for Inactive)
REMARK    1  A    between atoms: C2_2  and  N1_3 
REMARK    2  A    between atoms: N1_3  and  O1_4 
REMARK    3  A    between atoms: N1_3  and  C3_5 
REMARK    4  A    between atoms: C8_12  and  N4_13 
REMARK    5  A    between atoms: N4_13  and  C9_14 
ROOT
HETATM    1  C3  UNL     1      24.637   0.035  53.465  1.00  0.00     0.063 A 
HETATM    2  C4  UNL     1      23.417  -0.494  53.858  1.00  0.00     0.034 A 
HETATM    3  C5  UNL     1      22.281   0.224  53.536  1.00  0.00     0.035 A 
HETATM    4  C6  UNL     1      22.309   1.405  52.863  1.00  0.00     0.072 A 
HETATM    5  N2  UNL     1      21.176   2.078  52.579  1.00  0.00    -0.241 NA
HETATM    6  C7  UNL     1      21.229   3.270  51.909  1.00  0.00     0.235 A 
HETATM    7  N3  UNL     1      22.432   3.738  51.554  1.00  0.00    -0.224 NA
HETATM    8  C8  UNL     1      23.596   3.142  51.794  1.00  0.00     0.138 A 
HETATM    9  C14 UNL     1      23.522   1.932  52.473  1.00  0.00     0.041 A 
HETATM   10  C15 UNL     1      24.672   1.252  52.772  1.00  0.00     0.049 A 
ENDROOT
BRANCH   8  11
HETATM   11  N4  UNL     1      24.823   3.737  51.385  1.00  0.00    -0.363 N 
HETATM   12  H8  UNL     1      25.567   4.081  52.002  1.00  0.00     0.162 HD
BRANCH  11  13
HETATM   13  C9  UNL     1      25.054   3.877  49.964  1.00  0.00     0.131 A 
HETATM   14  C10 UNL     1      26.390   3.309  49.624  1.00  0.00     0.003 A 
HETATM   15  C11 UNL     1      27.157   4.240  49.082  1.00  0.00     0.017 A 
HETATM   16  C12 UNL     1      26.394   5.487  49.021  1.00  0.00     0.009 A 
HETATM   17 BR1  UNL     1      27.382   6.946  48.249  1.00  0.00    -0.051 Br
HETATM   18  C13 UNL     1      25.173   5.277  49.533  1.00  0.00     0.021 A 
ENDBRANCH  11  13
ENDBRANCH   8  11
BRANCH   1  19
HETATM   19  N1  UNL     1      25.921  -0.569  53.737  1.00  0.00    -0.237 N 
BRANCH  19  20
HETATM   20  C2  UNL     1      26.866  -0.749  52.691  1.00  0.00     0.113 C 
HETATM   21  C1  UNL     1      26.883  -2.068  52.456  1.00  0.00     0.032 C 
ENDBRANCH  19  20
BRANCH  19  22
HETATM   22  O1  UNL     1      25.888  -0.824  55.060  1.00  0.00    -0.283 OA
HETATM   23  H4  UNL     1      25.209  -0.310  55.562  1.00  0.00     0.245 HD
ENDBRANCH  19  22
ENDBRANCH   1  19
TORSDOF 5
ENDMDL
MODEL 3
REMARK VINA RESULT:      -7.2      2.697      3.719
REMARK  5 active torsions:
REMARK  status: ('A' for Active; 'I' for Inactive)
REMARK    1  A    between atoms: C2_2  and  N1_3 
REMARK    2  A    between atoms: N1_3  and  O1_4 
REMARK    3  A    between atoms: N1_3  and  C3_5 
REMARK    4  A    between atoms: C8_12  and  N4_13 
REMARK    5  A    between atoms: N4_13  and  C9_14 
ROOT
HETATM    1  C3  UNL     1      23.667  -0.730  54.080  1.00  0.00     0.063 A 
HETATM    2  C4  UNL     1      22.779  -1.207  55.032  1.00  0.00     0.034 A 
HETATM    3  C5  UNL     1      21.430  -1.101  54.750  1.00  0.00     0.035 A 
HETATM    4  C6  UNL     1      20.947  -0.560  53.600  1.00  0.00     0.072 A 
HETATM    5  N2  UNL     1      19.622  -0.467  53.371  1.00  0.00    -0.241 NA
HETATM    6  C7  UNL     1      19.158   0.091  52.210  1.00  0.00     0.235 A 
HETATM    7  N3  UNL     1      20.058   0.538  51.325  1.00  0.00    -0.224 NA
HETATM    8  C8  UNL     1      21.379   0.487  51.471  1.00  0.00     0.138 A 
HETATM    9  C14 UNL     1      21.831  -0.085  52.654  1.00  0.00     0.041 A 
HETATM   10  C15 UNL     1      23.176  -0.170  52.894  1.00  0.00     0.049 A 
ENDROOT
BRANCH   8  11
HETATM   11  N4  UNL     1      22.247   1.007  50.470  1.00  0.00    -0.363 N 
HETATM   12  H8  UNL     1      22.671   0.479  49.700  1.00  0.00     0.162 HD
BRANCH  11  13
HETATM   13  C9  UNL     1      22.570   2.415  50.535  1.00  0.00     0.131 A 
HETATM   14  C10 UNL     1      22.475   3.006  49.169  1.00  0.00     0.003 A 
HETATM   15  C11 UNL     1      23.639   3.520  48.812  1.00  0.00     0.017 A 
HETATM   16  C12 UNL     1      24.589   3.312  49.905  1.00  0.00     0.009 A 
HETATM   17 BR1  UNL     1      26.342   4.013  49.532  1.00  0.00    -0.051 Br
HETATM   18  C13 UNL     1      23.969   2.669  50.905  1.00  0.00     0.021 A 
ENDBRANCH  11  13
ENDBRANCH   8  11
BRANCH   1  19
HETATM   19  N1  UNL     1      25.105  -0.740  54.220  1.00  0.00    -0.237 N 
BRANCH  19  20
HETATM   20  C2  UNL     1      25.934  -0.334  53.139  1.00  0.00     0.113 C 
HETATM   21  C1  UNL     1      26.686  -1.405  52.852  1.00  0.00     0.032 C 
ENDBRANCH  19  20
BRANCH  19  22
HETATM   22  O1  UNL     1      25.307  -1.170  55.481  1.00  0.00    -0.283 OA
HETATM   23  H4  UNL     1      25.205  -0.475  56.176  1.00  0.00     0.245 HD
ENDBRANCH  19  22
ENDBRANCH   1  19
TORSDOF 5
ENDMDL
MODEL 4
REMARK VINA RESULT:      -7.2      2.859      5.055
REMARK  5 active torsions:
REMARK  status: ('A' for Active; 'I' for Inactive)
REMARK    1  A    between atoms: C2_2  and  N1_3 
REMARK    2  A    between atoms: N1_3  and  O1_4 
REMARK    3  A    between atoms: N1_3  and  C3_5 
REMARK    4  A    between atoms: C8_12  and  N4_13 
REMARK    5  A    between atoms: N4_13  and  C9_14 
ROOT
HETATM    1  C3  UNL     1      22.603  -0.779  54.277  1.00  0.00     0.063 A 
HETATM    2  C4  UNL     1      23.137  -1.381  55.406  1.00  0.00     0.034 A 
HETATM    3  C5  UNL     1      24.497  -1.243  55.613  1.00  0.00     0.035 A 
HETATM    4  C6  UNL     1      25.316  -0.555  54.774  1.00  0.00     0.072 A 
HETATM    5  N2  UNL     1      26.639  -0.455  55.010  1.00  0.00    -0.241 NA
HETATM    6  C7  UNL     1      27.445   0.234  54.145  1.00  0.00     0.235 A 
HETATM    7  N3  UNL     1      26.879   0.794  53.070  1.00  0.00    -0.224 NA
HETATM    8  C8  UNL     1      25.587   0.744  52.761  1.00  0.00     0.138 A 
HETATM    9  C14 UNL     1      24.783   0.042  53.651  1.00  0.00     0.041 A 
HETATM   10  C15 UNL     1      23.441  -0.069  53.407  1.00  0.00     0.049 A 
ENDROOT
BRANCH   8  11
HETATM   11  N4  UNL     1      25.091   1.365  51.580  1.00  0.00    -0.363 N 
HETATM   12  H8  UNL     1      24.618   0.896  50.799  1.00  0.00     0.162 HD
BRANCH  11  13
HETATM   13  C9  UNL     1      25.265   2.795  51.455  1.00  0.00     0.131 A 
HETATM   14  C10 UNL     1      24.113   3.489  52.099  1.00  0.00     0.003 A 
HETATM   15  C11 UNL     1      23.482   4.242  51.215  1.00  0.00     0.017 A 
HETATM   16  C12 UNL     1      24.161   4.107  49.927  1.00  0.00     0.009 A 
HETATM   17 BR1  UNL     1      23.353   5.153  48.528  1.00  0.00    -0.051 Br
HETATM   18  C13 UNL     1      25.196   3.266  50.065  1.00  0.00     0.021 A 
ENDBRANCH  11  13
ENDBRANCH   8  11
BRANCH   1  19
HETATM   19  N1  UNL     1      21.210  -0.840  53.895  1.00  0.00    -0.237 N 
BRANCH  19  20
HETATM   20  C2  UNL     1      20.733  -0.074  52.797  1.00  0.00     0.113 C 
HETATM   21  C1  UNL     1      19.402  -0.228  52.813  1.00  0.00     0.032 C 
ENDBRANCH  19  20
BRANCH  19  22
HETATM   22  O1  UNL     1      20.670  -1.712  54.769  1.00  0.00    -0.283 OA
HETATM   23  H4  UNL     1      20.956  -2.650  54.647  1.00  0.00     0.245 HD
ENDBRANCH  19  22
ENDBRANCH   1  19
TORSDOF 5
ENDMDL
MODEL 5
REMARK VINA RESULT:      -6.9      3.178      5.401
REMARK  5 active torsions:
REMARK  status: ('A' for Active; 'I' for Inactive)
REMARK    1  A    between atoms: C2_2  and  N1_3 
REMARK    2  A    between atoms: N1_3  and  O1_4 
REMARK    3  A    between atoms: N1_3  and  C3_5 
REMARK    4  A    between atoms: C8_12  and  N4_13 
REMARK    5  A    between atoms: N4_13  and  C9_14 
ROOT
HETATM    1  C3  UNL     1      26.075   1.555  52.439  1.00  0.00     0.063 A 
HETATM    2  C4  UNL     1      26.915   0.847  53.286  1.00  0.00     0.034 A 
HETATM    3  C5  UNL     1      26.326  -0.050  54.156  1.00  0.00     0.035 A 
HETATM    4  C6  UNL     1      24.985  -0.264  54.217  1.00  0.00     0.072 A 
HETATM    5  N2  UNL     1      24.453  -1.142  55.090  1.00  0.00    -0.241 NA
HETATM    6  C7  UNL     1      23.099  -1.332  55.141  1.00  0.00     0.235 A 
HETATM    7  N3  UNL     1      22.333  -0.622  54.304  1.00  0.00    -0.224 NA
HETATM    8  C8  UNL     1      22.773   0.263  53.414  1.00  0.00     0.138 A 
HETATM    9  C14 UNL     1      24.151   0.442  53.376  1.00  0.00     0.041 A 
HETATM   10  C15 UNL     1      24.692   1.341  52.497  1.00  0.00     0.049 A 
ENDROOT
BRANCH   8  11
HETATM   11  N4  UNL     1      21.867   0.977  52.581  1.00  0.00    -0.363 N 
HETATM   12  H8  UNL     1      21.630   1.972  52.653  1.00  0.00     0.162 HD
BRANCH  11  13
HETATM   13  C9  UNL     1      21.210   0.239  51.525  1.00  0.00     0.131 A 
HETATM   14  C10 UNL     1      21.530   0.867  50.211  1.00  0.00     0.003 A 
HETATM   15  C11 UNL     1      20.420   1.257  49.609  1.00  0.00     0.017 A 
HETATM   16  C12 UNL     1      19.286   0.920  50.470  1.00  0.00     0.009 A 
HETATM   17 BR1  UNL     1      17.587   1.428  49.724  1.00  0.00    -0.051 Br
HETATM   18  C13 UNL     1      19.744   0.329  51.583  1.00  0.00     0.021 A 
ENDBRANCH  11  13
ENDBRANCH   8  11
BRANCH   1  19
HETATM   19  N1  UNL     1      26.517   2.547  51.485  1.00  0.00    -0.237 N 
BRANCH  19  20
HETATM   20  C2  UNL     1      25.662   2.952  50.424  1.00  0.00     0.113 C 
HETATM   21  C1  UNL     1      26.466   3.540  49.529  1.00  0.00     0.032 C 
ENDBRANCH  19  20
BRANCH  19  22
HETATM   22  O1  UNL     1      27.756   2.871  51.901  1.00  0.00    -0.283 OA
HETATM   23  H4  UNL     1      28.409   3.022  51.175  1.00  0.00     0.245 HD
ENDBRANCH  19  22
ENDBRANCH   1  19
TORSDOF 5
ENDMDL
MODEL 6
REMARK VINA RESULT:      -6.8      2.592      4.663
REMARK  5 active torsions:
REMARK  status: ('A' for Active; 'I' for Inactive)
REMARK    1  A    between atoms: C2_2  and  N1_3 
REMARK    2  A    between atoms: N1_3  and  O1_4 
REMARK    3  A    between atoms: N1_3  and  C3_5 
REMARK    4  A    between atoms: C8_12  and  N4_13 
REMARK    5  A    between atoms: N4_13  and  C9_14 
ROOT
HETATM    1  C3  UNL     1      25.836   1.736  52.033  1.00  0.00     0.063 A 
HETATM    2  C4  UNL     1      26.507   0.788  52.790  1.00  0.00     0.034 A 
HETATM    3  C5  UNL     1      25.741  -0.072  53.553  1.00  0.00     0.035 A 
HETATM    4  C6  UNL     1      24.383  -0.029  53.593  1.00  0.00     0.072 A 
HETATM    5  N2  UNL     1      23.675  -0.882  54.360  1.00  0.00    -0.241 NA
HETATM    6  C7  UNL     1      22.308  -0.812  54.392  1.00  0.00     0.235 A 
HETATM    7  N3  UNL     1      21.710   0.124  53.644  1.00  0.00    -0.224 NA
HETATM    8  C8  UNL     1      22.329   1.002  52.861  1.00  0.00     0.138 A 
HETATM    9  C14 UNL     1      23.716   0.915  52.841  1.00  0.00     0.041 A 
HETATM   10  C15 UNL     1      24.437   1.787  52.070  1.00  0.00     0.049 A 
ENDROOT
BRANCH   8  11
HETATM   11  N4  UNL     1      21.593   1.968  52.118  1.00  0.00    -0.363 N 
HETATM   12  H8  UNL     1      21.660   2.987  52.213  1.00  0.00     0.162 HD
BRANCH  11  13
HETATM   13  C9  UNL     1      20.658   1.477  51.131  1.00  0.00     0.131 A 
HETATM   14  C10 UNL     1      21.391   0.665  50.118  1.00  0.00     0.003 A 
HETATM   15  C11 UNL     1      21.236   1.188  48.914  1.00  0.00     0.017 A 
HETATM   16  C12 UNL     1      20.394   2.378  49.034  1.00  0.00     0.009 A 
HETATM   17 BR1  UNL     1      20.073   3.256  47.352  1.00  0.00    -0.051 Br
HETATM   18  C13 UNL     1      20.058   2.547  50.321  1.00  0.00     0.021 A 
ENDBRANCH  11  13
ENDBRANCH   8  11
BRANCH   1  19
HETATM   19  N1  UNL     1      26.478   2.726  51.198  1.00  0.00    -0.237 N 
BRANCH  19  20
HETATM   20  C2  UNL     1      25.809   3.243  50.056  1.00  0.00     0.113 C 
HETATM   21  C1  UNL     1      26.748   3.909  49.370  1.00  0.00     0.032 C 
ENDBRANCH  19  20
BRANCH  19  22
HETATM   22  O1  UNL     1      27.671   2.928  51.791  1.00  0.00    -0.283 OA
HETATM   23  H4  UNL     1      28.382   2.302  51.512  1.00  0.00     0.245 HD
ENDBRANCH  19  22
ENDBRANCH   1  19
TORSDOF 5
ENDMDL
MODEL 7
REMARK VINA RESULT:      -6.8      3.130      5.928
REMARK  5 active torsions:
REMARK  status: ('A' for Active; 'I' for Inactive)
REMARK    1  A    between atoms: C2_2  and  N1_3 
REMARK    2  A    between atoms: N1_3  and  O1_4 
REMARK    3  A    between atoms: N1_3  and  C3_5 
REMARK    4  A    between atoms: C8_12  and  N4_13 
REMARK    5  A    between atoms: N4_13  and  C9_14 
ROOT
HETATM    1  C3  UNL     1      26.091   2.095  52.026  1.00  0.00     0.063 A 
HETATM    2  C4  UNL     1      27.187   1.961  52.865  1.00  0.00     0.034 A 
HETATM    3  C5  UNL     1      27.069   1.085  53.926  1.00  0.00     0.035 A 
HETATM    4  C6  UNL     1      25.946   0.362  54.178  1.00  0.00     0.072 A 
HETATM    5  N2  UNL     1      25.871  -0.475  55.232  1.00  0.00    -0.241 NA
HETATM    6  C7  UNL     1      24.725  -1.185  55.472  1.00  0.00     0.235 A 
HETATM    7  N3  UNL     1      23.696  -1.017  54.633  1.00  0.00    -0.224 NA
HETATM    8  C8  UNL     1      23.684  -0.216  53.572  1.00  0.00     0.138 A 
HETATM    9  C14 UNL     1      24.856   0.496  53.344  1.00  0.00     0.041 A 
HETATM   10  C15 UNL     1      24.930   1.353  52.280  1.00  0.00     0.049 A 
ENDROOT
BRANCH   8  11
HETATM   11  N4  UNL     1      22.526  -0.102  52.753  1.00  0.00    -0.363 N 
HETATM   12  H8  UNL     1      22.437  -0.414  51.779  1.00  0.00     0.162 HD
BRANCH  11  13
HETATM   13  C9  UNL     1      21.354   0.512  53.337  1.00  0.00     0.131 A 
HETATM   14  C10 UNL     1      20.211  -0.443  53.267  1.00  0.00     0.003 A 
HETATM   15  C11 UNL     1      19.219   0.083  52.569  1.00  0.00     0.017 A 
HETATM   16  C12 UNL     1      19.624   1.417  52.126  1.00  0.00     0.009 A 
HETATM   17 BR1  UNL     1      18.274   2.317  51.092  1.00  0.00    -0.051 Br
HETATM   18  C13 UNL     1      20.864   1.667  52.571  1.00  0.00     0.021 A 
ENDBRANCH  11  13
ENDBRANCH   8  11
BRANCH   1  19
HETATM   19  N1  UNL     1      26.032   2.980  50.884  1.00  0.00    -0.237 N 
BRANCH  19  20
HETATM   20  C2  UNL     1      24.826   3.119  50.146  1.00  0.00     0.113 C 
HETATM   21  C1  UNL     1      24.800   4.400  49.754  1.00  0.00     0.032 C 
ENDBRANCH  19  20
BRANCH  19  22
HETATM   22  O1  UNL     1      27.271   3.508  50.817  1.00  0.00    -0.283 OA
HETATM   23  H4  UNL     1      27.673   3.502  49.915  1.00  0.00     0.245 HD
ENDBRANCH  19  22
ENDBRANCH   1  19
TORSDOF 5
ENDMDL
MODEL 8
REMARK VINA RESULT:      -6.7      3.442      5.284
REMARK  5 active torsions:
REMARK  status: ('A' for Active; 'I' for Inactive)
REMARK    1  A    between atoms: C2_2  and  N1_3 
REMARK    2  A    between atoms: N1_3  and  O1_4 
REMARK    3  A    between atoms: N1_3  and  C3_5 
REMARK    4  A    between atoms: C8_12  and  N4_13 
REMARK    5  A    between atoms: N4_13  and  C9_14 
ROOT
HETATM    1  C3  UNL     1      24.672  -0.343  53.952  1.00  0.00     0.063 A 
HETATM    2  C4  UNL     1      25.895  -0.845  53.536  1.00  0.00     0.034 A 
HETATM    3  C5  UNL     1      26.595  -0.111  52.597  1.00  0.00     0.035 A 
HETATM    4  C6  UNL     1      26.143   1.059  52.074  1.00  0.00     0.072 A 
HETATM    5  N2  UNL     1      26.854   1.737  51.152  1.00  0.00    -0.241 NA
HETATM    6  C7  UNL     1      26.373   2.909  50.632  1.00  0.00     0.235 A 
HETATM    7  N3  UNL     1      25.186   3.348  51.066  1.00  0.00    -0.224 NA
HETATM    8  C8  UNL     1      24.420   2.745  51.970  1.00  0.00     0.138 A 
HETATM    9  C14 UNL     1      24.925   1.557  52.488  1.00  0.00     0.041 A 
HETATM   10  C15 UNL     1      24.199   0.862  53.417  1.00  0.00     0.049 A 
ENDROOT
BRANCH   8  11
HETATM   11  N4  UNL     1      23.163   3.293  52.350  1.00  0.00    -0.363 N 
HETATM   12  H8  UNL     1      22.939   3.732  53.250  1.00  0.00     0.162 HD
BRANCH  11  13
HETATM   13  C9  UNL     1      22.091   3.233  51.382  1.00  0.00     0.131 A 
HETATM   14  C10 UNL     1      20.864   3.847  51.967  1.00  0.00     0.003 A 
HETATM   15  C11 UNL     1      19.882   2.964  51.999  1.00  0.00     0.017 A 
HETATM   16  C12 UNL     1      20.376   1.705  51.441  1.00  0.00     0.009 A 
HETATM   17 BR1  UNL     1      19.050   0.311  51.418  1.00  0.00    -0.051 Br
HETATM   18  C13 UNL     1      21.659   1.860  51.084  1.00  0.00     0.021 A 
ENDBRANCH  11  13
ENDBRANCH   8  11
BRANCH   1  19
HETATM   19  N1  UNL     1      23.800  -0.989  54.907  1.00  0.00    -0.237 N 
BRANCH  19  20
HETATM   20  C2  UNL     1      22.395  -0.783  54.850  1.00  0.00     0.113 C 
HETATM   21  C1  UNL     1      21.900  -1.890  54.280  1.00  0.00     0.032 C 
ENDBRANCH  19  20
BRANCH  19  22
HETATM   22  O1  UNL     1      24.639  -1.705  55.682  1.00  0.00    -0.283 OA
HETATM   23  H4  UNL     1      24.227  -2.083  56.496  1.00  0.00     0.245 HD
ENDBRANCH  19  22
ENDBRANCH   1  19
TORSDOF 5
ENDMDL
MODEL 9
REMARK VINA RESULT:      -6.7      3.213      3.917
REMARK  5 active torsions:
REMARK  status: ('A' for Active; 'I' for Inactive)
REMARK    1  A    between atoms: C2_2  and  N1_3 
REMARK    2  A    between atoms: N1_3  and  O1_4 
REMARK    3  A    between atoms: N1_3  and  C3_5 
REMARK    4  A    between atoms: C8_12  and  N4_13 
REMARK    5  A    between atoms: N4_13  and  C9_14 
ROOT
HETATM    1  C3  UNL     1      24.866  -0.597  54.294  1.00  0.00     0.063 A 
HETATM    2  C4  UNL     1      24.308  -1.261  55.375  1.00  0.00     0.034 A 
HETATM    3  C5  UNL     1      22.934  -1.404  55.390  1.00  0.00     0.035 A 
HETATM    4  C6  UNL     1      22.122  -0.929  54.409  1.00  0.00     0.072 A 
HETATM    5  N2  UNL     1      20.784  -1.082  54.469  1.00  0.00    -0.241 NA
HETATM    6  C7  UNL     1      19.985  -0.587  53.474  1.00  0.00     0.235 A 
HETATM    7  N3  UNL     1      20.575   0.048  52.454  1.00  0.00    -0.224 NA
HETATM    8  C8  UNL     1      21.883   0.244  52.315  1.00  0.00     0.138 A 
HETATM    9  C14 UNL     1      22.678  -0.268  53.334  1.00  0.00     0.041 A 
HETATM   10  C15 UNL     1      24.035  -0.104  53.279  1.00  0.00     0.049 A 
ENDROOT
BRANCH   8  11
HETATM   11  N4  UNL     1      22.404   0.949  51.194  1.00  0.00    -0.363 N 
HETATM   12  H8  UNL     1      23.393   1.035  50.937  1.00  0.00     0.162 HD
BRANCH  11  13
HETATM   13  C9  UNL     1      21.456   1.611  50.325  1.00  0.00     0.131 A 
HETATM   14  C10 UNL     1      21.554   1.031  48.955  1.00  0.00     0.003 A 
HETATM   15  C11 UNL     1      21.875   1.970  48.083  1.00  0.00     0.017 A 
HETATM   16  C12 UNL     1      22.013   3.238  48.801  1.00  0.00     0.009 A 
HETATM   17 BR1  UNL     1      22.480   4.713  47.657  1.00  0.00    -0.051 Br
HETATM   18  C13 UNL     1      21.771   3.030  50.103  1.00  0.00     0.021 A 
ENDBRANCH  11  13
ENDBRANCH   8  11
BRANCH   1  19
HETATM   19  N1  UNL     1      26.279  -0.339  54.128  1.00  0.00    -0.237 N 
BRANCH  19  20
HETATM   20  C2  UNL     1      26.829  -0.166  52.828  1.00  0.00     0.113 C 
HETATM   21  C1  UNL     1      28.138   0.038  53.025  1.00  0.00     0.032 C 
ENDBRANCH  19  20
BRANCH  19  22
HETATM   22  O1  UNL     1      26.757  -0.317  55.387  1.00  0.00    -0.283 OA
HETATM   23  H4  UNL     1      26.799  -1.201  55.828  1.00  0.00     0.245 HD
ENDBRANCH  19  22
ENDBRANCH   1  19
TORSDOF 5
ENDMDL
