MODEL 1
REMARK VINA RESULT:      -8.5      0.000      0.000
REMARK  6 active torsions:
REMARK  status: ('A' for Active; 'I' for Inactive)
REMARK    1  A    between atoms: C2_2  and  C3_3 
REMARK    2  A    between atoms: C7_9  and  O1_10 
REMARK    3  A    between atoms: C8_11  and  C9_12 
REMARK    4  A    between atoms: C9_12  and  N2_13 
REMARK    5  A    between atoms: N2_13  and  C10_14 
REMARK    6  A    between atoms: C13_17  and  C14_18 
ROOT
HETATM    1  C3  UNL     1      27.873   8.447  48.849  1.00  0.00     0.039 C 
HETATM    2  P1  UNL     1      26.631   8.803  49.929  1.00  0.00     0.027 P 
HETATM    3  C4  UNL     1      25.379   7.528  50.414  1.00  0.00     0.082 C 
HETATM    4  N1  UNL     1      26.066   6.548  50.031  1.00  0.00    -0.249 NA
HETATM    5  C5  UNL     1      25.288   5.417  49.846  1.00  0.00     0.064 C 
HETATM    6  C6  UNL     1      24.036   5.678  50.132  1.00  0.00     0.043 C 
HETATM    7  C7  UNL     1      24.120   6.958  50.944  1.00  0.00     0.196 C 
HETATM    8  C8  UNL     1      26.371   4.535  49.388  1.00  0.00    -0.014 C 
HETATM    9  C20 UNL     1      27.517   4.811  48.756  1.00  0.00     0.004 C 
HETATM   10  C21 UNL     1      28.443   5.771  48.158  1.00  0.00     0.148 C 
HETATM   11  N3  UNL     1      28.098   7.163  48.220  1.00  0.00    -0.386 N 
HETATM   12  H26 UNL     1      27.824   7.586  47.281  1.00  0.00     0.160 HD
ENDROOT
BRANCH   8  13
HETATM   13  C9  UNL     1      25.950   3.179  49.758  1.00  0.00     0.160 C 
BRANCH  13  14
HETATM   14  N2  UNL     1      25.950   3.096  51.214  1.00  0.00    -0.386 N 
HETATM   15  H9  UNL     1      26.573   3.689  51.813  1.00  0.00     0.160 HD
BRANCH  14  16
HETATM   16  C10 UNL     1      25.102   2.202  51.899  1.00  0.00     0.028 A 
HETATM   17  C11 UNL     1      25.549   1.059  52.556  1.00  0.00     0.029 A 
HETATM   18  C12 UNL     1      24.760   0.170  53.229  1.00  0.00     0.010 A 
HETATM   19  C13 UNL     1      23.398   0.445  53.251  1.00  0.00    -0.051 A 
HETATM   20  C18 UNL     1      22.842   1.553  52.631  1.00  0.00     0.010 A 
HETATM   21  C19 UNL     1      23.725   2.376  51.986  1.00  0.00     0.029 A 
BRANCH  19  22
HETATM   22  C14 UNL     1      22.528  -0.508  53.980  1.00  0.00    -0.024 C 
HETATM   23  C15 UNL     1      23.191  -1.073  55.195  1.00  0.00     0.019 C 
HETATM   24  C16 UNL     1      21.284   0.239  54.458  1.00  0.00     0.019 C 
HETATM   25  C17 UNL     1      22.051  -1.615  53.071  1.00  0.00     0.019 C 
ENDBRANCH  19  22
ENDBRANCH  14  16
ENDBRANCH  13  14
ENDBRANCH   8  13
BRANCH   7  26
HETATM   26  O1  UNL     1      24.191   6.660  52.298  1.00  0.00    -0.385 OA
HETATM   27  H6  UNL     1      23.774   5.766  52.423  1.00  0.00     0.210 HD
ENDBRANCH   7  26
BRANCH   1  28
HETATM   28  C2  UNL     1      28.739   9.597  48.613  1.00  0.00     0.004 C 
HETATM   29  C1  UNL     1      29.884   9.091  49.098  1.00  0.00     0.033 C 
ENDBRANCH   1  28
TORSDOF 6
ENDMDL
MODEL 2
REMARK VINA RESULT:      -8.4      3.190      8.940
REMARK  6 active torsions:
REMARK  status: ('A' for Active; 'I' for Inactive)
REMARK    1  A    between atoms: C2_2  and  C3_3 
REMARK    2  A    between atoms: C7_9  and  O1_10 
REMARK    3  A    between atoms: C8_11  and  C9_12 
REMARK    4  A    between atoms: C9_12  and  N2_13 
REMARK    5  A    between atoms: N2_13  and  C10_14 
REMARK    6  A    between atoms: C13_17  and  C14_18 
ROOT
HETATM    1  C3  UNL     1      22.137   0.355  53.483  1.00  0.00     0.039 C 
HETATM    2  P1  UNL     1      23.336  -0.642  54.117  1.00  0.00     0.027 P 
HETATM    3  C4  UNL     1      25.080  -0.569  53.497  1.00  0.00     0.082 C 
HETATM    4  N1  UNL     1      24.957   0.558  52.956  1.00  0.00    -0.249 NA
HETATM    5  C5  UNL     1      25.947   0.787  52.015  1.00  0.00     0.064 C 
HETATM    6  C6  UNL     1      26.756  -0.242  51.952  1.00  0.00     0.043 C 
HETATM    7  C7  UNL     1      26.476  -0.991  53.243  1.00  0.00     0.196 C 
HETATM    8  C8  UNL     1      25.480   2.113  51.590  1.00  0.00    -0.014 C 
HETATM    9  C20 UNL     1      24.256   2.651  51.587  1.00  0.00     0.004 C 
HETATM   10  C21 UNL     1      22.823   2.557  51.856  1.00  0.00     0.148 C 
HETATM   11  N3  UNL     1      22.328   1.344  52.442  1.00  0.00    -0.386 N 
HETATM   12  H26 UNL     1      21.745   0.746  51.780  1.00  0.00     0.160 HD
ENDROOT
BRANCH   8  13
HETATM   13  C9  UNL     1      26.679   2.815  51.118  1.00  0.00     0.160 C 
BRANCH  13  14
HETATM   14  N2  UNL     1      26.510   3.072  49.692  1.00  0.00    -0.386 N 
HETATM   15  H9  UNL     1      26.231   2.323  49.013  1.00  0.00     0.160 HD
BRANCH  14  16
HETATM   16  C10 UNL     1      26.716   4.356  49.147  1.00  0.00     0.028 A 
HETATM   17  C11 UNL     1      27.945   4.810  48.674  1.00  0.00     0.029 A 
HETATM   18  C12 UNL     1      28.184   6.044  48.141  1.00  0.00     0.010 A 
HETATM   19  C13 UNL     1      27.098   6.908  48.071  1.00  0.00    -0.051 A 
HETATM   20  C18 UNL     1      25.830   6.563  48.511  1.00  0.00     0.010 A 
HETATM   21  C19 UNL     1      25.705   5.302  49.028  1.00  0.00     0.029 A 
BRANCH  19  22
HETATM   22  C14 UNL     1      27.340   8.251  47.492  1.00  0.00    -0.024 C 
HETATM   23  C15 UNL     1      27.609   9.284  48.538  1.00  0.00     0.019 C 
HETATM   24  C16 UNL     1      28.583   8.180  46.605  1.00  0.00     0.019 C 
HETATM   25  C17 UNL     1      26.195   8.676  46.605  1.00  0.00     0.019 C 
ENDBRANCH  19  22
ENDBRANCH  14  16
ENDBRANCH  13  14
ENDBRANCH   8  13
BRANCH   7  26
HETATM   26  O1  UNL     1      27.354  -0.575  54.235  1.00  0.00    -0.385 OA
HETATM   27  H6  UNL     1      26.874  -0.654  55.102  1.00  0.00     0.210 HD
ENDBRANCH   7  26
BRANCH   1  28
HETATM   28  C2  UNL     1      20.843   0.127  54.118  1.00  0.00     0.004 C 
HETATM   29  C1  UNL     1      21.057  -1.118  54.570  1.00  0.00     0.033 C 
ENDBRANCH   1  28
TORSDOF 6
ENDMDL
MODEL 3
REMARK VINA RESULT:      -7.9      2.728      8.565
REMARK  6 active torsions:
REMARK  status: ('A' for Active; 'I' for Inactive)
REMARK    1  A    between atoms: C2_2  and  C3_3 
REMARK    2  A    between atoms: C7_9  and  O1_10 
REMARK    3  A    between atoms: C8_11  and  C9_12 
REMARK    4  A    between atoms: C9_12  and  N2_13 
REMARK    5  A    between atoms: N2_13  and  C10_14 
REMARK    6  A    between atoms: C13_17  and  C14_18 
ROOT
HETATM    1  C3  UNL     1      22.729  -0.632  53.780  1.00  0.00     0.039 C 
HETATM    2  P1  UNL     1      21.726   0.606  53.238  1.00  0.00     0.027 P 
HETATM    3  C4  UNL     1      22.419   2.180  52.551  1.00  0.00     0.082 C 
HETATM    4  N1  UNL     1      23.565   1.711  52.337  1.00  0.00    -0.249 NA
HETATM    5  C5  UNL     1      24.512   2.712  52.201  1.00  0.00     0.064 C 
HETATM    6  C6  UNL     1      23.947   3.888  52.324  1.00  0.00     0.043 C 
HETATM    7  C7  UNL     1      22.472   3.594  52.117  1.00  0.00     0.196 C 
HETATM    8  C8  UNL     1      25.671   1.829  52.010  1.00  0.00    -0.014 C 
HETATM    9  C20 UNL     1      25.903   0.583  52.437  1.00  0.00     0.004 C 
HETATM   10  C21 UNL     1      25.483  -0.613  53.164  1.00  0.00     0.148 C 
HETATM   11  N3  UNL     1      24.176  -0.613  53.759  1.00  0.00    -0.386 N 
HETATM   12  H26 UNL     1      24.182  -0.564  54.823  1.00  0.00     0.160 HD
ENDROOT
BRANCH   8  13
HETATM   13  C9  UNL     1      26.625   2.608  51.213  1.00  0.00     0.160 C 
BRANCH  13  14
HETATM   14  N2  UNL     1      25.940   3.046  50.003  1.00  0.00    -0.386 N 
HETATM   15  H9  UNL     1      25.181   2.483  49.549  1.00  0.00     0.160 HD
BRANCH  14  16
HETATM   16  C10 UNL     1      26.266   4.265  49.373  1.00  0.00     0.028 A 
HETATM   17  C11 UNL     1      27.548   4.594  48.939  1.00  0.00     0.029 A 
HETATM   18  C12 UNL     1      27.902   5.762  48.327  1.00  0.00     0.010 A 
HETATM   19  C13 UNL     1      26.887   6.689  48.126  1.00  0.00    -0.051 A 
HETATM   20  C18 UNL     1      25.576   6.468  48.518  1.00  0.00     0.010 A 
HETATM   21  C19 UNL     1      25.334   5.264  49.122  1.00  0.00     0.029 A 
BRANCH  19  22
HETATM   22  C14 UNL     1      27.255   7.961  47.460  1.00  0.00    -0.024 C 
HETATM   23  C15 UNL     1      26.154   8.497  46.604  1.00  0.00     0.019 C 
HETATM   24  C16 UNL     1      27.532   9.010  48.537  1.00  0.00     0.019 C 
HETATM   25  C17 UNL     1      28.526   7.810  46.661  1.00  0.00     0.019 C 
ENDBRANCH  19  22
ENDBRANCH  14  16
ENDBRANCH  13  14
ENDBRANCH   8  13
BRANCH   7  26
HETATM   26  O1  UNL     1      22.137   3.760  50.780  1.00  0.00    -0.385 OA
HETATM   27  H6  UNL     1      21.639   2.947  50.500  1.00  0.00     0.210 HD
ENDBRANCH   7  26
BRANCH   1  28
HETATM   28  C2  UNL     1      21.969  -1.774  54.278  1.00  0.00     0.004 C 
HETATM   29  C1  UNL     1      20.734  -1.260  54.163  1.00  0.00     0.033 C 
ENDBRANCH   1  28
TORSDOF 6
ENDMDL
MODEL 4
REMARK VINA RESULT:      -7.9      1.620      2.249
REMARK  6 active torsions:
REMARK  status: ('A' for Active; 'I' for Inactive)
REMARK    1  A    between atoms: C2_2  and  C3_3 
REMARK    2  A    between atoms: C7_9  and  O1_10 
REMARK    3  A    between atoms: C8_11  and  C9_12 
REMARK    4  A    between atoms: C9_12  and  N2_13 
REMARK    5  A    between atoms: N2_13  and  C10_14 
REMARK    6  A    between atoms: C13_17  and  C14_18 
ROOT
HETATM    1  C3  UNL     1      29.551   8.763  48.710  1.00  0.00     0.039 C 
HETATM    2  P1  UNL     1      28.250   9.559  49.423  1.00  0.00     0.027 P 
HETATM    3  C4  UNL     1      26.581   8.765  49.545  1.00  0.00     0.082 C 
HETATM    4  N1  UNL     1      27.001   7.597  49.352  1.00  0.00    -0.249 NA
HETATM    5  C5  UNL     1      25.984   6.744  48.956  1.00  0.00     0.064 C 
HETATM    6  C6  UNL     1      24.848   7.394  48.900  1.00  0.00     0.043 C 
HETATM    7  C7  UNL     1      25.116   8.646  49.715  1.00  0.00     0.196 C 
HETATM    8  C8  UNL     1      26.816   5.544  48.795  1.00  0.00    -0.014 C 
HETATM    9  C20 UNL     1      28.112   5.410  48.495  1.00  0.00     0.004 C 
HETATM   10  C21 UNL     1      29.412   5.996  48.174  1.00  0.00     0.148 C 
HETATM   11  N3  UNL     1      29.517   7.427  48.153  1.00  0.00    -0.386 N 
HETATM   12  H26 UNL     1      29.638   7.842  47.178  1.00  0.00     0.160 HD
ENDROOT
BRANCH   8  13
HETATM   13  C9  UNL     1      25.913   4.411  49.028  1.00  0.00     0.160 C 
BRANCH  13  14
HETATM   14  N2  UNL     1      25.534   4.427  50.436  1.00  0.00    -0.386 N 
HETATM   15  H9  UNL     1      25.218   5.299  50.926  1.00  0.00     0.160 HD
BRANCH  14  16
HETATM   16  C10 UNL     1      25.574   3.257  51.222  1.00  0.00     0.028 A 
HETATM   17  C11 UNL     1      26.722   2.492  51.416  1.00  0.00     0.029 A 
HETATM   18  C12 UNL     1      26.800   1.355  52.167  1.00  0.00     0.010 A 
HETATM   19  C13 UNL     1      25.627   0.939  52.784  1.00  0.00    -0.051 A 
HETATM   20  C18 UNL     1      24.427   1.622  52.661  1.00  0.00     0.010 A 
HETATM   21  C19 UNL     1      24.464   2.748  51.884  1.00  0.00     0.029 A 
BRANCH  19  22
HETATM   22  C14 UNL     1      25.696  -0.293  53.606  1.00  0.00    -0.024 C 
HETATM   23  C15 UNL     1      26.383  -1.415  52.898  1.00  0.00     0.019 C 
HETATM   24  C16 UNL     1      26.513   0.008  54.862  1.00  0.00     0.019 C 
HETATM   25  C17 UNL     1      24.323  -0.716  54.069  1.00  0.00     0.019 C 
ENDBRANCH  19  22
ENDBRANCH  14  16
ENDBRANCH  13  14
ENDBRANCH   8  13
BRANCH   7  26
HETATM   26  O1  UNL     1      24.741   8.443  51.037  1.00  0.00    -0.385 OA
HETATM   27  H6  UNL     1      24.518   9.334  51.417  1.00  0.00     0.210 HD
ENDBRANCH   7  26
BRANCH   1  28
HETATM   28  C2  UNL     1      30.764   9.575  48.724  1.00  0.00     0.004 C 
HETATM   29  C1  UNL     1      31.566   8.751  48.031  1.00  0.00     0.033 C 
ENDBRANCH   1  28
TORSDOF 6
ENDMDL
MODEL 5
REMARK VINA RESULT:      -7.9      4.163      7.168
REMARK  6 active torsions:
REMARK  status: ('A' for Active; 'I' for Inactive)
REMARK    1  A    between atoms: C2_2  and  C3_3 
REMARK    2  A    between atoms: C7_9  and  O1_10 
REMARK    3  A    between atoms: C8_11  and  C9_12 
REMARK    4  A    between atoms: C9_12  and  N2_13 
REMARK    5  A    between atoms: N2_13  and  C10_14 
REMARK    6  A    between atoms: C13_17  and  C14_18 
ROOT
HETATM    1  C3  UNL     1      27.593   0.300  53.967  1.00  0.00     0.039 C 
HETATM    2  P1  UNL     1      27.672   1.707  53.046  1.00  0.00     0.027 P 
HETATM    3  C4  UNL     1      26.196   2.342  52.125  1.00  0.00     0.082 C 
HETATM    4  N1  UNL     1      25.361   1.669  52.779  1.00  0.00    -0.249 NA
HETATM    5  C5  UNL     1      24.154   1.555  52.108  1.00  0.00     0.064 C 
HETATM    6  C6  UNL     1      24.212   2.194  50.965  1.00  0.00     0.043 C 
HETATM    7  C7  UNL     1      25.410   3.111  51.134  1.00  0.00     0.196 C 
HETATM    8  C8  UNL     1      23.478   0.717  53.107  1.00  0.00    -0.014 C 
HETATM    9  C20 UNL     1      23.967  -0.156  53.994  1.00  0.00     0.004 C 
HETATM   10  C21 UNL     1      25.098  -0.852  54.606  1.00  0.00     0.148 C 
HETATM   11  N3  UNL     1      26.417  -0.525  54.144  1.00  0.00    -0.386 N 
HETATM   12  H26 UNL     1      26.883  -1.295  53.573  1.00  0.00     0.160 HD
ENDROOT
BRANCH   8  13
HETATM   13  C9  UNL     1      22.048   1.010  52.956  1.00  0.00     0.160 C 
BRANCH  13  14
HETATM   14  N2  UNL     1      21.322  -0.249  53.079  1.00  0.00    -0.386 N 
HETATM   15  H9  UNL     1      21.758  -1.115  53.477  1.00  0.00     0.160 HD
BRANCH  14  16
HETATM   16  C10 UNL     1      19.980  -0.367  52.663  1.00  0.00     0.028 A 
HETATM   17  C11 UNL     1      19.003  -1.053  53.382  1.00  0.00     0.029 A 
HETATM   18  C12 UNL     1      17.696  -1.190  53.012  1.00  0.00     0.010 A 
HETATM   19  C13 UNL     1      17.324  -0.588  51.817  1.00  0.00    -0.051 A 
HETATM   20  C18 UNL     1      18.212   0.119  51.020  1.00  0.00     0.010 A 
HETATM   21  C19 UNL     1      19.496   0.192  51.486  1.00  0.00     0.029 A 
BRANCH  19  22
HETATM   22  C14 UNL     1      15.908  -0.725  51.403  1.00  0.00    -0.024 C 
HETATM   23  C15 UNL     1      15.751  -0.803  49.918  1.00  0.00     0.019 C 
HETATM   24  C16 UNL     1      15.359  -2.030  51.977  1.00  0.00     0.019 C 
HETATM   25  C17 UNL     1      15.064   0.391  51.970  1.00  0.00     0.019 C 
ENDBRANCH  19  22
ENDBRANCH  14  16
ENDBRANCH  13  14
ENDBRANCH   8  13
BRANCH   7  26
HETATM   26  O1  UNL     1      25.001   4.348  51.613  1.00  0.00    -0.385 OA
HETATM   27  H6  UNL     1      25.793   4.948  51.588  1.00  0.00     0.210 HD
ENDBRANCH   7  26
BRANCH   1  28
HETATM   28  C2  UNL     1      28.869  -0.010  54.603  1.00  0.00     0.004 C 
HETATM   29  C1  UNL     1      29.428  -0.710  53.603  1.00  0.00     0.033 C 
ENDBRANCH   1  28
TORSDOF 6
ENDMDL
MODEL 6
REMARK VINA RESULT:      -7.8      2.138      3.451
REMARK  6 active torsions:
REMARK  status: ('A' for Active; 'I' for Inactive)
REMARK    1  A    between atoms: C2_2  and  C3_3 
REMARK    2  A    between atoms: C7_9  and  O1_10 
REMARK    3  A    between atoms: C8_11  and  C9_12 
REMARK    4  A    between atoms: C9_12  and  N2_13 
REMARK    5  A    between atoms: N2_13  and  C10_14 
REMARK    6  A    between atoms: C13_17  and  C14_18 
ROOT
HETATM    1  C3  UNL     1      31.535   7.961  48.215  1.00  0.00     0.039 C 
HETATM    2  P1  UNL     1      30.800   9.224  49.050  1.00  0.00     0.027 P 
HETATM    3  C4  UNL     1      28.970   9.257  49.335  1.00  0.00     0.082 C 
HETATM    4  N1  UNL     1      28.801   8.034  49.103  1.00  0.00    -0.249 NA
HETATM    5  C5  UNL     1      27.479   7.745  48.809  1.00  0.00     0.064 C 
HETATM    6  C6  UNL     1      26.756   8.837  48.863  1.00  0.00     0.043 C 
HETATM    7  C7  UNL     1      27.629   9.800  49.648  1.00  0.00     0.196 C 
HETATM    8  C8  UNL     1      27.664   6.308  48.569  1.00  0.00    -0.014 C 
HETATM    9  C20 UNL     1      28.729   5.621  48.143  1.00  0.00     0.004 C 
HETATM   10  C21 UNL     1      30.120   5.575  47.697  1.00  0.00     0.148 C 
HETATM   11  N3  UNL     1      30.855   6.808  47.665  1.00  0.00    -0.386 N 
HETATM   12  H26 UNL     1      31.064   7.166  46.682  1.00  0.00     0.160 HD
ENDROOT
BRANCH   8  13
HETATM   13  C9  UNL     1      26.372   5.691  48.889  1.00  0.00     0.160 C 
BRANCH  13  14
HETATM   14  N2  UNL     1      26.637   4.469  49.640  1.00  0.00    -0.386 N 
HETATM   15  H9  UNL     1      27.609   4.126  49.833  1.00  0.00     0.160 HD
BRANCH  14  16
HETATM   16  C10 UNL     1      25.588   3.677  50.150  1.00  0.00     0.028 A 
HETATM   17  C11 UNL     1      24.262   3.790  49.742  1.00  0.00     0.029 A 
HETATM   18  C12 UNL     1      23.220   3.043  50.213  1.00  0.00     0.010 A 
HETATM   19  C13 UNL     1      23.526   2.094  51.180  1.00  0.00    -0.051 A 
HETATM   20  C18 UNL     1      24.811   1.895  51.661  1.00  0.00     0.010 A 
HETATM   21  C19 UNL     1      25.777   2.699  51.120  1.00  0.00     0.029 A 
BRANCH  19  22
HETATM   22  C14 UNL     1      22.407   1.273  51.699  1.00  0.00    -0.024 C 
HETATM   23  C15 UNL     1      21.409   2.083  52.461  1.00  0.00     0.019 C 
HETATM   24  C16 UNL     1      21.667   0.656  50.512  1.00  0.00     0.019 C 
HETATM   25  C17 UNL     1      22.916   0.127  52.539  1.00  0.00     0.019 C 
ENDBRANCH  19  22
ENDBRANCH  14  16
ENDBRANCH  13  14
ENDBRANCH   8  13
BRANCH   7  26
HETATM   26  O1  UNL     1      27.320   9.729  51.000  1.00  0.00    -0.385 OA
HETATM   27  H6  UNL     1      27.457   8.786  51.282  1.00  0.00     0.210 HD
ENDBRANCH   7  26
BRANCH   1  28
HETATM   28  C2  UNL     1      32.980   8.142  48.110  1.00  0.00     0.004 C 
HETATM   29  C1  UNL     1      33.370   6.997  48.690  1.00  0.00     0.033 C 
ENDBRANCH   1  28
TORSDOF 6
ENDMDL
MODEL 7
REMARK VINA RESULT:      -7.7      5.505      8.686
REMARK  6 active torsions:
REMARK  status: ('A' for Active; 'I' for Inactive)
REMARK    1  A    between atoms: C2_2  and  C3_3 
REMARK    2  A    between atoms: C7_9  and  O1_10 
REMARK    3  A    between atoms: C8_11  and  C9_12 
REMARK    4  A    between atoms: C9_12  and  N2_13 
REMARK    5  A    between atoms: N2_13  and  C10_14 
REMARK    6  A    between atoms: C13_17  and  C14_18 
ROOT
HETATM    1  C3  UNL     1      25.310   0.116  53.713  1.00  0.00     0.039 C 
HETATM    2  P1  UNL     1      25.098   1.197  52.440  1.00  0.00     0.027 P 
HETATM    3  C4  UNL     1      23.472   1.351  51.565  1.00  0.00     0.082 C 
HETATM    4  N1  UNL     1      22.806   0.797  52.474  1.00  0.00    -0.249 NA
HETATM    5  C5  UNL     1      21.581   0.346  52.011  1.00  0.00     0.064 C 
HETATM    6  C6  UNL     1      21.447   0.631  50.739  1.00  0.00     0.043 C 
HETATM    7  C7  UNL     1      22.501   1.698  50.504  1.00  0.00     0.196 C 
HETATM    8  C8  UNL     1      21.124  -0.246  53.275  1.00  0.00    -0.014 C 
HETATM    9  C20 UNL     1      21.811  -0.759  54.301  1.00  0.00     0.004 C 
HETATM   10  C21 UNL     1      23.081  -1.103  54.939  1.00  0.00     0.148 C 
HETATM   11  N3  UNL     1      24.292  -0.762  54.250  1.00  0.00    -0.386 N 
HETATM   12  H26 UNL     1      24.823  -1.600  53.860  1.00  0.00     0.160 HD
ENDROOT
BRANCH   8  13
HETATM   13  C9  UNL     1      19.659  -0.189  53.224  1.00  0.00     0.160 C 
BRANCH  13  14
HETATM   14  N2  UNL     1      19.144  -1.351  53.940  1.00  0.00    -0.386 N 
HETATM   15  H9  UNL     1      19.607  -1.736  54.798  1.00  0.00     0.160 HD
BRANCH  14  16
HETATM   16  C10 UNL     1      17.982  -2.024  53.509  1.00  0.00     0.028 A 
HETATM   17  C11 UNL     1      16.953  -1.416  52.795  1.00  0.00     0.029 A 
HETATM   18  C12 UNL     1      15.814  -2.033  52.363  1.00  0.00     0.010 A 
HETATM   19  C13 UNL     1      15.687  -3.382  52.668  1.00  0.00    -0.051 A 
HETATM   20  C18 UNL     1      16.649  -4.090  53.373  1.00  0.00     0.010 A 
HETATM   21  C19 UNL     1      17.748  -3.371  53.758  1.00  0.00     0.029 A 
BRANCH  19  22
HETATM   22  C14 UNL     1      14.459  -4.068  52.203  1.00  0.00    -0.024 C 
HETATM   23  C15 UNL     1      14.643  -4.733  50.877  1.00  0.00     0.019 C 
HETATM   24  C16 UNL     1      14.106  -5.165  53.206  1.00  0.00     0.019 C 
HETATM   25  C17 UNL     1      13.286  -3.118  52.164  1.00  0.00     0.019 C 
ENDBRANCH  19  22
ENDBRANCH  14  16
ENDBRANCH  13  14
ENDBRANCH   8  13
BRANCH   7  26
HETATM   26  O1  UNL     1      21.947   2.960  50.672  1.00  0.00    -0.385 OA
HETATM   27  H6  UNL     1      21.123   2.847  51.216  1.00  0.00     0.210 HD
ENDBRANCH   7  26
BRANCH   1  28
HETATM   28  C2  UNL     1      26.666   0.163  54.250  1.00  0.00     0.004 C 
HETATM   29  C1  UNL     1      27.304  -0.452  53.242  1.00  0.00     0.033 C 
ENDBRANCH   1  28
TORSDOF 6
ENDMDL
MODEL 8
REMARK VINA RESULT:      -7.7      5.270      7.987
REMARK  6 active torsions:
REMARK  status: ('A' for Active; 'I' for Inactive)
REMARK    1  A    between atoms: C2_2  and  C3_3 
REMARK    2  A    between atoms: C7_9  and  O1_10 
REMARK    3  A    between atoms: C8_11  and  C9_12 
REMARK    4  A    between atoms: C9_12  and  N2_13 
REMARK    5  A    between atoms: N2_13  and  C10_14 
REMARK    6  A    between atoms: C13_17  and  C14_18 
ROOT
HETATM    1  C3  UNL     1      26.548  -0.172  53.683  1.00  0.00     0.039 C 
HETATM    2  P1  UNL     1      26.140   0.943  52.489  1.00  0.00     0.027 P 
HETATM    3  C4  UNL     1      24.378   1.229  51.996  1.00  0.00     0.082 C 
HETATM    4  N1  UNL     1      23.889   0.709  53.029  1.00  0.00    -0.249 NA
HETATM    5  C5  UNL     1      22.563   0.354  52.847  1.00  0.00     0.064 C 
HETATM    6  C6  UNL     1      22.173   0.671  51.637  1.00  0.00     0.043 C 
HETATM    7  C7  UNL     1      23.225   1.664  51.176  1.00  0.00     0.196 C 
HETATM    8  C8  UNL     1      22.353  -0.225  54.181  1.00  0.00    -0.014 C 
HETATM    9  C20 UNL     1      23.210  -0.804  55.029  1.00  0.00     0.004 C 
HETATM   10  C21 UNL     1      24.559  -1.249  55.370  1.00  0.00     0.148 C 
HETATM   11  N3  UNL     1      25.611  -0.984  54.430  1.00  0.00    -0.386 N 
HETATM   12  H26 UNL     1      25.980  -1.851  53.932  1.00  0.00     0.160 HD
ENDROOT
BRANCH   8  13
HETATM   13  C9  UNL     1      20.921  -0.062  54.455  1.00  0.00     0.160 C 
BRANCH  13  14
HETATM   14  N2  UNL     1      20.263  -1.326  54.146  1.00  0.00    -0.386 N 
HETATM   15  H9  UNL     1      20.674  -2.255  54.408  1.00  0.00     0.160 HD
BRANCH  14  16
HETATM   16  C10 UNL     1      19.026  -1.366  53.471  1.00  0.00     0.028 A 
HETATM   17  C11 UNL     1      18.062  -2.351  53.675  1.00  0.00     0.029 A 
HETATM   18  C12 UNL     1      16.855  -2.423  53.041  1.00  0.00     0.010 A 
HETATM   19  C13 UNL     1      16.579  -1.422  52.118  1.00  0.00    -0.051 A 
HETATM   20  C18 UNL     1      17.464  -0.393  51.834  1.00  0.00     0.010 A 
HETATM   21  C19 UNL     1      18.644  -0.419  52.528  1.00  0.00     0.029 A 
BRANCH  19  22
HETATM   22  C14 UNL     1      15.272  -1.485  51.423  1.00  0.00    -0.024 C 
HETATM   23  C15 UNL     1      14.264  -0.553  52.016  1.00  0.00     0.019 C 
HETATM   24  C16 UNL     1      15.473  -1.056  49.970  1.00  0.00     0.019 C 
HETATM   25  C17 UNL     1      14.738  -2.896  51.392  1.00  0.00     0.019 C 
ENDBRANCH  19  22
ENDBRANCH  14  16
ENDBRANCH  13  14
ENDBRANCH   8  13
BRANCH   7  26
HETATM   26  O1  UNL     1      22.817   2.959  51.464  1.00  0.00    -0.385 OA
HETATM   27  H6  UNL     1      22.127   2.896  52.177  1.00  0.00     0.210 HD
ENDBRANCH   7  26
BRANCH   1  28
HETATM   28  C2  UNL     1      27.989  -0.232  53.907  1.00  0.00     0.004 C 
HETATM   29  C1  UNL     1      28.324   0.957  53.381  1.00  0.00     0.033 C 
ENDBRANCH   1  28
TORSDOF 6
ENDMDL
MODEL 9
REMARK VINA RESULT:      -7.5      3.223      8.848
REMARK  6 active torsions:
REMARK  status: ('A' for Active; 'I' for Inactive)
REMARK    1  A    between atoms: C2_2  and  C3_3 
REMARK    2  A    between atoms: C7_9  and  O1_10 
REMARK    3  A    between atoms: C8_11  and  C9_12 
REMARK    4  A    between atoms: C9_12  and  N2_13 
REMARK    5  A    between atoms: N2_13  and  C10_14 
REMARK    6  A    between atoms: C13_17  and  C14_18 
ROOT
HETATM    1  C3  UNL     1      22.037  -0.218  53.620  1.00  0.00     0.039 C 
HETATM    2  P1  UNL     1      20.533   0.362  53.136  1.00  0.00     0.027 P 
HETATM    3  C4  UNL     1      20.354   2.006  52.302  1.00  0.00     0.082 C 
HETATM    4  N1  UNL     1      21.566   2.099  51.983  1.00  0.00    -0.249 NA
HETATM    5  C5  UNL     1      21.922   3.406  51.693  1.00  0.00     0.064 C 
HETATM    6  C6  UNL     1      20.884   4.196  51.824  1.00  0.00     0.043 C 
HETATM    7  C7  UNL     1      19.707   3.238  51.798  1.00  0.00     0.196 C 
HETATM    8  C8  UNL     1      23.340   3.142  51.416  1.00  0.00    -0.014 C 
HETATM    9  C20 UNL     1      24.160   2.189  51.872  1.00  0.00     0.004 C 
HETATM   10  C21 UNL     1      24.405   1.008  52.698  1.00  0.00     0.148 C 
HETATM   11  N3  UNL     1      23.301   0.464  53.435  1.00  0.00    -0.386 N 
HETATM   12  H26 UNL     1      23.365   0.610  54.489  1.00  0.00     0.160 HD
ENDROOT
BRANCH   8  13
HETATM   13  C9  UNL     1      23.755   4.194  50.480  1.00  0.00     0.160 C 
BRANCH  13  14
HETATM   14  N2  UNL     1      24.958   3.731  49.798  1.00  0.00    -0.386 N 
HETATM   15  H9  UNL     1      25.171   2.715  49.657  1.00  0.00     0.160 HD
BRANCH  14  16
HETATM   16  C10 UNL     1      25.909   4.639  49.287  1.00  0.00     0.028 A 
HETATM   17  C11 UNL     1      25.637   5.980  49.023  1.00  0.00     0.029 A 
HETATM   18  C12 UNL     1      26.529   6.887  48.528  1.00  0.00     0.010 A 
HETATM   19  C13 UNL     1      27.811   6.419  48.271  1.00  0.00    -0.051 A 
HETATM   20  C18 UNL     1      28.193   5.105  48.495  1.00  0.00     0.010 A 
HETATM   21  C19 UNL     1      27.219   4.282  48.992  1.00  0.00     0.029 A 
BRANCH  19  22
HETATM   22  C14 UNL     1      28.792   7.393  47.737  1.00  0.00    -0.024 C 
HETATM   23  C15 UNL     1      29.092   8.492  48.704  1.00  0.00     0.019 C 
HETATM   24  C16 UNL     1      30.108   6.661  47.474  1.00  0.00     0.019 C 
HETATM   25  C17 UNL     1      28.334   7.957  46.414  1.00  0.00     0.019 C 
ENDBRANCH  19  22
ENDBRANCH  14  16
ENDBRANCH  13  14
ENDBRANCH   8  13
BRANCH   7  26
HETATM   26  O1  UNL     1      19.230   3.104  50.500  1.00  0.00    -0.385 OA
HETATM   27  H6  UNL     1      18.748   3.944  50.278  1.00  0.00     0.210 HD
ENDBRANCH   7  26
BRANCH   1  28
HETATM   28  C2  UNL     1      21.940  -1.529  54.254  1.00  0.00     0.004 C 
HETATM   29  C1  UNL     1      20.605  -1.667  54.229  1.00  0.00     0.033 C 
ENDBRANCH   1  28
TORSDOF 6
ENDMDL
