MODEL 1
REMARK VINA RESULT:      -7.9      0.000      0.000
REMARK  6 active torsions:
REMARK  status: ('A' for Active; 'I' for Inactive)
REMARK    1  A    between atoms: O1_3  and  C3_4 
REMARK    2  A    between atoms: C3_4  and  C4_5 
REMARK    3  A    between atoms: C4_5  and  N1_6 
REMARK       I    between atoms: N1_6  and  C5_7 
REMARK    4  A    between atoms: C5_7  and  C6_9 
REMARK    5  A    between atoms: C18_24  and  C19_25 
REMARK    6  A    between atoms: C19_25  and  N3_26 
ROOT
HETATM    1  C1  UNL     1      27.771   5.634  48.530  1.00  0.00     0.044 C 
HETATM    2  C2  UNL     1      27.231   4.664  48.945  1.00  0.00     0.043 C 
HETATM    3  O1  UNL     1      26.624   3.576  49.436  1.00  0.00    -0.298 OA
ENDROOT
BRANCH   3   4
HETATM    4  C3  UNL     1      26.551   3.220  50.782  1.00  0.00     0.245 C 
BRANCH   4   5
HETATM    5  C4  UNL     1      25.288   2.570  51.135  1.00  0.00     0.048 C 
HETATM    6  C8  UNL     1      24.743   1.652  51.857  1.00  0.00     0.001 C 
HETATM    7  C9  UNL     1      23.347   1.175  52.006  1.00  0.00     0.046 C 
HETATM    8  C18 UNL     1      25.577   0.943  52.813  1.00  0.00     0.013 C 
HETATM    9  C10 UNL     1      23.052   0.246  52.885  1.00  0.00     0.068 C 
HETATM   10  C11 UNL     1      21.694  -0.176  53.002  1.00  0.00    -0.006 A 
HETATM   11  N2  UNL     1      24.087  -0.416  53.655  1.00  0.00    -0.245 NA
HETATM   12  C12 UNL     1      21.407  -1.157  53.939  1.00  0.00     0.017 A 
HETATM   13  C16 UNL     1      20.626   0.269  52.298  1.00  0.00     0.040 A 
HETATM   14  C13 UNL     1      20.129  -1.628  54.125  1.00  0.00     0.045 A 
HETATM   15  C14 UNL     1      19.077  -1.162  53.405  1.00  0.00     0.138 A 
HETATM   16  F1  UNL     1      17.833  -1.626  53.591  1.00  0.00    -0.204 F 
HETATM   17  C15 UNL     1      19.320  -0.182  52.457  1.00  0.00     0.073 A 
HETATM   18 CL1  UNL     1      18.013   0.459  51.497  1.00  0.00    -0.081 Cl
HETATM   19  C17 UNL     1      25.302  -0.351  53.062  1.00  0.00     0.095 C 
BRANCH   5  20
HETATM   20  N1  UNL     1      24.235   3.235  50.448  1.00  0.00    -0.324 N 
HETATM   21  C5  UNL     1      23.532   4.398  50.828  1.00  0.00     0.244 C 
HETATM   22  O2  UNL     1      23.775   5.048  51.903  1.00  0.00    -0.268 OA
HETATM   23  H4  UNL     1      23.737   3.030  49.530  1.00  0.00     0.169 HD
BRANCH  21  24
HETATM   24  C6  UNL     1      22.447   5.067  50.126  1.00  0.00     0.064 C 
HETATM   25  C7  UNL     1      21.328   5.465  50.698  1.00  0.00     0.017 C 
ENDBRANCH  21  24
ENDBRANCH   5  20
BRANCH   8  26
HETATM   26  C19 UNL     1      26.644   1.492  53.673  1.00  0.00     0.308 C 
BRANCH  26  27
HETATM   27  N3  UNL     1      26.825   0.787  54.924  1.00  0.00     0.082 N 
HETATM   28  H14 UNL     1      27.513   1.234  55.556  1.00  0.00     0.313 HD
HETATM   29  H15 UNL     1      27.038  -0.207  54.712  1.00  0.00     0.313 HD
ENDBRANCH  26  27
ENDBRANCH   8  26
ENDBRANCH   4   5
ENDBRANCH   3   4
TORSDOF 6
ENDMDL
MODEL 2
REMARK VINA RESULT:      -7.6      4.702      8.400
REMARK  6 active torsions:
REMARK  status: ('A' for Active; 'I' for Inactive)
REMARK    1  A    between atoms: O1_3  and  C3_4 
REMARK    2  A    between atoms: C3_4  and  C4_5 
REMARK    3  A    between atoms: C4_5  and  N1_6 
REMARK       I    between atoms: N1_6  and  C5_7 
REMARK    4  A    between atoms: C5_7  and  C6_9 
REMARK    5  A    between atoms: C18_24  and  C19_25 
REMARK    6  A    between atoms: C19_25  and  N3_26 
ROOT
HETATM    1  C1  UNL     1      20.604   0.952  51.557  1.00  0.00     0.044 C 
HETATM    2  C2  UNL     1      21.723   0.646  51.804  1.00  0.00     0.043 C 
HETATM    3  O1  UNL     1      22.988   0.320  52.097  1.00  0.00    -0.298 OA
ENDROOT
BRANCH   3   4
HETATM    4  C3  UNL     1      23.887   1.105  52.819  1.00  0.00     0.245 C 
BRANCH   4   5
HETATM    5  C4  UNL     1      24.686   1.989  51.970  1.00  0.00     0.048 C 
HETATM    6  C8  UNL     1      24.655   3.036  51.219  1.00  0.00     0.001 C 
HETATM    7  C9  UNL     1      25.685   3.739  50.416  1.00  0.00     0.046 C 
HETATM    8  C18 UNL     1      23.419   3.798  51.150  1.00  0.00     0.013 C 
HETATM    9  C10 UNL     1      25.392   4.850  49.783  1.00  0.00     0.068 C 
HETATM   10  C11 UNL     1      26.417   5.498  49.031  1.00  0.00    -0.006 A 
HETATM   11  N2  UNL     1      24.037   5.365  49.757  1.00  0.00    -0.245 NA
HETATM   12  C12 UNL     1      26.083   6.672  48.373  1.00  0.00     0.017 A 
HETATM   13  C16 UNL     1      27.703   5.104  48.874  1.00  0.00     0.040 A 
HETATM   14  C13 UNL     1      27.001   7.368  47.625  1.00  0.00     0.045 A 
HETATM   15  C14 UNL     1      28.285   6.949  47.486  1.00  0.00     0.138 A 
HETATM   16  F1  UNL     1      29.177   7.633  46.754  1.00  0.00    -0.204 F 
HETATM   17  C15 UNL     1      28.661   5.780  48.127  1.00  0.00     0.073 A 
HETATM   18 CL1  UNL     1      30.294   5.185  47.989  1.00  0.00    -0.081 Cl
HETATM   19  C17 UNL     1      23.109   4.407  49.991  1.00  0.00     0.095 C 
BRANCH   5  20
HETATM   20  N1  UNL     1      26.039   1.556  52.019  1.00  0.00    -0.324 N 
HETATM   21  C5  UNL     1      26.961   1.669  53.082  1.00  0.00     0.244 C 
HETATM   22  O2  UNL     1      26.675   2.201  54.210  1.00  0.00    -0.268 OA
HETATM   23  H4  UNL     1      26.663   1.072  51.306  1.00  0.00     0.169 HD
BRANCH  21  24
HETATM   24  C6  UNL     1      28.349   1.234  53.122  1.00  0.00     0.064 C 
HETATM   25  C7  UNL     1      28.991   0.905  54.226  1.00  0.00     0.017 C 
ENDBRANCH  21  24
ENDBRANCH   5  20
BRANCH   8  26
HETATM   26  C19 UNL     1      22.483   4.113  52.247  1.00  0.00     0.308 C 
BRANCH  26  27
HETATM   27  N3  UNL     1      22.222   5.526  52.422  1.00  0.00     0.082 N 
HETATM   28  H14 UNL     1      21.216   5.771  52.375  1.00  0.00     0.313 HD
HETATM   29  H15 UNL     1      22.811   6.054  51.749  1.00  0.00     0.313 HD
ENDBRANCH  26  27
ENDBRANCH   8  26
ENDBRANCH   4   5
ENDBRANCH   3   4
TORSDOF 6
ENDMDL
MODEL 3
REMARK VINA RESULT:      -7.5      3.360      5.150
REMARK  6 active torsions:
REMARK  status: ('A' for Active; 'I' for Inactive)
REMARK    1  A    between atoms: O1_3  and  C3_4 
REMARK    2  A    between atoms: C3_4  and  C4_5 
REMARK    3  A    between atoms: C4_5  and  N1_6 
REMARK       I    between atoms: N1_6  and  C5_7 
REMARK    4  A    between atoms: C5_7  and  C6_9 
REMARK    5  A    between atoms: C18_24  and  C19_25 
REMARK    6  A    between atoms: C19_25  and  N3_26 
ROOT
HETATM    1  C1  UNL     1      21.610   9.042  48.999  1.00  0.00     0.044 C 
HETATM    2  C2  UNL     1      22.505   8.305  48.751  1.00  0.00     0.043 C 
HETATM    3  O1  UNL     1      23.501   7.458  48.460  1.00  0.00    -0.298 OA
ENDROOT
BRANCH   3   4
HETATM    4  C3  UNL     1      23.357   6.195  47.887  1.00  0.00     0.245 C 
BRANCH   4   5
HETATM    5  C4  UNL     1      23.605   5.106  48.832  1.00  0.00     0.048 C 
HETATM    6  C8  UNL     1      24.518   4.419  49.429  1.00  0.00     0.001 C 
HETATM    7  C9  UNL     1      24.471   3.286  50.385  1.00  0.00     0.046 C 
HETATM    8  C18 UNL     1      25.904   4.818  49.256  1.00  0.00     0.013 C 
HETATM    9  C10 UNL     1      25.578   2.807  50.903  1.00  0.00     0.068 C 
HETATM   10  C11 UNL     1      25.485   1.723  51.827  1.00  0.00    -0.006 A 
HETATM   11  N2  UNL     1      26.877   3.292  50.480  1.00  0.00    -0.245 NA
HETATM   12  C12 UNL     1      26.668   1.237  52.363  1.00  0.00     0.017 A 
HETATM   13  C16 UNL     1      24.365   1.095  52.256  1.00  0.00     0.040 A 
HETATM   14  C13 UNL     1      26.681   0.196  53.260  1.00  0.00     0.045 A 
HETATM   15  C14 UNL     1      25.542  -0.415  53.673  1.00  0.00     0.138 A 
HETATM   16  F1  UNL     1      25.561  -1.430  54.549  1.00  0.00    -0.204 F 
HETATM   17  C15 UNL     1      24.337   0.040  53.161  1.00  0.00     0.073 A 
HETATM   18 CL1  UNL     1      22.836  -0.701  53.650  1.00  0.00    -0.081 Cl
HETATM   19  C17 UNL     1      26.848   3.860  49.252  1.00  0.00     0.095 C 
BRANCH   5  20
HETATM   20  N1  UNL     1      22.353   4.643  49.322  1.00  0.00    -0.324 N 
HETATM   21  C5  UNL     1      21.644   5.069  50.466  1.00  0.00     0.244 C 
HETATM   22  O2  UNL     1      22.061   5.989  51.251  1.00  0.00    -0.268 OA
HETATM   23  H4  UNL     1      21.678   3.899  48.973  1.00  0.00     0.169 HD
BRANCH  21  24
HETATM   24  C6  UNL     1      20.368   4.584  50.969  1.00  0.00     0.064 C 
HETATM   25  C7  UNL     1      20.242   3.673  51.914  1.00  0.00     0.017 C 
ENDBRANCH  21  24
ENDBRANCH   5  20
BRANCH   8  26
HETATM   26  C19 UNL     1      26.457   6.187  49.206  1.00  0.00     0.308 C 
BRANCH  26  27
HETATM   27  N3  UNL     1      26.125   7.007  50.351  1.00  0.00     0.082 N 
HETATM   28  H14 UNL     1      25.317   6.653  50.894  1.00  0.00     0.313 HD
HETATM   29  H15 UNL     1      26.014   7.989  50.030  1.00  0.00     0.313 HD
ENDBRANCH  26  27
ENDBRANCH   8  26
ENDBRANCH   4   5
ENDBRANCH   3   4
TORSDOF 6
ENDMDL
MODEL 4
REMARK VINA RESULT:      -7.4      3.906      5.912
REMARK  6 active torsions:
REMARK  status: ('A' for Active; 'I' for Inactive)
REMARK    1  A    between atoms: O1_3  and  C3_4 
REMARK    2  A    between atoms: C3_4  and  C4_5 
REMARK    3  A    between atoms: C4_5  and  N1_6 
REMARK       I    between atoms: N1_6  and  C5_7 
REMARK    4  A    between atoms: C5_7  and  C6_9 
REMARK    5  A    between atoms: C18_24  and  C19_25 
REMARK    6  A    between atoms: C19_25  and  N3_26 
ROOT
HETATM    1  C1  UNL     1      20.514   6.627  49.905  1.00  0.00     0.044 C 
HETATM    2  C2  UNL     1      20.739   5.760  49.128  1.00  0.00     0.043 C 
HETATM    3  O1  UNL     1      21.015   4.783  48.255  1.00  0.00    -0.298 OA
ENDROOT
BRANCH   3   4
HETATM    4  C3  UNL     1      22.286   4.425  47.806  1.00  0.00     0.245 C 
BRANCH   4   5
HETATM    5  C4  UNL     1      23.127   3.858  48.860  1.00  0.00     0.048 C 
HETATM    6  C8  UNL     1      23.196   2.962  49.784  1.00  0.00     0.001 C 
HETATM    7  C9  UNL     1      24.238   2.607  50.777  1.00  0.00     0.046 C 
HETATM    8  C18 UNL     1      22.108   2.004  49.896  1.00  0.00     0.013 C 
HETATM    9  C10 UNL     1      24.072   1.580  51.578  1.00  0.00     0.068 C 
HETATM   10  C11 UNL     1      25.106   1.268  52.510  1.00  0.00    -0.006 A 
HETATM   11  N2  UNL     1      22.830   0.832  51.593  1.00  0.00    -0.245 NA
HETATM   12  C12 UNL     1      24.909   0.177  53.343  1.00  0.00     0.017 A 
HETATM   13  C16 UNL     1      26.281   1.916  52.690  1.00  0.00     0.040 A 
HETATM   14  C13 UNL     1      25.846  -0.202  54.273  1.00  0.00     0.045 A 
HETATM   15  C14 UNL     1      27.017   0.467  54.431  1.00  0.00     0.138 A 
HETATM   16  F1  UNL     1      27.928   0.092  55.341  1.00  0.00    -0.204 F 
HETATM   17  C15 UNL     1      27.254   1.564  53.619  1.00  0.00     0.073 A 
HETATM   18 CL1  UNL     1      28.737   2.468  53.771  1.00  0.00    -0.081 Cl
HETATM   19  C17 UNL     1      21.783   1.547  51.119  1.00  0.00     0.095 C 
BRANCH   5  20
HETATM   20  N1  UNL     1      24.385   4.522  48.836  1.00  0.00    -0.324 N 
HETATM   21  C5  UNL     1      24.746   5.744  49.443  1.00  0.00     0.244 C 
HETATM   22  O2  UNL     1      23.940   6.450  50.142  1.00  0.00    -0.268 OA
HETATM   23  H4  UNL     1      25.314   4.281  48.376  1.00  0.00     0.169 HD
BRANCH  21  24
HETATM   24  C6  UNL     1      26.033   6.424  49.405  1.00  0.00     0.064 C 
HETATM   25  C7  UNL     1      26.888   6.335  48.406  1.00  0.00     0.017 C 
ENDBRANCH  21  24
ENDBRANCH   5  20
BRANCH   8  26
HETATM   26  C19 UNL     1      21.363   1.343  48.805  1.00  0.00     0.308 C 
BRANCH  26  27
HETATM   27  N3  UNL     1      19.991   1.780  48.669  1.00  0.00     0.082 N 
HETATM   28  H14 UNL     1      19.318   1.214  49.217  1.00  0.00     0.313 HD
HETATM   29  H15 UNL     1      19.763   1.835  47.657  1.00  0.00     0.313 HD
ENDBRANCH  26  27
ENDBRANCH   8  26
ENDBRANCH   4   5
ENDBRANCH   3   4
TORSDOF 6
ENDMDL
MODEL 5
REMARK VINA RESULT:      -7.4      3.678      5.970
REMARK  6 active torsions:
REMARK  status: ('A' for Active; 'I' for Inactive)
REMARK    1  A    between atoms: O1_3  and  C3_4 
REMARK    2  A    between atoms: C3_4  and  C4_5 
REMARK    3  A    between atoms: C4_5  and  N1_6 
REMARK       I    between atoms: N1_6  and  C5_7 
REMARK    4  A    between atoms: C5_7  and  C6_9 
REMARK    5  A    between atoms: C18_24  and  C19_25 
REMARK    6  A    between atoms: C19_25  and  N3_26 
ROOT
HETATM    1  C1  UNL     1      22.161   6.691  50.728  1.00  0.00     0.044 C 
HETATM    2  C2  UNL     1      22.183   6.318  49.602  1.00  0.00     0.043 C 
HETATM    3  O1  UNL     1      22.214   5.874  48.340  1.00  0.00    -0.298 OA
ENDROOT
BRANCH   3   4
HETATM    4  C3  UNL     1      22.678   4.626  47.924  1.00  0.00     0.245 C 
BRANCH   4   5
HETATM    5  C4  UNL     1      23.356   3.884  48.986  1.00  0.00     0.048 C 
HETATM    6  C8  UNL     1      24.486   3.680  49.571  1.00  0.00     0.001 C 
HETATM    7  C9  UNL     1      24.907   2.796  50.685  1.00  0.00     0.046 C 
HETATM    8  C18 UNL     1      25.621   4.500  49.180  1.00  0.00     0.013 C 
HETATM    9  C10 UNL     1      26.138   2.837  51.138  1.00  0.00     0.068 C 
HETATM   10  C11 UNL     1      26.496   1.976  52.219  1.00  0.00    -0.006 A 
HETATM   11  N2  UNL     1      27.147   3.659  50.500  1.00  0.00    -0.245 NA
HETATM   12  C12 UNL     1      27.802   2.040  52.682  1.00  0.00     0.017 A 
HETATM   13  C16 UNL     1      25.706   1.086  52.864  1.00  0.00     0.040 A 
HETATM   14  C13 UNL     1      28.241   1.251  53.718  1.00  0.00     0.045 A 
HETATM   15  C14 UNL     1      27.426   0.367  54.347  1.00  0.00     0.138 A 
HETATM   16  F1  UNL     1      27.860  -0.401  55.357  1.00  0.00    -0.204 F 
HETATM   17  C15 UNL     1      26.113   0.271  53.915  1.00  0.00     0.073 A 
HETATM   18 CL1  UNL     1      25.013  -0.845  54.679  1.00  0.00    -0.081 Cl
HETATM   19  C17 UNL     1      26.848   3.948  49.212  1.00  0.00     0.095 C 
BRANCH   5  20
HETATM   20  N1  UNL     1      22.386   3.110  49.682  1.00  0.00    -0.324 N 
HETATM   21  C5  UNL     1      21.771   1.904  49.283  1.00  0.00     0.244 C 
HETATM   22  O2  UNL     1      22.030   1.312  48.179  1.00  0.00    -0.268 OA
HETATM   23  H4  UNL     1      21.905   3.242  50.622  1.00  0.00     0.169 HD
BRANCH  21  24
HETATM   24  C6  UNL     1      20.771   1.124  49.996  1.00  0.00     0.064 C 
HETATM   25  C7  UNL     1      21.031   0.363  51.041  1.00  0.00     0.017 C 
ENDBRANCH  21  24
ENDBRANCH   5  20
BRANCH   8  26
HETATM   26  C19 UNL     1      25.635   5.942  48.862  1.00  0.00     0.308 C 
BRANCH  26  27
HETATM   27  N3  UNL     1      26.361   6.756  49.812  1.00  0.00     0.082 N 
HETATM   28  H14 UNL     1      26.031   7.738  49.854  1.00  0.00     0.313 HD
HETATM   29  H15 UNL     1      27.376   6.666  49.613  1.00  0.00     0.313 HD
ENDBRANCH  26  27
ENDBRANCH   8  26
ENDBRANCH   4   5
ENDBRANCH   3   4
TORSDOF 6
ENDMDL
MODEL 6
REMARK VINA RESULT:      -7.3      4.382      7.442
REMARK  6 active torsions:
REMARK  status: ('A' for Active; 'I' for Inactive)
REMARK    1  A    between atoms: O1_3  and  C3_4 
REMARK    2  A    between atoms: C3_4  and  C4_5 
REMARK    3  A    between atoms: C4_5  and  N1_6 
REMARK       I    between atoms: N1_6  and  C5_7 
REMARK    4  A    between atoms: C5_7  and  C6_9 
REMARK    5  A    between atoms: C18_24  and  C19_25 
REMARK    6  A    between atoms: C19_25  and  N3_26 
ROOT
HETATM    1  C1  UNL     1      28.410  -2.171  53.073  1.00  0.00     0.044 C 
HETATM    2  C2  UNL     1      27.293  -1.880  52.801  1.00  0.00     0.043 C 
HETATM    3  O1  UNL     1      26.034  -1.531  52.506  1.00  0.00    -0.298 OA
ENDROOT
BRANCH   3   4
HETATM    4  C3  UNL     1      25.336  -0.455  53.052  1.00  0.00     0.245 C 
BRANCH   4   5
HETATM    5  C4  UNL     1      25.431   0.760  52.243  1.00  0.00     0.048 C 
HETATM    6  C8  UNL     1      24.774   1.584  51.501  1.00  0.00     0.001 C 
HETATM    7  C9  UNL     1      25.163   2.800  50.746  1.00  0.00     0.046 C 
HETATM    8  C18 UNL     1      23.336   1.413  51.390  1.00  0.00     0.013 C 
HETATM    9  C10 UNL     1      24.257   3.507  50.111  1.00  0.00     0.068 C 
HETATM   10  C11 UNL     1      24.675   4.675  49.407  1.00  0.00    -0.006 A 
HETATM   11  N2  UNL     1      22.878   3.067  50.036  1.00  0.00    -0.245 NA
HETATM   12  C12 UNL     1      23.699   5.407  48.746  1.00  0.00     0.017 A 
HETATM   13  C16 UNL     1      25.929   5.172  49.298  1.00  0.00     0.040 A 
HETATM   14  C13 UNL     1      24.003   6.546  48.041  1.00  0.00     0.045 A 
HETATM   15  C14 UNL     1      25.271   7.021  47.950  1.00  0.00     0.138 A 
HETATM   16  F1  UNL     1      25.561   8.134  47.260  1.00  0.00    -0.204 F 
HETATM   17  C15 UNL     1      26.277   6.320  48.595  1.00  0.00     0.073 A 
HETATM   18 CL1  UNL     1      27.928   6.876  48.517  1.00  0.00    -0.081 Cl
HETATM   19  C17 UNL     1      22.743   1.733  50.225  1.00  0.00     0.095 C 
BRANCH   5  20
HETATM   20  N1  UNL     1      26.758   1.262  52.343  1.00  0.00    -0.324 N 
HETATM   21  C5  UNL     1      27.364   1.941  53.422  1.00  0.00     0.244 C 
HETATM   22  O2  UNL     1      26.760   2.199  54.520  1.00  0.00    -0.268 OA
HETATM   23  H4  UNL     1      27.578   1.258  51.665  1.00  0.00     0.169 HD
BRANCH  21  24
HETATM   24  C6  UNL     1      28.719   2.462  53.514  1.00  0.00     0.064 C 
HETATM   25  C7  UNL     1      29.595   2.092  54.427  1.00  0.00     0.017 C 
ENDBRANCH  21  24
ENDBRANCH   5  20
BRANCH   8  26
HETATM   26  C19 UNL     1      22.378   1.043  52.452  1.00  0.00     0.308 C 
BRANCH  26  27
HETATM   27  N3  UNL     1      21.201   1.882  52.514  1.00  0.00     0.082 N 
HETATM   28  H14 UNL     1      20.689   1.946  51.615  1.00  0.00     0.313 HD
HETATM   29  H15 UNL     1      21.476   2.805  52.904  1.00  0.00     0.313 HD
ENDBRANCH  26  27
ENDBRANCH   8  26
ENDBRANCH   4   5
ENDBRANCH   3   4
TORSDOF 6
ENDMDL
MODEL 7
REMARK VINA RESULT:      -7.3      5.747      9.277
REMARK  6 active torsions:
REMARK  status: ('A' for Active; 'I' for Inactive)
REMARK    1  A    between atoms: O1_3  and  C3_4 
REMARK    2  A    between atoms: C3_4  and  C4_5 
REMARK    3  A    between atoms: C4_5  and  N1_6 
REMARK       I    between atoms: N1_6  and  C5_7 
REMARK    4  A    between atoms: C5_7  and  C6_9 
REMARK    5  A    between atoms: C18_24  and  C19_25 
REMARK    6  A    between atoms: C19_25  and  N3_26 
ROOT
HETATM    1  C1  UNL     1      21.947   2.701  47.793  1.00  0.00     0.044 C 
HETATM    2  C2  UNL     1      22.335   2.536  48.901  1.00  0.00     0.043 C 
HETATM    3  O1  UNL     1      22.779   2.373  50.154  1.00  0.00    -0.298 OA
ENDROOT
BRANCH   3   4
HETATM    4  C3  UNL     1      23.432   3.337  50.921  1.00  0.00     0.245 C 
BRANCH   4   5
HETATM    5  C4  UNL     1      24.691   3.786  50.326  1.00  0.00     0.048 C 
HETATM    6  C8  UNL     1      25.279   4.758  49.719  1.00  0.00     0.001 C 
HETATM    7  C9  UNL     1      26.651   4.937  49.183  1.00  0.00     0.046 C 
HETATM    8  C18 UNL     1      24.554   6.006  49.553  1.00  0.00     0.013 C 
HETATM    9  C10 UNL     1      27.015   6.082  48.657  1.00  0.00     0.068 C 
HETATM   10  C11 UNL     1      28.348   6.214  48.163  1.00  0.00    -0.006 A 
HETATM   11  N2  UNL     1      26.067   7.165  48.484  1.00  0.00    -0.245 NA
HETATM   12  C12 UNL     1      28.710   7.434  47.615  1.00  0.00     0.017 A 
HETATM   13  C16 UNL     1      29.325   5.277  48.162  1.00  0.00     0.040 A 
HETATM   14  C13 UNL     1      29.970   7.657  47.114  1.00  0.00     0.045 A 
HETATM   15  C14 UNL     1      30.931   6.699  47.127  1.00  0.00     0.138 A 
HETATM   16  F1  UNL     1      32.159   6.922  46.636  1.00  0.00    -0.204 F 
HETATM   17  C15 UNL     1      30.611   5.463  47.665  1.00  0.00     0.073 A 
HETATM   18 CL1  UNL     1      31.799   4.188  47.712  1.00  0.00    -0.081 Cl
HETATM   19  C17 UNL     1      24.784   6.736  48.446  1.00  0.00     0.095 C 
BRANCH   5  20
HETATM   20  N1  UNL     1      25.670   2.775  50.533  1.00  0.00    -0.324 N 
HETATM   21  C5  UNL     1      26.111   2.212  51.750  1.00  0.00     0.244 C 
HETATM   22  O2  UNL     1      25.651   2.556  52.893  1.00  0.00    -0.268 OA
HETATM   23  H4  UNL     1      26.284   2.225  49.861  1.00  0.00     0.169 HD
BRANCH  21  24
HETATM   24  C6  UNL     1      27.122   1.185  51.955  1.00  0.00     0.064 C 
HETATM   25  C7  UNL     1      26.854  -0.096  52.115  1.00  0.00     0.017 C 
ENDBRANCH  21  24
ENDBRANCH   5  20
BRANCH   8  26
HETATM   26  C19 UNL     1      23.661   6.674  50.521  1.00  0.00     0.308 C 
BRANCH  26  27
HETATM   27  N3  UNL     1      24.298   7.039  51.768  1.00  0.00     0.082 N 
HETATM   28  H14 UNL     1      25.065   6.400  52.044  1.00  0.00     0.313 HD
HETATM   29  H15 UNL     1      23.562   7.145  52.494  1.00  0.00     0.313 HD
ENDBRANCH  26  27
ENDBRANCH   8  26
ENDBRANCH   4   5
ENDBRANCH   3   4
TORSDOF 6
ENDMDL
MODEL 8
REMARK VINA RESULT:      -7.0      3.670      5.432
REMARK  6 active torsions:
REMARK  status: ('A' for Active; 'I' for Inactive)
REMARK    1  A    between atoms: O1_3  and  C3_4 
REMARK    2  A    between atoms: C3_4  and  C4_5 
REMARK    3  A    between atoms: C4_5  and  N1_6 
REMARK       I    between atoms: N1_6  and  C5_7 
REMARK    4  A    between atoms: C5_7  and  C6_9 
REMARK    5  A    between atoms: C18_24  and  C19_25 
REMARK    6  A    between atoms: C19_25  and  N3_26 
ROOT
HETATM    1  C1  UNL     1      24.523  10.084  47.778  1.00  0.00     0.044 C 
HETATM    2  C2  UNL     1      23.990   9.066  48.070  1.00  0.00     0.043 C 
HETATM    3  O1  UNL     1      23.400   7.905  48.384  1.00  0.00    -0.298 OA
ENDROOT
BRANCH   3   4
HETATM    4  C3  UNL     1      23.576   6.694  47.717  1.00  0.00     0.245 C 
BRANCH   4   5
HETATM    5  C4  UNL     1      23.816   5.570  48.622  1.00  0.00     0.048 C 
HETATM    6  C8  UNL     1      24.723   4.853  49.191  1.00  0.00     0.001 C 
HETATM    7  C9  UNL     1      24.668   3.689  50.108  1.00  0.00     0.046 C 
HETATM    8  C18 UNL     1      26.114   5.241  49.022  1.00  0.00     0.013 C 
HETATM    9  C10 UNL     1      25.772   3.179  50.603  1.00  0.00     0.068 C 
HETATM   10  C11 UNL     1      25.671   2.065  51.490  1.00  0.00    -0.006 A 
HETATM   11  N2  UNL     1      27.075   3.662  50.189  1.00  0.00    -0.245 NA
HETATM   12  C12 UNL     1      26.851   1.546  52.002  1.00  0.00     0.017 A 
HETATM   13  C16 UNL     1      24.546   1.437  51.904  1.00  0.00     0.040 A 
HETATM   14  C13 UNL     1      26.856   0.475  52.863  1.00  0.00     0.045 A 
HETATM   15  C14 UNL     1      25.711  -0.135  53.262  1.00  0.00     0.138 A 
HETATM   16  F1  UNL     1      25.723  -1.180  54.102  1.00  0.00    -0.204 F 
HETATM   17  C15 UNL     1      24.510   0.352  52.773  1.00  0.00     0.073 A 
HETATM   18 CL1  UNL     1      23.003  -0.387  53.245  1.00  0.00    -0.081 Cl
HETATM   19  C17 UNL     1      27.046   4.272  48.980  1.00  0.00     0.095 C 
BRANCH   5  20
HETATM   20  N1  UNL     1      22.561   5.107  49.104  1.00  0.00    -0.324 N 
HETATM   21  C5  UNL     1      21.660   4.210  48.492  1.00  0.00     0.244 C 
HETATM   22  O2  UNL     1      21.875   3.659  47.358  1.00  0.00    -0.268 OA
HETATM   23  H4  UNL     1      22.015   5.312  49.994  1.00  0.00     0.169 HD
BRANCH  21  24
HETATM   24  C6  UNL     1      20.371   3.748  48.986  1.00  0.00     0.064 C 
HETATM   25  C7  UNL     1      20.128   3.440  50.245  1.00  0.00     0.017 C 
ENDBRANCH  21  24
ENDBRANCH   5  20
BRANCH   8  26
HETATM   26  C19 UNL     1      26.683   6.603  49.016  1.00  0.00     0.308 C 
BRANCH  26  27
HETATM   27  N3  UNL     1      26.418   7.367  50.216  1.00  0.00     0.082 N 
HETATM   28  H14 UNL     1      26.159   6.783  51.031  1.00  0.00     0.313 HD
HETATM   29  H15 UNL     1      25.719   8.101  49.990  1.00  0.00     0.313 HD
ENDBRANCH  26  27
ENDBRANCH   8  26
ENDBRANCH   4   5
ENDBRANCH   3   4
TORSDOF 6
ENDMDL
MODEL 9
REMARK VINA RESULT:      -7.0      2.190      4.563
REMARK  6 active torsions:
REMARK  status: ('A' for Active; 'I' for Inactive)
REMARK    1  A    between atoms: O1_3  and  C3_4 
REMARK    2  A    between atoms: C3_4  and  C4_5 
REMARK    3  A    between atoms: C4_5  and  N1_6 
REMARK       I    between atoms: N1_6  and  C5_7 
REMARK    4  A    between atoms: C5_7  and  C6_9 
REMARK    5  A    between atoms: C18_24  and  C19_25 
REMARK    6  A    between atoms: C19_25  and  N3_26 
ROOT
HETATM    1  C1  UNL     1      23.451   8.394  49.931  1.00  0.00     0.044 C 
HETATM    2  C2  UNL     1      24.252   7.598  50.294  1.00  0.00     0.043 C 
HETATM    3  O1  UNL     1      25.151   6.686  50.683  1.00  0.00    -0.298 OA
ENDROOT
BRANCH   3   4
HETATM    4  C3  UNL     1      25.353   5.436  50.098  1.00  0.00     0.245 C 
BRANCH   4   5
HETATM    5  C4  UNL     1      24.496   4.394  50.663  1.00  0.00     0.048 C 
HETATM    6  C8  UNL     1      23.315   3.879  50.646  1.00  0.00     0.001 C 
HETATM    7  C9  UNL     1      22.684   2.762  51.391  1.00  0.00     0.046 C 
HETATM    8  C18 UNL     1      22.362   4.376  49.669  1.00  0.00     0.013 C 
HETATM    9  C10 UNL     1      21.453   2.395  51.123  1.00  0.00     0.068 C 
HETATM   10  C11 UNL     1      20.890   1.308  51.857  1.00  0.00    -0.006 A 
HETATM   11  N2  UNL     1      20.639   3.131  50.176  1.00  0.00    -0.245 NA
HETATM   12  C12 UNL     1      19.589   0.937  51.553  1.00  0.00     0.017 A 
HETATM   13  C16 UNL     1      21.477   0.578  52.834  1.00  0.00     0.040 A 
HETATM   14  C13 UNL     1      18.961  -0.097  52.205  1.00  0.00     0.045 A 
HETATM   15  C14 UNL     1      19.575  -0.813  53.181  1.00  0.00     0.138 A 
HETATM   16  F1  UNL     1      18.957  -1.820  53.814  1.00  0.00    -0.204 F 
HETATM   17  C15 UNL     1      20.876  -0.474  53.516  1.00  0.00     0.073 A 
HETATM   18 CL1  UNL     1      21.722  -1.353  54.762  1.00  0.00    -0.081 Cl
HETATM   19  C17 UNL     1      21.059   4.406  50.005  1.00  0.00     0.095 C 
BRANCH   5  20
HETATM   20  N1  UNL     1      25.277   3.605  51.553  1.00  0.00    -0.324 N 
HETATM   21  C5  UNL     1      26.344   2.732  51.249  1.00  0.00     0.244 C 
HETATM   22  O2  UNL     1      26.776   2.533  50.062  1.00  0.00    -0.268 OA
HETATM   23  H4  UNL     1      25.250   3.478  52.609  1.00  0.00     0.169 HD
BRANCH  21  24
HETATM   24  C6  UNL     1      27.132   1.919  52.164  1.00  0.00     0.064 C 
HETATM   25  C7  UNL     1      26.918   0.637  52.386  1.00  0.00     0.017 C 
ENDBRANCH  21  24
ENDBRANCH   5  20
BRANCH   8  26
HETATM   26  C19 UNL     1      22.613   4.751  48.262  1.00  0.00     0.308 C 
BRANCH  26  27
HETATM   27  N3  UNL     1      22.225   3.744  47.298  1.00  0.00     0.082 N 
HETATM   28  H14 UNL     1      21.459   3.128  47.627  1.00  0.00     0.313 HD
HETATM   29  H15 UNL     1      23.076   3.229  47.001  1.00  0.00     0.313 HD
ENDBRANCH  26  27
ENDBRANCH   8  26
ENDBRANCH   4   5
ENDBRANCH   3   4
TORSDOF 6
ENDMDL
