MODEL 1
REMARK VINA RESULT:      -8.0      0.000      0.000
REMARK  4 active torsions:
REMARK  status: ('A' for Active; 'I' for Inactive)
REMARK    1  A    between atoms: C5_5  and  C6_6 
REMARK    2  A    between atoms: C6_6  and  N1_7 
REMARK    3  A    between atoms: N1_7  and  C7_8 
REMARK    4  A    between atoms: C7_8  and  C8_9 
ROOT
HETATM    1  C8  UNL     1      22.971   0.951  51.954  1.00  0.00    -0.012 A 
HETATM    2  C9  UNL     1      21.779   1.175  51.304  1.00  0.00     0.111 A 
HETATM    3  O1  UNL     1      21.334   0.509  52.093  1.00  0.00     0.000 OA
HETATM    4  C10 UNL     1      21.834  -0.075  53.044  1.00  0.00    -0.008 A 
HETATM    5  C11 UNL     1      20.807  -0.789  53.754  1.00  0.00    -0.044 A 
HETATM    6  C12 UNL     1      21.520  -1.385  54.782  1.00  0.00     0.008 A 
HETATM    7  C13 UNL     1      22.886  -1.204  54.911  1.00  0.00     0.001 A 
HETATM    8  C14 UNL     1      23.781  -0.471  54.140  1.00  0.00     0.012 A 
HETATM    9  C15 UNL     1      23.239   0.183  53.081  1.00  0.00    -0.018 A 
HETATM   10  C16 UNL     1      19.431  -0.599  53.205  1.00  0.00     0.062 C 
HETATM   11  C17 UNL     1      19.432   0.667  52.249  1.00  0.00     0.100 C 
HETATM   12  N2  UNL     1      20.407   0.901  51.299  1.00  0.00    -0.223 NA
ENDROOT
BRANCH   1  13
HETATM   13  C7  UNL     1      24.005   1.746  51.359  1.00  0.00     0.307 C 
BRANCH  13  14
HETATM   14  N1  UNL     1      24.946   2.334  52.268  1.00  0.00     0.091 NA
HETATM   15  H9  UNL     1      24.704   2.145  53.263  1.00  0.00     0.316 HD
BRANCH  14  16
HETATM   16  C6  UNL     1      26.316   2.116  52.033  1.00  0.00     0.308 C 
BRANCH  16  17
HETATM   17  C5  UNL     1      26.918   0.865  52.520  1.00  0.00    -0.034 A 
HETATM   18  C4  UNL     1      26.829  -0.545  52.201  1.00  0.00     0.005 A 
HETATM   19  C3  UNL     1      27.602  -1.344  52.910  1.00  0.00    -0.018 A 
HETATM   20  C2  UNL     1      28.356  -0.488  53.860  1.00  0.00     0.027 A 
HETATM   21  C1  UNL     1      29.801  -0.563  53.461  1.00  0.00     0.018 C 
HETATM   22  C18 UNL     1      27.837   0.848  53.511  1.00  0.00    -0.010 A 
ENDBRANCH  16  17
ENDBRANCH  14  16
ENDBRANCH  13  14
ENDBRANCH   1  13
TORSDOF 4
ENDMDL
MODEL 2
REMARK VINA RESULT:      -7.7      2.080      6.964
REMARK  4 active torsions:
REMARK  status: ('A' for Active; 'I' for Inactive)
REMARK    1  A    between atoms: C5_5  and  C6_6 
REMARK    2  A    between atoms: C6_6  and  N1_7 
REMARK    3  A    between atoms: N1_7  and  C7_8 
REMARK    4  A    between atoms: C7_8  and  C8_9 
ROOT
HETATM    1  C8  UNL     1      25.808   0.580  52.918  1.00  0.00    -0.012 A 
HETATM    2  C9  UNL     1      26.307   1.752  53.438  1.00  0.00     0.111 A 
HETATM    3  O1  UNL     1      27.262   1.173  53.572  1.00  0.00     0.000 OA
HETATM    4  C10 UNL     1      27.557   0.016  53.312  1.00  0.00    -0.008 A 
HETATM    5  C11 UNL     1      28.930  -0.215  53.674  1.00  0.00    -0.044 A 
HETATM    6  C12 UNL     1      29.107  -1.544  53.322  1.00  0.00     0.008 A 
HETATM    7  C13 UNL     1      28.078  -2.286  52.770  1.00  0.00     0.001 A 
HETATM    8  C14 UNL     1      26.768  -1.935  52.463  1.00  0.00     0.012 A 
HETATM    9  C15 UNL     1      26.428  -0.652  52.746  1.00  0.00    -0.018 A 
HETATM   10  C16 UNL     1      29.639   0.988  54.204  1.00  0.00     0.062 C 
HETATM   11  C17 UNL     1      28.802   2.282  53.828  1.00  0.00     0.100 C 
HETATM   12  N2  UNL     1      27.434   2.374  53.988  1.00  0.00    -0.223 NA
ENDROOT
BRANCH   1  13
HETATM   13  C7  UNL     1      24.480   0.796  52.423  1.00  0.00     0.307 C 
BRANCH  13  14
HETATM   14  N1  UNL     1      23.413   0.464  53.323  1.00  0.00     0.091 NA
HETATM   15  H9  UNL     1      22.963   1.310  53.729  1.00  0.00     0.316 HD
BRANCH  14  16
HETATM   16  C6  UNL     1      22.446  -0.461  52.888  1.00  0.00     0.308 C 
BRANCH  16  17
HETATM   17  C5  UNL     1      21.280   0.044  52.147  1.00  0.00    -0.034 A 
HETATM   18  C4  UNL     1      20.992   0.470  50.793  1.00  0.00     0.005 A 
HETATM   19  C3  UNL     1      19.746   0.837  50.560  1.00  0.00    -0.018 A 
HETATM   20  C2  UNL     1      19.002   0.685  51.835  1.00  0.00     0.027 A 
HETATM   21  C1  UNL     1      18.001  -0.413  51.626  1.00  0.00     0.018 C 
HETATM   22  C18 UNL     1      20.068   0.190  52.727  1.00  0.00    -0.010 A 
ENDBRANCH  16  17
ENDBRANCH  14  16
ENDBRANCH  13  14
ENDBRANCH   1  13
TORSDOF 4
ENDMDL
MODEL 3
REMARK VINA RESULT:      -7.5      3.508      5.578
REMARK  4 active torsions:
REMARK  status: ('A' for Active; 'I' for Inactive)
REMARK    1  A    between atoms: C5_5  and  C6_6 
REMARK    2  A    between atoms: C6_6  and  N1_7 
REMARK    3  A    between atoms: N1_7  and  C7_8 
REMARK    4  A    between atoms: C7_8  and  C8_9 
ROOT
HETATM    1  C8  UNL     1      24.713   2.274  52.153  1.00  0.00    -0.012 A 
HETATM    2  C9  UNL     1      25.771   2.102  53.016  1.00  0.00     0.111 A 
HETATM    3  O1  UNL     1      25.202   1.204  53.382  1.00  0.00     0.000 OA
HETATM    4  C10 UNL     1      24.127   0.728  53.047  1.00  0.00    -0.008 A 
HETATM    5  C11 UNL     1      23.865  -0.447  53.835  1.00  0.00    -0.044 A 
HETATM    6  C12 UNL     1      22.637  -0.862  53.344  1.00  0.00     0.008 A 
HETATM    7  C13 UNL     1      21.992  -0.167  52.335  1.00  0.00     0.001 A 
HETATM    8  C14 UNL     1      22.363   0.980  51.642  1.00  0.00     0.012 A 
HETATM    9  C15 UNL     1      23.555   1.519  52.004  1.00  0.00    -0.018 A 
HETATM   10  C16 UNL     1      24.956  -0.808  54.787  1.00  0.00     0.062 C 
HETATM   11  C17 UNL     1      26.278  -0.036  54.368  1.00  0.00     0.100 C 
HETATM   12  N2  UNL     1      26.301   1.304  54.036  1.00  0.00    -0.223 NA
ENDROOT
BRANCH   1  13
HETATM   13  C7  UNL     1      24.988   3.359  51.258  1.00  0.00     0.307 C 
BRANCH  13  14
HETATM   14  N1  UNL     1      26.356   3.510  50.855  1.00  0.00     0.091 NA
HETATM   15  H9  UNL     1      26.978   2.805  51.302  1.00  0.00     0.316 HD
BRANCH  14  16
HETATM   16  C6  UNL     1      26.631   3.624  49.480  1.00  0.00     0.308 C 
BRANCH  16  17
HETATM   17  C5  UNL     1      27.173   4.898  48.980  1.00  0.00    -0.034 A 
HETATM   18  C4  UNL     1      28.380   5.345  48.317  1.00  0.00     0.005 A 
HETATM   19  C3  UNL     1      28.430   6.629  48.019  1.00  0.00    -0.018 A 
HETATM   20  C2  UNL     1      27.158   7.233  48.489  1.00  0.00     0.027 A 
HETATM   21  C1  UNL     1      26.408   7.675  47.266  1.00  0.00     0.018 C 
HETATM   22  C18 UNL     1      26.478   6.055  49.060  1.00  0.00    -0.010 A 
ENDBRANCH  16  17
ENDBRANCH  14  16
ENDBRANCH  13  14
ENDBRANCH   1  13
TORSDOF 4
ENDMDL
MODEL 4
REMARK VINA RESULT:      -7.5      2.091      6.495
REMARK  4 active torsions:
REMARK  status: ('A' for Active; 'I' for Inactive)
REMARK    1  A    between atoms: C5_5  and  C6_6 
REMARK    2  A    between atoms: C6_6  and  N1_7 
REMARK    3  A    between atoms: N1_7  and  C7_8 
REMARK    4  A    between atoms: C7_8  and  C8_9 
ROOT
HETATM    1  C8  UNL     1      24.575  -0.084  53.633  1.00  0.00    -0.012 A 
HETATM    2  C9  UNL     1      25.574  -0.621  54.412  1.00  0.00     0.111 A 
HETATM    3  O1  UNL     1      26.258   0.061  53.836  1.00  0.00     0.000 OA
HETATM    4  C10 UNL     1      26.042   0.867  52.943  1.00  0.00    -0.008 A 
HETATM    5  C11 UNL     1      27.280   1.494  52.562  1.00  0.00    -0.044 A 
HETATM    6  C12 UNL     1      26.873   2.363  51.562  1.00  0.00     0.008 A 
HETATM    7  C13 UNL     1      25.547   2.450  51.178  1.00  0.00     0.001 A 
HETATM    8  C14 UNL     1      24.422   1.774  51.638  1.00  0.00     0.012 A 
HETATM    9  C15 UNL     1      24.648   0.876  52.630  1.00  0.00    -0.018 A 
HETATM   10  C16 UNL     1      28.463   1.060  53.362  1.00  0.00     0.062 C 
HETATM   11  C17 UNL     1      27.953   0.342  54.682  1.00  0.00     0.100 C 
HETATM   12  N2  UNL     1      26.946  -0.603  54.691  1.00  0.00    -0.223 NA
ENDROOT
BRANCH   1  13
HETATM   13  C7  UNL     1      23.302  -0.584  54.064  1.00  0.00     0.307 C 
BRANCH  13  14
HETATM   14  N1  UNL     1      22.403  -0.992  53.024  1.00  0.00     0.091 NA
HETATM   15  H9  UNL     1      22.298  -2.027  52.978  1.00  0.00     0.316 HD
BRANCH  14  16
HETATM   16  C6  UNL     1      21.152  -0.355  52.944  1.00  0.00     0.308 C 
BRANCH  16  17
HETATM   17  C5  UNL     1      20.951   0.662  51.899  1.00  0.00    -0.034 A 
HETATM   18  C4  UNL     1      20.758   2.096  51.844  1.00  0.00     0.005 A 
HETATM   19  C3  UNL     1      20.642   2.613  50.636  1.00  0.00    -0.018 A 
HETATM   20  C2  UNL     1      20.753   1.491  49.670  1.00  0.00     0.027 A 
HETATM   21  C1  UNL     1      22.023   1.704  48.899  1.00  0.00     0.018 C 
HETATM   22  C18 UNL     1      20.941   0.348  50.585  1.00  0.00    -0.010 A 
ENDBRANCH  16  17
ENDBRANCH  14  16
ENDBRANCH  13  14
ENDBRANCH   1  13
TORSDOF 4
ENDMDL
MODEL 5
REMARK VINA RESULT:      -7.4      2.278      4.392
REMARK  4 active torsions:
REMARK  status: ('A' for Active; 'I' for Inactive)
REMARK    1  A    between atoms: C5_5  and  C6_6 
REMARK    2  A    between atoms: C6_6  and  N1_7 
REMARK    3  A    between atoms: N1_7  and  C7_8 
REMARK    4  A    between atoms: C7_8  and  C8_9 
ROOT
HETATM    1  C8  UNL     1      23.445   2.306  52.000  1.00  0.00    -0.012 A 
HETATM    2  C9  UNL     1      22.340   2.993  51.551  1.00  0.00     0.111 A 
HETATM    3  O1  UNL     1      23.049   3.457  50.811  1.00  0.00     0.000 OA
HETATM    4  C10 UNL     1      24.247   3.302  50.623  1.00  0.00    -0.008 A 
HETATM    5  C11 UNL     1      24.665   4.138  49.528  1.00  0.00    -0.044 A 
HETATM    6  C12 UNL     1      26.019   3.852  49.442  1.00  0.00     0.008 A 
HETATM    7  C13 UNL     1      26.621   2.949  50.299  1.00  0.00     0.001 A 
HETATM    8  C14 UNL     1      26.091   2.190  51.337  1.00  0.00     0.012 A 
HETATM    9  C15 UNL     1      24.762   2.351  51.557  1.00  0.00    -0.018 A 
HETATM   10  C16 UNL     1      23.561   4.911  48.886  1.00  0.00     0.062 C 
HETATM   11  C17 UNL     1      22.173   4.278  49.320  1.00  0.00     0.100 C 
HETATM   12  N2  UNL     1      21.871   3.928  50.621  1.00  0.00    -0.223 NA
ENDROOT
BRANCH   1  13
HETATM   13  C7  UNL     1      23.054   1.363  53.007  1.00  0.00     0.307 C 
BRANCH  13  14
HETATM   14  N1  UNL     1      23.597   0.042  52.876  1.00  0.00     0.091 NA
HETATM   15  H9  UNL     1      24.094  -0.091  51.970  1.00  0.00     0.316 HD
BRANCH  14  16
HETATM   16  C6  UNL     1      24.354  -0.470  53.946  1.00  0.00     0.308 C 
BRANCH  16  17
HETATM   17  C5  UNL     1      25.818  -0.508  53.809  1.00  0.00    -0.034 A 
HETATM   18  C4  UNL     1      26.781  -1.121  52.917  1.00  0.00     0.005 A 
HETATM   19  C3  UNL     1      28.048  -0.849  53.166  1.00  0.00    -0.018 A 
HETATM   20  C2  UNL     1      28.076   0.047  54.349  1.00  0.00     0.027 A 
HETATM   21  C1  UNL     1      28.590   1.376  53.875  1.00  0.00     0.018 C 
HETATM   22  C18 UNL     1      26.635   0.175  54.642  1.00  0.00    -0.010 A 
ENDBRANCH  16  17
ENDBRANCH  14  16
ENDBRANCH  13  14
ENDBRANCH   1  13
TORSDOF 4
ENDMDL
MODEL 6
REMARK VINA RESULT:      -7.4      2.699      6.300
REMARK  4 active torsions:
REMARK  status: ('A' for Active; 'I' for Inactive)
REMARK    1  A    between atoms: C5_5  and  C6_6 
REMARK    2  A    between atoms: C6_6  and  N1_7 
REMARK    3  A    between atoms: N1_7  and  C7_8 
REMARK    4  A    between atoms: C7_8  and  C8_9 
ROOT
HETATM    1  C8  UNL     1      25.841  -0.233  53.048  1.00  0.00    -0.012 A 
HETATM    2  C9  UNL     1      26.320  -1.506  52.833  1.00  0.00     0.111 A 
HETATM    3  O1  UNL     1      27.333  -1.049  53.004  1.00  0.00     0.000 OA
HETATM    4  C10 UNL     1      27.679   0.095  53.261  1.00  0.00    -0.008 A 
HETATM    5  C11 UNL     1      29.111   0.136  53.396  1.00  0.00    -0.044 A 
HETATM    6  C12 UNL     1      29.340   1.473  53.682  1.00  0.00     0.008 A 
HETATM    7  C13 UNL     1      28.299   2.380  53.771  1.00  0.00     0.001 A 
HETATM    8  C14 UNL     1      26.928   2.206  53.617  1.00  0.00     0.012 A 
HETATM    9  C15 UNL     1      26.530   0.940  53.332  1.00  0.00    -0.018 A 
HETATM   10  C16 UNL     1      29.783  -1.189  53.250  1.00  0.00     0.062 C 
HETATM   11  C17 UNL     1      28.696  -2.334  53.402  1.00  0.00     0.100 C 
HETATM   12  N2  UNL     1      27.468  -2.304  52.772  1.00  0.00    -0.223 NA
ENDROOT
BRANCH   1  13
HETATM   13  C7  UNL     1      24.408  -0.249  53.051  1.00  0.00     0.307 C 
BRANCH  13  14
HETATM   14  N1  UNL     1      23.766   1.018  52.848  1.00  0.00     0.091 NA
HETATM   15  H9  UNL     1      24.243   1.788  53.360  1.00  0.00     0.316 HD
BRANCH  14  16
HETATM   16  C6  UNL     1      23.465   1.402  51.528  1.00  0.00     0.308 C 
BRANCH  16  17
HETATM   17  C5  UNL     1      24.010   2.675  51.030  1.00  0.00    -0.034 A 
HETATM   18  C4  UNL     1      24.156   4.027  51.526  1.00  0.00     0.005 A 
HETATM   19  C3  UNL     1      24.756   4.875  50.712  1.00  0.00    -0.018 A 
HETATM   20  C2  UNL     1      25.105   4.123  49.481  1.00  0.00     0.027 A 
HETATM   21  C1  UNL     1      26.604   4.060  49.420  1.00  0.00     0.018 C 
HETATM   22  C18 UNL     1      24.588   2.781  49.813  1.00  0.00    -0.010 A 
ENDBRANCH  16  17
ENDBRANCH  14  16
ENDBRANCH  13  14
ENDBRANCH   1  13
TORSDOF 4
ENDMDL
MODEL 7
REMARK VINA RESULT:      -7.2      1.624      2.259
REMARK  4 active torsions:
REMARK  status: ('A' for Active; 'I' for Inactive)
REMARK    1  A    between atoms: C5_5  and  C6_6 
REMARK    2  A    between atoms: C6_6  and  N1_7 
REMARK    3  A    between atoms: N1_7  and  C7_8 
REMARK    4  A    between atoms: C7_8  and  C8_9 
ROOT
HETATM    1  C8  UNL     1      23.631   2.584  50.567  1.00  0.00    -0.012 A 
HETATM    2  C9  UNL     1      22.948   2.640  49.373  1.00  0.00     0.111 A 
HETATM    3  O1  UNL     1      22.230   1.924  49.861  1.00  0.00     0.000 OA
HETATM    4  C10 UNL     1      22.212   1.420  50.975  1.00  0.00    -0.008 A 
HETATM    5  C11 UNL     1      21.051   0.578  51.094  1.00  0.00    -0.044 A 
HETATM    6  C12 UNL     1      21.173   0.092  52.386  1.00  0.00     0.008 A 
HETATM    7  C13 UNL     1      22.232   0.458  53.197  1.00  0.00     0.001 A 
HETATM    8  C14 UNL     1      23.312   1.300  52.956  1.00  0.00     0.012 A 
HETATM    9  C15 UNL     1      23.344   1.867  51.723  1.00  0.00    -0.018 A 
HETATM   10  C16 UNL     1      20.165   0.576  49.892  1.00  0.00     0.062 C 
HETATM   11  C17 UNL     1      20.531   1.824  48.984  1.00  0.00     0.100 C 
HETATM   12  N2  UNL     1      21.828   2.181  48.671  1.00  0.00    -0.223 NA
ENDROOT
BRANCH   1  13
HETATM   13  C7  UNL     1      24.726   3.507  50.543  1.00  0.00     0.307 C 
BRANCH  13  14
HETATM   14  N1  UNL     1      25.742   3.304  51.535  1.00  0.00     0.091 NA
HETATM   15  H9  UNL     1      25.340   3.134  52.481  1.00  0.00     0.316 HD
BRANCH  14  16
HETATM   16  C6  UNL     1      26.768   2.384  51.252  1.00  0.00     0.308 C 
BRANCH  16  17
HETATM   17  C5  UNL     1      26.912   1.209  52.126  1.00  0.00    -0.034 A 
HETATM   18  C4  UNL     1      26.664  -0.214  52.033  1.00  0.00     0.005 A 
HETATM   19  C3  UNL     1      26.980  -0.923  53.100  1.00  0.00    -0.018 A 
HETATM   20  C2  UNL     1      27.518   0.025  54.107  1.00  0.00     0.027 A 
HETATM   21  C1  UNL     1      28.969  -0.313  54.291  1.00  0.00     0.018 C 
HETATM   22  C18 UNL     1      27.419   1.302  53.376  1.00  0.00    -0.010 A 
ENDBRANCH  16  17
ENDBRANCH  14  16
ENDBRANCH  13  14
ENDBRANCH   1  13
TORSDOF 4
ENDMDL
MODEL 8
REMARK VINA RESULT:      -7.1      3.623      5.243
REMARK  4 active torsions:
REMARK  status: ('A' for Active; 'I' for Inactive)
REMARK    1  A    between atoms: C5_5  and  C6_6 
REMARK    2  A    between atoms: C6_6  and  N1_7 
REMARK    3  A    between atoms: N1_7  and  C7_8 
REMARK    4  A    between atoms: C7_8  and  C8_9 
ROOT
HETATM    1  C8  UNL     1      25.620   1.830  51.592  1.00  0.00    -0.012 A 
HETATM    2  C9  UNL     1      24.305   1.966  51.210  1.00  0.00     0.111 A 
HETATM    3  O1  UNL     1      24.088   1.240  52.042  1.00  0.00     0.000 OA
HETATM    4  C10 UNL     1      24.820   0.676  52.843  1.00  0.00    -0.008 A 
HETATM    5  C11 UNL     1      24.023  -0.146  53.713  1.00  0.00    -0.044 A 
HETATM    6  C12 UNL     1      24.980  -0.706  54.546  1.00  0.00     0.008 A 
HETATM    7  C13 UNL     1      26.323  -0.408  54.402  1.00  0.00     0.001 A 
HETATM    8  C14 UNL     1      26.977   0.424  53.499  1.00  0.00     0.012 A 
HETATM    9  C15 UNL     1      26.177   1.057  52.605  1.00  0.00    -0.018 A 
HETATM   10  C16 UNL     1      22.553  -0.063  53.466  1.00  0.00     0.062 C 
HETATM   11  C17 UNL     1      22.254   1.225  52.590  1.00  0.00     0.100 C 
HETATM   12  N2  UNL     1      22.988   1.571  51.472  1.00  0.00    -0.223 NA
ENDROOT
BRANCH   1  13
HETATM   13  C7  UNL     1      26.440   2.730  50.836  1.00  0.00     0.307 C 
BRANCH  13  14
HETATM   14  N1  UNL     1      25.946   4.069  50.704  1.00  0.00     0.091 NA
HETATM   15  H9  UNL     1      26.418   4.730  51.357  1.00  0.00     0.316 HD
BRANCH  14  16
HETATM   16  C6  UNL     1      25.858   4.617  49.411  1.00  0.00     0.308 C 
BRANCH  16  17
HETATM   17  C5  UNL     1      26.999   5.397  48.905  1.00  0.00    -0.034 A 
HETATM   18  C4  UNL     1      28.331   5.121  48.409  1.00  0.00     0.005 A 
HETATM   19  C3  UNL     1      29.029   6.171  48.022  1.00  0.00    -0.018 A 
HETATM   20  C2  UNL     1      28.171   7.364  48.234  1.00  0.00     0.027 A 
HETATM   21  C1  UNL     1      27.860   7.922  46.875  1.00  0.00     0.018 C 
HETATM   22  C18 UNL     1      26.950   6.742  48.781  1.00  0.00    -0.010 A 
ENDBRANCH  16  17
ENDBRANCH  14  16
ENDBRANCH  13  14
ENDBRANCH   1  13
TORSDOF 4
ENDMDL
MODEL 9
REMARK VINA RESULT:      -7.0      2.667      6.153
REMARK  4 active torsions:
REMARK  status: ('A' for Active; 'I' for Inactive)
REMARK    1  A    between atoms: C5_5  and  C6_6 
REMARK    2  A    between atoms: C6_6  and  N1_7 
REMARK    3  A    between atoms: N1_7  and  C7_8 
REMARK    4  A    between atoms: C7_8  and  C8_9 
ROOT
HETATM    1  C8  UNL     1      23.598   4.293  51.936  1.00  0.00    -0.012 A 
HETATM    2  C9  UNL     1      23.950   5.240  51.001  1.00  0.00     0.111 A 
HETATM    3  O1  UNL     1      24.819   4.561  50.782  1.00  0.00     0.000 OA
HETATM    4  C10 UNL     1      25.154   3.485  51.257  1.00  0.00    -0.008 A 
HETATM    5  C11 UNL     1      26.352   3.031  50.602  1.00  0.00    -0.044 A 
HETATM    6  C12 UNL     1      26.596   1.825  51.240  1.00  0.00     0.008 A 
HETATM    7  C13 UNL     1      25.761   1.356  52.239  1.00  0.00     0.001 A 
HETATM    8  C14 UNL     1      24.608   1.904  52.791  1.00  0.00     0.012 A 
HETATM    9  C15 UNL     1      24.224   3.098  52.271  1.00  0.00    -0.018 A 
HETATM   10  C16 UNL     1      26.834   3.926  49.509  1.00  0.00     0.062 C 
HETATM   11  C17 UNL     1      25.660   4.911  49.098  1.00  0.00     0.100 C 
HETATM   12  N2  UNL     1      24.879   5.586  50.014  1.00  0.00    -0.223 NA
ENDROOT
BRANCH   1  13
HETATM   13  C7  UNL     1      22.339   4.639  52.527  1.00  0.00     0.307 C 
BRANCH  13  14
HETATM   14  N1  UNL     1      21.196   4.551  51.665  1.00  0.00     0.091 NA
HETATM   15  H9  UNL     1      21.463   4.516  50.659  1.00  0.00     0.316 HD
BRANCH  14  16
HETATM   16  C6  UNL     1      20.218   3.583  51.960  1.00  0.00     0.308 C 
BRANCH  16  17
HETATM   17  C5  UNL     1      20.626   2.170  52.007  1.00  0.00    -0.034 A 
HETATM   18  C4  UNL     1      21.308   1.238  51.133  1.00  0.00     0.005 A 
HETATM   19  C3  UNL     1      21.488   0.025  51.617  1.00  0.00    -0.018 A 
HETATM   20  C2  UNL     1      20.899   0.008  52.979  1.00  0.00     0.027 A 
HETATM   21  C1  UNL     1      22.036  -0.175  53.943  1.00  0.00     0.018 C 
HETATM   22  C18 UNL     1      20.404   1.394  53.090  1.00  0.00    -0.010 A 
ENDBRANCH  16  17
ENDBRANCH  14  16
ENDBRANCH  13  14
ENDBRANCH   1  13
TORSDOF 4
ENDMDL
