MODEL 1
REMARK VINA RESULT:      -7.5      0.000      0.000
REMARK  3 active torsions:
REMARK  status: ('A' for Active; 'I' for Inactive)
REMARK    1  A    between atoms: C5_6  and  N1_7 
REMARK    2  A    between atoms: N1_7  and  C6_8 
REMARK    3  A    between atoms: C6_8  and  N2_9 
ROOT
HETATM    1  N2  UNL     1      25.115   3.338  50.148  1.00  0.00    -0.254 NA
HETATM    2  C7  UNL     1      24.004   2.776  50.559  1.00  0.00     0.153 C 
HETATM    3  C8  UNL     1      22.829   3.576  50.103  1.00  0.00     0.349 C 
HETATM    4  N3  UNL     1      21.624   2.924  50.609  1.00  0.00     0.091 N 
HETATM    5  C9  UNL     1      21.523   3.039  52.046  1.00  0.00     0.283 C 
HETATM    6  C10 UNL     1      21.982   1.848  52.813  1.00  0.00     0.094 C 
HETATM    7  C11 UNL     1      20.880   0.826  53.026  1.00  0.00     0.043 C 
HETATM    8  C12 UNL     1      21.425  -0.459  53.521  1.00  0.00    -0.001 C 
HETATM    9  C13 UNL     1      22.692  -0.814  53.380  1.00  0.00     0.140 C 
HETATM   10  O1  UNL     1      23.624  -0.001  52.749  1.00  0.00    -0.308 OA
HETATM   11  C14 UNL     1      23.209   1.226  52.250  1.00  0.00     0.153 C 
HETATM   12  N4  UNL     1      24.068   1.577  51.321  1.00  0.00    -0.211 NA
HETATM   13  H9  UNL     1      21.638   1.941  50.284  1.00  0.00     0.316 HD
ENDROOT
BRANCH   1  14
HETATM   14  C6  UNL     1      26.415   2.824  50.416  1.00  0.00     0.272 C 
BRANCH  14  15
HETATM   15  N1  UNL     1      26.736   3.085  51.805  1.00  0.00    -0.372 N 
HETATM   16  H4  UNL     1      26.535   3.951  52.351  1.00  0.00     0.161 HD
BRANCH  15  17
HETATM   17  C5  UNL     1      27.402   2.055  52.523  1.00  0.00     0.030 A 
HETATM   18  C4  UNL     1      28.396   2.283  53.460  1.00  0.00     0.029 A 
HETATM   19  C3  UNL     1      29.031   1.264  54.147  1.00  0.00     0.004 A 
HETATM   20  C2  UNL     1      28.669  -0.030  53.899  1.00  0.00     0.019 A 
HETATM   21  C1  UNL     1      27.691  -0.345  52.983  1.00  0.00     0.013 A 
HETATM   22 BR1  UNL     1      27.132  -2.135  52.583  1.00  0.00    -0.051 Br
HETATM   23  C15 UNL     1      27.107   0.703  52.343  1.00  0.00     0.048 A 
ENDBRANCH  15  17
ENDBRANCH  14  15
ENDBRANCH   1  14
TORSDOF 3
ENDMDL
MODEL 2
REMARK VINA RESULT:      -7.5      2.501      5.196
REMARK  3 active torsions:
REMARK  status: ('A' for Active; 'I' for Inactive)
REMARK    1  A    between atoms: C5_6  and  N1_7 
REMARK    2  A    between atoms: N1_7  and  C6_8 
REMARK    3  A    between atoms: C6_8  and  N2_9 
ROOT
HETATM    1  N2  UNL     1      27.183   2.633  51.612  1.00  0.00    -0.254 NA
HETATM    2  C7  UNL     1      26.437   2.007  52.489  1.00  0.00     0.153 C 
HETATM    3  C8  UNL     1      27.229   1.727  53.724  1.00  0.00     0.349 C 
HETATM    4  N3  UNL     1      26.362   1.007  54.653  1.00  0.00     0.091 N 
HETATM    5  C9  UNL     1      26.068  -0.326  54.180  1.00  0.00     0.283 C 
HETATM    6  C10 UNL     1      24.756  -0.482  53.494  1.00  0.00     0.094 C 
HETATM    7  C11 UNL     1      23.624  -0.799  54.455  1.00  0.00     0.043 C 
HETATM    8  C12 UNL     1      22.305  -0.656  53.801  1.00  0.00    -0.001 C 
HETATM    9  C13 UNL     1      22.111   0.056  52.701  1.00  0.00     0.140 C 
HETATM   10  O1  UNL     1      23.142   0.735  52.066  1.00  0.00    -0.308 OA
HETATM   11  C14 UNL     1      24.420   0.662  52.606  1.00  0.00     0.153 C 
HETATM   12  N4  UNL     1      25.085   1.706  52.169  1.00  0.00    -0.211 NA
HETATM   13  H9  UNL     1      25.513   1.579  54.799  1.00  0.00     0.316 HD
ENDROOT
BRANCH   1  14
HETATM   14  C6  UNL     1      26.727   3.044  50.327  1.00  0.00     0.272 C 
BRANCH  14  15
HETATM   15  N1  UNL     1      25.969   4.270  50.479  1.00  0.00    -0.372 N 
HETATM   16  H4  UNL     1      26.146   5.047  51.152  1.00  0.00     0.161 HD
BRANCH  15  17
HETATM   17  C5  UNL     1      24.851   4.453  49.620  1.00  0.00     0.030 A 
HETATM   18  C4  UNL     1      24.505   5.666  49.049  1.00  0.00     0.029 A 
HETATM   19  C3  UNL     1      23.412   5.820  48.216  1.00  0.00     0.004 A 
HETATM   20  C2  UNL     1      22.631   4.734  47.936  1.00  0.00     0.019 A 
HETATM   21  C1  UNL     1      22.904   3.492  48.462  1.00  0.00     0.013 A 
HETATM   22 BR1  UNL     1      21.856   1.925  48.114  1.00  0.00    -0.051 Br
HETATM   23  C15 UNL     1      23.993   3.409  49.273  1.00  0.00     0.048 A 
ENDBRANCH  15  17
ENDBRANCH  14  15
ENDBRANCH   1  14
TORSDOF 3
ENDMDL
MODEL 3
REMARK VINA RESULT:      -7.4      3.403      5.490
REMARK  3 active torsions:
REMARK  status: ('A' for Active; 'I' for Inactive)
REMARK    1  A    between atoms: C5_6  and  N1_7 
REMARK    2  A    between atoms: N1_7  and  C6_8 
REMARK    3  A    between atoms: C6_8  and  N2_9 
ROOT
HETATM    1  N2  UNL     1      27.072   2.674  51.273  1.00  0.00    -0.254 NA
HETATM    2  C7  UNL     1      26.470   2.077  52.273  1.00  0.00     0.153 C 
HETATM    3  C8  UNL     1      27.377   2.026  53.457  1.00  0.00     0.349 C 
HETATM    4  N3  UNL     1      26.671   1.329  54.528  1.00  0.00     0.091 N 
HETATM    5  C9  UNL     1      26.499  -0.073  54.226  1.00  0.00     0.283 C 
HETATM    6  C10 UNL     1      25.166  -0.446  53.675  1.00  0.00     0.094 C 
HETATM    7  C11 UNL     1      24.153  -0.770  54.758  1.00  0.00     0.043 C 
HETATM    8  C12 UNL     1      22.781  -0.844  54.208  1.00  0.00    -0.001 C 
HETATM    9  C13 UNL     1      22.426  -0.287  53.061  1.00  0.00     0.140 C 
HETATM   10  O1  UNL     1      23.322   0.420  52.271  1.00  0.00    -0.308 OA
HETATM   11  C14 UNL     1      24.635   0.546  52.704  1.00  0.00     0.153 C 
HETATM   12  N4  UNL     1      25.142   1.598  52.104  1.00  0.00    -0.211 NA
HETATM   13  H9  UNL     1      25.774   1.820  54.685  1.00  0.00     0.316 HD
ENDROOT
BRANCH   1  14
HETATM   14  C6  UNL     1      26.478   2.885  49.997  1.00  0.00     0.272 C 
BRANCH  14  15
HETATM   15  N1  UNL     1      25.680   4.094  50.054  1.00  0.00    -0.372 N 
HETATM   16  H4  UNL     1      24.814   4.257  50.611  1.00  0.00     0.161 HD
BRANCH  15  17
HETATM   17  C5  UNL     1      26.112   5.195  49.266  1.00  0.00     0.030 A 
HETATM   18  C4  UNL     1      25.270   6.191  48.801  1.00  0.00     0.029 A 
HETATM   19  C3  UNL     1      25.713   7.254  48.035  1.00  0.00     0.004 A 
HETATM   20  C2  UNL     1      27.039   7.337  47.716  1.00  0.00     0.019 A 
HETATM   21  C1  UNL     1      27.944   6.389  48.137  1.00  0.00     0.013 A 
HETATM   22 BR1  UNL     1      29.818   6.438  47.729  1.00  0.00    -0.051 Br
HETATM   23  C15 UNL     1      27.444   5.370  48.886  1.00  0.00     0.048 A 
ENDBRANCH  15  17
ENDBRANCH  14  15
ENDBRANCH   1  14
TORSDOF 3
ENDMDL
MODEL 4
REMARK VINA RESULT:      -7.4      3.187      5.849
REMARK  3 active torsions:
REMARK  status: ('A' for Active; 'I' for Inactive)
REMARK    1  A    between atoms: C5_6  and  N1_7 
REMARK    2  A    between atoms: N1_7  and  C6_8 
REMARK    3  A    between atoms: C6_8  and  N2_9 
ROOT
HETATM    1  N2  UNL     1      23.221   1.920  52.617  1.00  0.00    -0.254 NA
HETATM    2  C7  UNL     1      24.305   1.255  52.935  1.00  0.00     0.153 C 
HETATM    3  C8  UNL     1      23.959  -0.160  53.259  1.00  0.00     0.349 C 
HETATM    4  N3  UNL     1      25.194  -0.845  53.632  1.00  0.00     0.091 N 
HETATM    5  C9  UNL     1      25.704  -0.368  54.897  1.00  0.00     0.283 C 
HETATM    6  C10 UNL     1      26.790   0.646  54.801  1.00  0.00     0.094 C 
HETATM    7  C11 UNL     1      28.171   0.021  54.717  1.00  0.00     0.043 C 
HETATM    8  C12 UNL     1      29.193   1.019  54.329  1.00  0.00    -0.001 C 
HETATM    9  C13 UNL     1      28.902   2.159  53.722  1.00  0.00     0.140 C 
HETATM   10  O1  UNL     1      27.600   2.514  53.396  1.00  0.00    -0.308 OA
HETATM   11  C14 UNL     1      26.570   1.641  53.719  1.00  0.00     0.153 C 
HETATM   12  N4  UNL     1      25.561   1.922  52.928  1.00  0.00    -0.211 NA
HETATM   13  H9  UNL     1      25.867  -0.726  52.855  1.00  0.00     0.316 HD
ENDROOT
BRANCH   1  14
HETATM   14  C6  UNL     1      23.207   3.297  52.256  1.00  0.00     0.272 C 
BRANCH  14  15
HETATM   15  N1  UNL     1      23.303   3.395  50.813  1.00  0.00    -0.372 N 
HETATM   16  H4  UNL     1      22.624   3.040  50.105  1.00  0.00     0.161 HD
BRANCH  15  17
HETATM   17  C5  UNL     1      24.449   4.046  50.281  1.00  0.00     0.030 A 
HETATM   18  C4  UNL     1      25.511   3.383  49.690  1.00  0.00     0.029 A 
HETATM   19  C3  UNL     1      26.617   4.038  49.178  1.00  0.00     0.004 A 
HETATM   20  C2  UNL     1      26.675   5.401  49.253  1.00  0.00     0.019 A 
HETATM   21  C1  UNL     1      25.662   6.138  49.825  1.00  0.00     0.013 A 
HETATM   22 BR1  UNL     1      25.674   8.050  49.966  1.00  0.00    -0.051 Br
HETATM   23  C15 UNL     1      24.604   5.433  50.308  1.00  0.00     0.048 A 
ENDBRANCH  15  17
ENDBRANCH  14  15
ENDBRANCH   1  14
TORSDOF 3
ENDMDL
MODEL 5
REMARK VINA RESULT:      -7.3      3.292      5.616
REMARK  3 active torsions:
REMARK  status: ('A' for Active; 'I' for Inactive)
REMARK    1  A    between atoms: C5_6  and  N1_7 
REMARK    2  A    between atoms: N1_7  and  C6_8 
REMARK    3  A    between atoms: C6_8  and  N2_9 
ROOT
HETATM    1  N2  UNL     1      23.519   3.576  51.297  1.00  0.00    -0.254 NA
HETATM    2  C7  UNL     1      24.365   4.531  50.994  1.00  0.00     0.153 C 
HETATM    3  C8  UNL     1      23.880   5.833  51.541  1.00  0.00     0.349 C 
HETATM    4  N3  UNL     1      24.840   6.863  51.152  1.00  0.00     0.091 N 
HETATM    5  C9  UNL     1      24.807   7.109  49.729  1.00  0.00     0.283 C 
HETATM    6  C10 UNL     1      25.865   6.419  48.941  1.00  0.00     0.094 C 
HETATM    7  C11 UNL     1      27.145   7.229  48.839  1.00  0.00     0.043 C 
HETATM    8  C12 UNL     1      28.262   6.411  48.316  1.00  0.00    -0.001 C 
HETATM    9  C13 UNL     1      28.271   5.087  48.349  1.00  0.00     0.140 C 
HETATM   10  O1  UNL     1      27.223   4.351  48.883  1.00  0.00    -0.308 OA
HETATM   11  C14 UNL     1      26.128   5.030  49.401  1.00  0.00     0.153 C 
HETATM   12  N4  UNL     1      25.532   4.220  50.245  1.00  0.00    -0.211 NA
HETATM   13  H9  UNL     1      25.773   6.567  51.488  1.00  0.00     0.316 HD
ENDROOT
BRANCH   1  14
HETATM   14  C6  UNL     1      23.689   2.214  50.921  1.00  0.00     0.272 C 
BRANCH  14  15
HETATM   15  N1  UNL     1      24.894   1.710  51.550  1.00  0.00    -0.372 N 
HETATM   16  H4  UNL     1      25.881   1.929  51.296  1.00  0.00     0.161 HD
BRANCH  15  17
HETATM   17  C5  UNL     1      24.732   0.811  52.639  1.00  0.00     0.030 A 
HETATM   18  C4  UNL     1      25.767   0.393  53.457  1.00  0.00     0.029 A 
HETATM   19  C3  UNL     1      25.585  -0.483  54.513  1.00  0.00     0.004 A 
HETATM   20  C2  UNL     1      24.332  -0.962  54.770  1.00  0.00     0.019 A 
HETATM   21  C1  UNL     1      23.247  -0.598  54.005  1.00  0.00     0.013 A 
HETATM   22 BR1  UNL     1      21.462  -1.229  54.305  1.00  0.00    -0.051 Br
HETATM   23  C15 UNL     1      23.494   0.265  52.984  1.00  0.00     0.048 A 
ENDBRANCH  15  17
ENDBRANCH  14  15
ENDBRANCH   1  14
TORSDOF 3
ENDMDL
MODEL 6
REMARK VINA RESULT:      -7.2      3.257      5.542
REMARK  3 active torsions:
REMARK  status: ('A' for Active; 'I' for Inactive)
REMARK    1  A    between atoms: C5_6  and  N1_7 
REMARK    2  A    between atoms: N1_7  and  C6_8 
REMARK    3  A    between atoms: C6_8  and  N2_9 
ROOT
HETATM    1  N2  UNL     1      23.676   3.695  51.235  1.00  0.00    -0.254 NA
HETATM    2  C7  UNL     1      24.530   4.635  50.911  1.00  0.00     0.153 C 
HETATM    3  C8  UNL     1      24.034   5.960  51.387  1.00  0.00     0.349 C 
HETATM    4  N3  UNL     1      25.004   6.971  50.977  1.00  0.00     0.091 N 
HETATM    5  C9  UNL     1      25.008   7.153  49.543  1.00  0.00     0.283 C 
HETATM    6  C10 UNL     1      26.085   6.428  48.814  1.00  0.00     0.094 C 
HETATM    7  C11 UNL     1      27.368   7.232  48.709  1.00  0.00     0.043 C 
HETATM    8  C12 UNL     1      28.496   6.391  48.252  1.00  0.00    -0.001 C 
HETATM    9  C13 UNL     1      28.503   5.070  48.344  1.00  0.00     0.140 C 
HETATM   10  O1  UNL     1      27.440   4.359  48.884  1.00  0.00    -0.308 OA
HETATM   11  C14 UNL     1      26.333   5.061  49.343  1.00  0.00     0.153 C 
HETATM   12  N4  UNL     1      25.716   4.290  50.207  1.00  0.00    -0.211 NA
HETATM   13  H9  UNL     1      25.928   6.690  51.349  1.00  0.00     0.316 HD
ENDROOT
BRANCH   1  14
HETATM   14  C6  UNL     1      23.853   2.317  50.926  1.00  0.00     0.272 C 
BRANCH  14  15
HETATM   15  N1  UNL     1      23.505   1.534  52.096  1.00  0.00    -0.372 N 
HETATM   16  H4  UNL     1      22.549   1.292  52.437  1.00  0.00     0.161 HD
BRANCH  15  17
HETATM   17  C5  UNL     1      24.575   1.030  52.883  1.00  0.00     0.030 A 
HETATM   18  C4  UNL     1      24.499  -0.121  53.648  1.00  0.00     0.029 A 
HETATM   19  C3  UNL     1      25.555  -0.593  54.407  1.00  0.00     0.004 A 
HETATM   20  C2  UNL     1      26.733   0.100  54.409  1.00  0.00     0.019 A 
HETATM   21  C1  UNL     1      26.894   1.254  53.676  1.00  0.00     0.013 A 
HETATM   22 BR1  UNL     1      28.515   2.278  53.631  1.00  0.00    -0.051 Br
HETATM   23  C15 UNL     1      25.818   1.663  52.953  1.00  0.00     0.048 A 
ENDBRANCH  15  17
ENDBRANCH  14  15
ENDBRANCH   1  14
TORSDOF 3
ENDMDL
MODEL 7
REMARK VINA RESULT:      -7.2      4.349      6.363
REMARK  3 active torsions:
REMARK  status: ('A' for Active; 'I' for Inactive)
REMARK    1  A    between atoms: C5_6  and  N1_7 
REMARK    2  A    between atoms: N1_7  and  C6_8 
REMARK    3  A    between atoms: C6_8  and  N2_9 
ROOT
HETATM    1  N2  UNL     1      25.867   3.741  49.734  1.00  0.00    -0.254 NA
HETATM    2  C7  UNL     1      25.839   2.859  50.703  1.00  0.00     0.153 C 
HETATM    3  C8  UNL     1      24.432   2.437  50.968  1.00  0.00     0.349 C 
HETATM    4  N3  UNL     1      24.455   1.479  52.070  1.00  0.00     0.091 N 
HETATM    5  C9  UNL     1      24.814   2.113  53.317  1.00  0.00     0.283 C 
HETATM    6  C10 UNL     1      26.241   1.968  53.716  1.00  0.00     0.094 C 
HETATM    7  C11 UNL     1      26.501   0.709  54.523  1.00  0.00     0.043 C 
HETATM    8  C12 UNL     1      27.950   0.439  54.650  1.00  0.00    -0.001 C 
HETATM    9  C13 UNL     1      28.859   0.946  53.831  1.00  0.00     0.140 C 
HETATM   10  O1  UNL     1      28.522   1.782  52.776  1.00  0.00    -0.308 OA
HETATM   11  C14 UNL     1      27.184   2.095  52.574  1.00  0.00     0.153 C 
HETATM   12  N4  UNL     1      27.056   2.458  51.319  1.00  0.00    -0.211 NA
HETATM   13  H9  UNL     1      25.099   0.713  51.808  1.00  0.00     0.316 HD
ENDROOT
BRANCH   1  14
HETATM   14  C6  UNL     1      27.058   4.344  49.240  1.00  0.00     0.272 C 
BRANCH  14  15
HETATM   15  N1  UNL     1      26.910   5.785  49.314  1.00  0.00    -0.372 N 
HETATM   16  H4  UNL     1      26.347   6.330  50.002  1.00  0.00     0.161 HD
BRANCH  15  17
HETATM   17  C5  UNL     1      27.604   6.560  48.346  1.00  0.00     0.030 A 
HETATM   18  C4  UNL     1      27.016   7.555  47.585  1.00  0.00     0.029 A 
HETATM   19  C3  UNL     1      27.712   8.298  46.648  1.00  0.00     0.004 A 
HETATM   20  C2  UNL     1      29.041   8.047  46.457  1.00  0.00     0.019 A 
HETATM   21  C1  UNL     1      29.704   7.075  47.172  1.00  0.00     0.013 A 
HETATM   22 BR1  UNL     1      31.566   6.667  46.958  1.00  0.00    -0.051 Br
HETATM   23  C15 UNL     1      28.962   6.382  48.076  1.00  0.00     0.048 A 
ENDBRANCH  15  17
ENDBRANCH  14  15
ENDBRANCH   1  14
TORSDOF 3
ENDMDL
MODEL 8
REMARK VINA RESULT:      -7.2      4.576      6.573
REMARK  3 active torsions:
REMARK  status: ('A' for Active; 'I' for Inactive)
REMARK    1  A    between atoms: C5_6  and  N1_7 
REMARK    2  A    between atoms: N1_7  and  C6_8 
REMARK    3  A    between atoms: C6_8  and  N2_9 
ROOT
HETATM    1  N2  UNL     1      25.826   3.620  49.746  1.00  0.00    -0.254 NA
HETATM    2  C7  UNL     1      25.826   2.762  50.736  1.00  0.00     0.153 C 
HETATM    3  C8  UNL     1      24.428   2.332  51.038  1.00  0.00     0.349 C 
HETATM    4  N3  UNL     1      24.483   1.402  52.163  1.00  0.00     0.091 N 
HETATM    5  C9  UNL     1      24.859   2.071  53.387  1.00  0.00     0.283 C 
HETATM    6  C10 UNL     1      26.295   1.950  53.761  1.00  0.00     0.094 C 
HETATM    7  C11 UNL     1      26.584   0.713  54.593  1.00  0.00     0.043 C 
HETATM    8  C12 UNL     1      28.038   0.460  54.698  1.00  0.00    -0.001 C 
HETATM    9  C13 UNL     1      28.925   0.957  53.850  1.00  0.00     0.140 C 
HETATM   10  O1  UNL     1      28.560   1.763  52.781  1.00  0.00    -0.308 OA
HETATM   11  C14 UNL     1      27.215   2.057  52.598  1.00  0.00     0.153 C 
HETATM   12  N4  UNL     1      27.059   2.388  51.337  1.00  0.00    -0.211 NA
HETATM   13  H9  UNL     1      25.130   0.637  51.907  1.00  0.00     0.316 HD
ENDROOT
BRANCH   1  14
HETATM   14  C6  UNL     1      27.000   4.223  49.213  1.00  0.00     0.272 C 
BRANCH  14  15
HETATM   15  N1  UNL     1      26.945   5.648  49.473  1.00  0.00    -0.372 N 
HETATM   16  H4  UNL     1      26.630   6.122  50.347  1.00  0.00     0.161 HD
BRANCH  15  17
HETATM   17  C5  UNL     1      27.366   6.516  48.429  1.00  0.00     0.030 A 
HETATM   18  C4  UNL     1      28.661   6.572  47.945  1.00  0.00     0.029 A 
HETATM   19  C3  UNL     1      29.049   7.425  46.927  1.00  0.00     0.004 A 
HETATM   20  C2  UNL     1      28.119   8.254  46.366  1.00  0.00     0.019 A 
HETATM   21  C1  UNL     1      26.809   8.263  46.788  1.00  0.00     0.013 A 
HETATM   22 BR1  UNL     1      25.450   9.397  46.050  1.00  0.00    -0.051 Br
HETATM   23  C15 UNL     1      26.495   7.400  47.792  1.00  0.00     0.048 A 
ENDBRANCH  15  17
ENDBRANCH  14  15
ENDBRANCH   1  14
TORSDOF 3
ENDMDL
MODEL 9
REMARK VINA RESULT:      -7.0      6.575      9.789
REMARK  3 active torsions:
REMARK  status: ('A' for Active; 'I' for Inactive)
REMARK    1  A    between atoms: C5_6  and  N1_7 
REMARK    2  A    between atoms: N1_7  and  C6_8 
REMARK    3  A    between atoms: C6_8  and  N2_9 
ROOT
HETATM    1  N2  UNL     1      29.602   6.847  48.363  1.00  0.00    -0.254 NA
HETATM    2  C7  UNL     1      30.847   6.471  48.527  1.00  0.00     0.153 C 
HETATM    3  C8  UNL     1      31.681   7.638  48.939  1.00  0.00     0.349 C 
HETATM    4  N3  UNL     1      33.058   7.173  49.080  1.00  0.00     0.091 N 
HETATM    5  C9  UNL     1      33.636   6.832  47.800  1.00  0.00     0.283 C 
HETATM    6  C10 UNL     1      33.624   5.382  47.464  1.00  0.00     0.094 C 
HETATM    7  C11 UNL     1      34.850   4.649  47.977  1.00  0.00     0.043 C 
HETATM    8  C12 UNL     1      34.676   3.181  47.894  1.00  0.00    -0.001 C 
HETATM    9  C13 UNL     1      33.493   2.593  47.807  1.00  0.00     0.140 C 
HETATM   10  O1  UNL     1      32.307   3.312  47.788  1.00  0.00    -0.308 OA
HETATM   11  C14 UNL     1      32.366   4.698  47.863  1.00  0.00     0.153 C 
HETATM   12  N4  UNL     1      31.202   5.112  48.306  1.00  0.00    -0.211 NA
HETATM   13  H9  UNL     1      33.056   6.380  49.744  1.00  0.00     0.316 HD
ENDROOT
BRANCH   1  14
HETATM   14  C6  UNL     1      28.550   5.971  47.971  1.00  0.00     0.272 C 
BRANCH  14  15
HETATM   15  N1  UNL     1      28.088   5.253  49.142  1.00  0.00    -0.372 N 
HETATM   16  H4  UNL     1      28.645   4.979  49.980  1.00  0.00     0.161 HD
BRANCH  15  17
HETATM   17  C5  UNL     1      26.720   4.868  49.170  1.00  0.00     0.030 A 
HETATM   18  C4  UNL     1      26.279   3.603  49.516  1.00  0.00     0.029 A 
HETATM   19  C3  UNL     1      24.941   3.251  49.537  1.00  0.00     0.004 A 
HETATM   20  C2  UNL     1      24.003   4.187  49.203  1.00  0.00     0.019 A 
HETATM   21  C1  UNL     1      24.355   5.469  48.847  1.00  0.00     0.013 A 
HETATM   22 BR1  UNL     1      23.097   6.834  48.367  1.00  0.00    -0.051 Br
HETATM   23  C15 UNL     1      25.686   5.749  48.847  1.00  0.00     0.048 A 
ENDBRANCH  15  17
ENDBRANCH  14  15
ENDBRANCH   1  14
TORSDOF 3
ENDMDL
