MODEL 1
REMARK VINA RESULT:      -7.6      0.000      0.000
REMARK  3 active torsions:
REMARK  status: ('A' for Active; 'I' for Inactive)
REMARK    1  A    between atoms: C7_8  and  N2_9 
REMARK    2  A    between atoms: N2_9  and  C8_10 
REMARK    3  A    between atoms: C8_10  and  C9_11 
ROOT
HETATM    1  C1  UNL     1      29.250   1.156  53.683  1.00  0.00     0.021 C 
HETATM    2  C2  UNL     1      28.143   0.156  53.693  1.00  0.00    -0.002 C 
HETATM    3  C3  UNL     1      28.517  -1.178  53.093  1.00  0.00     0.021 C 
HETATM    4  C4  UNL     1      27.560  -0.075  55.075  1.00  0.00     0.133 C 
HETATM    5  N1  UNL     1      26.221  -0.567  54.726  1.00  0.00    -0.388 N 
HETATM    6  C5  UNL     1      25.767   0.190  53.593  1.00  0.00     0.037 A 
HETATM    7  C6  UNL     1      24.521   0.500  53.103  1.00  0.00     0.058 A 
HETATM    8  C7  UNL     1      24.380   1.269  51.957  1.00  0.00     0.030 A 
HETATM    9  C15 UNL     1      25.549   1.710  51.325  1.00  0.00     0.030 A 
HETATM   10  C16 UNL     1      26.787   1.381  51.842  1.00  0.00     0.012 A 
HETATM   11  C17 UNL     1      26.919   0.626  52.968  1.00  0.00    -0.022 A 
HETATM   12  H9  UNL     1      25.644  -1.327  55.181  1.00  0.00     0.159 HD
ENDROOT
BRANCH   8  13
HETATM   13  N2  UNL     1      23.094   1.621  51.404  1.00  0.00    -0.384 N 
HETATM   14  H11 UNL     1      22.996   1.470  50.375  1.00  0.00     0.160 HD
BRANCH  13  15
HETATM   15  C8  UNL     1      22.061   2.147  52.312  1.00  0.00     0.177 C 
BRANCH  15  16
HETATM   16  C9  UNL     1      20.896   1.272  52.194  1.00  0.00     0.033 C 
HETATM   17  C10 UNL     1      19.863   0.996  51.392  1.00  0.00     0.027 C 
HETATM   18  C11 UNL     1      18.813  -0.021  51.660  1.00  0.00     0.000 C 
HETATM   19  C12 UNL     1      18.811  -0.746  52.796  1.00  0.00     0.008 C 
HETATM   20  C13 UNL     1      19.835  -0.549  53.838  1.00  0.00     0.208 A 
HETATM   21  C14 UNL     1      21.148  -1.050  53.962  1.00  0.00     0.252 A 
HETATM   22  N3  UNL     1      20.927   0.124  53.093  1.00  0.00    -0.301 N 
HETATM   23  O1  UNL     1      21.866  -1.929  54.501  1.00  0.00    -0.270 OA
ENDBRANCH  15  16
ENDBRANCH  13  15
ENDBRANCH   8  13
TORSDOF 3
ENDMDL
MODEL 2
REMARK VINA RESULT:      -7.6      2.142      6.678
REMARK  3 active torsions:
REMARK  status: ('A' for Active; 'I' for Inactive)
REMARK    1  A    between atoms: C7_8  and  N2_9 
REMARK    2  A    between atoms: N2_9  and  C8_10 
REMARK    3  A    between atoms: C8_10  and  C9_11 
ROOT
HETATM    1  C1  UNL     1      20.655   2.341  52.563  1.00  0.00     0.021 C 
HETATM    2  C2  UNL     1      21.610   1.734  51.589  1.00  0.00    -0.002 C 
HETATM    3  C3  UNL     1      21.454   0.241  51.427  1.00  0.00     0.021 C 
HETATM    4  C4  UNL     1      21.558   2.385  50.219  1.00  0.00     0.133 C 
HETATM    5  N1  UNL     1      22.896   2.056  49.712  1.00  0.00    -0.388 N 
HETATM    6  C5  UNL     1      23.814   2.174  50.811  1.00  0.00     0.037 A 
HETATM    7  C6  UNL     1      25.164   2.417  50.890  1.00  0.00     0.058 A 
HETATM    8  C7  UNL     1      25.803   2.477  52.120  1.00  0.00     0.030 A 
HETATM    9  C15 UNL     1      25.022   2.281  53.266  1.00  0.00     0.030 A 
HETATM   10  C16 UNL     1      23.667   2.039  53.152  1.00  0.00     0.012 A 
HETATM   11  C17 UNL     1      23.045   1.981  51.942  1.00  0.00    -0.022 A 
HETATM   12  H9  UNL     1      23.197   1.779  48.737  1.00  0.00     0.159 HD
ENDROOT
BRANCH   8  13
HETATM   13  N2  UNL     1      27.218   2.729  52.256  1.00  0.00    -0.384 N 
HETATM   14  H11 UNL     1      27.690   3.084  51.394  1.00  0.00     0.160 HD
BRANCH  13  15
HETATM   15  C8  UNL     1      27.854   2.472  53.558  1.00  0.00     0.177 C 
BRANCH  15  16
HETATM   16  C9  UNL     1      28.461   1.145  53.489  1.00  0.00     0.033 C 
HETATM   17  C10 UNL     1      29.639   0.519  53.576  1.00  0.00     0.027 C 
HETATM   18  C11 UNL     1      29.852  -0.942  53.410  1.00  0.00     0.000 C 
HETATM   19  C12 UNL     1      28.832  -1.771  53.116  1.00  0.00     0.008 C 
HETATM   20  C13 UNL     1      27.461  -1.268  52.921  1.00  0.00     0.208 A 
HETATM   21  C14 UNL     1      26.444  -0.949  53.845  1.00  0.00     0.252 A 
HETATM   22  N3  UNL     1      27.503   0.051  53.599  1.00  0.00    -0.301 N 
HETATM   23  O1  UNL     1      25.394  -1.359  54.401  1.00  0.00    -0.270 OA
ENDBRANCH  15  16
ENDBRANCH  13  15
ENDBRANCH   8  13
TORSDOF 3
ENDMDL
MODEL 3
REMARK VINA RESULT:      -7.6      4.353      6.567
REMARK  3 active torsions:
REMARK  status: ('A' for Active; 'I' for Inactive)
REMARK    1  A    between atoms: C7_8  and  N2_9 
REMARK    2  A    between atoms: N2_9  and  C8_10 
REMARK    3  A    between atoms: C8_10  and  C9_11 
ROOT
HETATM    1  C1  UNL     1      28.104  -0.059  53.992  1.00  0.00     0.021 C 
HETATM    2  C2  UNL     1      26.781  -0.382  53.381  1.00  0.00    -0.002 C 
HETATM    3  C3  UNL     1      26.795  -1.613  52.506  1.00  0.00     0.021 C 
HETATM    4  C4  UNL     1      25.669  -0.520  54.404  1.00  0.00     0.133 C 
HETATM    5  N1  UNL     1      24.495  -0.236  53.570  1.00  0.00    -0.388 N 
HETATM    6  C5  UNL     1      24.858   0.817  52.663  1.00  0.00     0.037 A 
HETATM    7  C6  UNL     1      24.134   1.768  51.984  1.00  0.00     0.058 A 
HETATM    8  C7  UNL     1      24.766   2.682  51.154  1.00  0.00     0.030 A 
HETATM    9  C15 UNL     1      26.158   2.596  51.037  1.00  0.00     0.030 A 
HETATM   10  C16 UNL     1      26.857   1.628  51.732  1.00  0.00     0.012 A 
HETATM   11  C17 UNL     1      26.231   0.734  52.546  1.00  0.00    -0.022 A 
HETATM   12  H9  UNL     1      23.537  -0.682  53.583  1.00  0.00     0.159 HD
ENDROOT
BRANCH   8  13
HETATM   13  N2  UNL     1      24.050   3.699  50.420  1.00  0.00    -0.384 N 
HETATM   14  H11 UNL     1      23.159   4.020  50.861  1.00  0.00     0.160 HD
BRANCH  13  15
HETATM   15  C8  UNL     1      24.622   4.182  49.153  1.00  0.00     0.177 C 
BRANCH  15  16
HETATM   16  C9  UNL     1      25.241   5.478  49.425  1.00  0.00     0.033 C 
HETATM   17  C10 UNL     1      25.109   6.570  50.184  1.00  0.00     0.027 C 
HETATM   18  C11 UNL     1      25.996   7.762  50.138  1.00  0.00     0.000 C 
HETATM   19  C12 UNL     1      27.021   7.842  49.268  1.00  0.00     0.008 C 
HETATM   20  C13 UNL     1      27.299   6.763  48.303  1.00  0.00     0.208 A 
HETATM   21  C14 UNL     1      27.999   5.546  48.441  1.00  0.00     0.252 A 
HETATM   22  N3  UNL     1      26.599   5.603  48.907  1.00  0.00    -0.301 N 
HETATM   23  O1  UNL     1      29.094   4.963  48.244  1.00  0.00    -0.270 OA
ENDBRANCH  15  16
ENDBRANCH  13  15
ENDBRANCH   8  13
TORSDOF 3
ENDMDL
MODEL 4
REMARK VINA RESULT:      -7.5      2.524      7.428
REMARK  3 active torsions:
REMARK  status: ('A' for Active; 'I' for Inactive)
REMARK    1  A    between atoms: C7_8  and  N2_9 
REMARK    2  A    between atoms: N2_9  and  C8_10 
REMARK    3  A    between atoms: C8_10  and  C9_11 
ROOT
HETATM    1  C1  UNL     1      18.491   0.259  51.907  1.00  0.00     0.021 C 
HETATM    2  C2  UNL     1      19.472   1.241  51.356  1.00  0.00    -0.002 C 
HETATM    3  C3  UNL     1      19.536   1.261  49.848  1.00  0.00     0.021 C 
HETATM    4  C4  UNL     1      19.245   2.655  51.856  1.00  0.00     0.133 C 
HETATM    5  N1  UNL     1      20.587   3.224  51.681  1.00  0.00    -0.388 N 
HETATM    6  C5  UNL     1      21.535   2.206  52.038  1.00  0.00     0.037 A 
HETATM    7  C6  UNL     1      22.835   2.242  52.483  1.00  0.00     0.058 A 
HETATM    8  C7  UNL     1      23.525   1.070  52.755  1.00  0.00     0.030 A 
HETATM    9  C15 UNL     1      22.848  -0.140  52.558  1.00  0.00     0.030 A 
HETATM   10  C16 UNL     1      21.542  -0.143  52.110  1.00  0.00     0.012 A 
HETATM   11  C17 UNL     1      20.870   1.012  51.845  1.00  0.00    -0.022 A 
HETATM   12  H9  UNL     1      20.872   4.190  51.358  1.00  0.00     0.159 HD
ENDROOT
BRANCH   8  13
HETATM   13  N2  UNL     1      24.890   1.055  53.224  1.00  0.00    -0.384 N 
HETATM   14  H11 UNL     1      25.511   1.783  52.805  1.00  0.00     0.160 HD
BRANCH  13  15
HETATM   15  C8  UNL     1      25.277   0.046  54.224  1.00  0.00     0.177 C 
BRANCH  15  16
HETATM   16  C9  UNL     1      26.545  -0.533  53.785  1.00  0.00     0.033 C 
HETATM   17  C10 UNL     1      27.051  -1.478  52.986  1.00  0.00     0.027 C 
HETATM   18  C11 UNL     1      28.496  -1.787  52.828  1.00  0.00     0.000 C 
HETATM   19  C12 UNL     1      29.436  -1.130  53.533  1.00  0.00     0.008 C 
HETATM   20  C13 UNL     1      29.078  -0.089  54.513  1.00  0.00     0.208 A 
HETATM   21  C14 UNL     1      28.775   1.280  54.352  1.00  0.00     0.252 A 
HETATM   22  N3  UNL     1      27.707   0.292  54.091  1.00  0.00    -0.301 N 
HETATM   23  O1  UNL     1      29.230   2.448  54.423  1.00  0.00    -0.270 OA
ENDBRANCH  15  16
ENDBRANCH  13  15
ENDBRANCH   8  13
TORSDOF 3
ENDMDL
MODEL 5
REMARK VINA RESULT:      -7.5      1.879      2.700
REMARK  3 active torsions:
REMARK  status: ('A' for Active; 'I' for Inactive)
REMARK    1  A    between atoms: C7_8  and  N2_9 
REMARK    2  A    between atoms: N2_9  and  C8_10 
REMARK    3  A    between atoms: C8_10  and  C9_11 
ROOT
HETATM    1  C1  UNL     1      26.937   1.871  52.641  1.00  0.00     0.021 C 
HETATM    2  C2  UNL     1      26.591   0.507  53.138  1.00  0.00    -0.002 C 
HETATM    3  C3  UNL     1      27.210  -0.613  52.336  1.00  0.00     0.021 C 
HETATM    4  C4  UNL     1      26.926   0.304  54.604  1.00  0.00     0.133 C 
HETATM    5  N1  UNL     1      25.997  -0.781  54.947  1.00  0.00    -0.388 N 
HETATM    6  C5  UNL     1      24.764  -0.524  54.257  1.00  0.00     0.037 A 
HETATM    7  C6  UNL     1      23.459  -0.889  54.490  1.00  0.00     0.058 A 
HETATM    8  C7  UNL     1      22.446  -0.487  53.632  1.00  0.00     0.030 A 
HETATM    9  C15 UNL     1      22.805   0.297  52.529  1.00  0.00     0.030 A 
HETATM   10  C16 UNL     1      24.125   0.647  52.322  1.00  0.00     0.012 A 
HETATM   11  C17 UNL     1      25.115   0.250  53.169  1.00  0.00    -0.022 A 
HETATM   12  H9  UNL     1      26.143  -1.618  55.575  1.00  0.00     0.159 HD
ENDROOT
BRANCH   8  13
HETATM   13  N2  UNL     1      21.062  -0.844  53.833  1.00  0.00    -0.384 N 
HETATM   14  H11 UNL     1      20.874  -1.868  53.912  1.00  0.00     0.160 HD
BRANCH  13  15
HETATM   15  C8  UNL     1      20.064   0.236  53.910  1.00  0.00     0.177 C 
BRANCH  15  16
HETATM   16  C9  UNL     1      19.115   0.025  52.818  1.00  0.00     0.033 C 
HETATM   17  C10 UNL     1      18.886   0.353  51.543  1.00  0.00     0.027 C 
HETATM   18  C11 UNL     1      17.712  -0.079  50.741  1.00  0.00     0.000 C 
HETATM   19  C12 UNL     1      16.737  -0.839  51.275  1.00  0.00     0.008 C 
HETATM   20  C13 UNL     1      16.774  -1.259  52.687  1.00  0.00     0.208 A 
HETATM   21  C14 UNL     1      17.442  -2.326  53.326  1.00  0.00     0.252 A 
HETATM   22  N3  UNL     1      18.208  -1.097  53.034  1.00  0.00    -0.301 N 
HETATM   23  O1  UNL     1      17.319  -3.491  53.778  1.00  0.00    -0.270 OA
ENDBRANCH  15  16
ENDBRANCH  13  15
ENDBRANCH   8  13
TORSDOF 3
ENDMDL
MODEL 6
REMARK VINA RESULT:      -7.4      2.080      2.737
REMARK  3 active torsions:
REMARK  status: ('A' for Active; 'I' for Inactive)
REMARK    1  A    between atoms: C7_8  and  N2_9 
REMARK    2  A    between atoms: N2_9  and  C8_10 
REMARK    3  A    between atoms: C8_10  and  C9_11 
ROOT
HETATM    1  C1  UNL     1      28.790  -0.801  53.107  1.00  0.00     0.021 C 
HETATM    2  C2  UNL     1      28.156   0.328  53.849  1.00  0.00    -0.002 C 
HETATM    3  C3  UNL     1      28.277   0.219  55.350  1.00  0.00     0.021 C 
HETATM    4  C4  UNL     1      28.665   1.690  53.414  1.00  0.00     0.133 C 
HETATM    5  N1  UNL     1      27.537   2.541  53.810  1.00  0.00    -0.388 N 
HETATM    6  C5  UNL     1      26.330   1.816  53.523  1.00  0.00     0.037 A 
HETATM    7  C6  UNL     1      25.037   2.202  53.264  1.00  0.00     0.058 A 
HETATM    8  C7  UNL     1      24.051   1.259  53.016  1.00  0.00     0.030 A 
HETATM    9  C15 UNL     1      24.425  -0.090  53.039  1.00  0.00     0.030 A 
HETATM   10  C16 UNL     1      25.733  -0.446  53.302  1.00  0.00     0.012 A 
HETATM   11  C17 UNL     1      26.697   0.485  53.545  1.00  0.00    -0.022 A 
HETATM   12  H9  UNL     1      27.540   3.511  54.230  1.00  0.00     0.159 HD
ENDROOT
BRANCH   8  13
HETATM   13  N2  UNL     1      22.679   1.614  52.739  1.00  0.00    -0.384 N 
HETATM   14  H11 UNL     1      22.267   2.328  53.381  1.00  0.00     0.160 HD
BRANCH  13  15
HETATM   15  C8  UNL     1      21.999   0.958  51.610  1.00  0.00     0.177 C 
BRANCH  15  16
HETATM   16  C9  UNL     1      20.798   0.318  52.142  1.00  0.00     0.033 C 
HETATM   17  C10 UNL     1      20.355  -0.388  53.187  1.00  0.00     0.027 C 
HETATM   18  C11 UNL     1      18.973  -0.909  53.350  1.00  0.00     0.000 C 
HETATM   19  C12 UNL     1      18.036  -0.725  52.400  1.00  0.00     0.008 C 
HETATM   20  C13 UNL     1      18.342  -0.019  51.143  1.00  0.00     0.208 A 
HETATM   21  C14 UNL     1      18.392   1.356  50.833  1.00  0.00     0.252 A 
HETATM   22  N3  UNL     1      19.565   0.745  51.492  1.00  0.00    -0.301 N 
HETATM   23  O1  UNL     1      17.763   2.319  50.327  1.00  0.00    -0.270 OA
ENDBRANCH  15  16
ENDBRANCH  13  15
ENDBRANCH   8  13
TORSDOF 3
ENDMDL
MODEL 7
REMARK VINA RESULT:      -7.4      3.600      5.617
REMARK  3 active torsions:
REMARK  status: ('A' for Active; 'I' for Inactive)
REMARK    1  A    between atoms: C7_8  and  N2_9 
REMARK    2  A    between atoms: N2_9  and  C8_10 
REMARK    3  A    between atoms: C8_10  and  C9_11 
ROOT
HETATM    1  C1  UNL     1      26.812  -1.080  52.933  1.00  0.00     0.021 C 
HETATM    2  C2  UNL     1      26.497   0.112  53.774  1.00  0.00    -0.002 C 
HETATM    3  C3  UNL     1      26.160  -0.221  55.207  1.00  0.00     0.021 C 
HETATM    4  C4  UNL     1      27.596   1.159  53.760  1.00  0.00     0.133 C 
HETATM    5  N1  UNL     1      26.830   2.361  54.112  1.00  0.00    -0.388 N 
HETATM    6  C5  UNL     1      25.561   2.273  53.445  1.00  0.00     0.037 A 
HETATM    7  C6  UNL     1      24.643   3.211  53.038  1.00  0.00     0.058 A 
HETATM    8  C7  UNL     1      23.472   2.828  52.400  1.00  0.00     0.030 A 
HETATM    9  C15 UNL     1      23.267   1.458  52.193  1.00  0.00     0.030 A 
HETATM   10  C16 UNL     1      24.208   0.541  52.614  1.00  0.00     0.012 A 
HETATM   11  C17 UNL     1      25.357   0.924  53.239  1.00  0.00    -0.022 A 
HETATM   12  H9  UNL     1      27.101   3.174  54.731  1.00  0.00     0.159 HD
ENDROOT
BRANCH   8  13
HETATM   13  N2  UNL     1      22.478   3.774  51.954  1.00  0.00    -0.384 N 
HETATM   14  H11 UNL     1      21.783   4.064  52.678  1.00  0.00     0.160 HD
BRANCH  13  15
HETATM   15  C8  UNL     1      22.528   4.237  50.557  1.00  0.00     0.177 C 
BRANCH  15  16
HETATM   16  C9  UNL     1      23.510   5.317  50.495  1.00  0.00     0.033 C 
HETATM   17  C10 UNL     1      23.752   6.549  50.954  1.00  0.00     0.027 C 
HETATM   18  C11 UNL     1      24.937   7.377  50.612  1.00  0.00     0.000 C 
HETATM   19  C12 UNL     1      25.876   6.939  49.751  1.00  0.00     0.008 C 
HETATM   20  C13 UNL     1      25.763   5.627  49.090  1.00  0.00     0.208 A 
HETATM   21  C14 UNL     1      26.093   4.328  49.530  1.00  0.00     0.252 A 
HETATM   22  N3  UNL     1      24.806   4.907  49.965  1.00  0.00    -0.301 N 
HETATM   23  O1  UNL     1      26.958   3.418  49.488  1.00  0.00    -0.270 OA
ENDBRANCH  15  16
ENDBRANCH  13  15
ENDBRANCH   8  13
TORSDOF 3
ENDMDL
MODEL 8
REMARK VINA RESULT:      -7.4      2.877      4.082
REMARK  3 active torsions:
REMARK  status: ('A' for Active; 'I' for Inactive)
REMARK    1  A    between atoms: C7_8  and  N2_9 
REMARK    2  A    between atoms: N2_9  and  C8_10 
REMARK    3  A    between atoms: C8_10  and  C9_11 
ROOT
HETATM    1  C1  UNL     1      27.302  -1.090  52.818  1.00  0.00     0.021 C 
HETATM    2  C2  UNL     1      26.824   0.186  53.428  1.00  0.00    -0.002 C 
HETATM    3  C3  UNL     1      27.102   0.298  54.908  1.00  0.00     0.021 C 
HETATM    4  C4  UNL     1      27.367   1.420  52.732  1.00  0.00     0.133 C 
HETATM    5  N1  UNL     1      26.343   2.409  53.096  1.00  0.00    -0.388 N 
HETATM    6  C5  UNL     1      25.070   1.746  53.049  1.00  0.00     0.037 A 
HETATM    7  C6  UNL     1      23.783   2.189  52.861  1.00  0.00     0.058 A 
HETATM    8  C7  UNL     1      22.718   1.299  52.865  1.00  0.00     0.030 A 
HETATM    9  C15 UNL     1      23.008  -0.056  53.068  1.00  0.00     0.030 A 
HETATM   10  C16 UNL     1      24.313  -0.469  53.254  1.00  0.00     0.012 A 
HETATM   11  C17 UNL     1      25.354   0.409  53.248  1.00  0.00    -0.022 A 
HETATM   12  H9  UNL     1      26.454   3.428  53.352  1.00  0.00     0.159 HD
ENDROOT
BRANCH   8  13
HETATM   13  N2  UNL     1      21.349   1.714  52.672  1.00  0.00    -0.384 N 
HETATM   14  H11 UNL     1      21.014   2.455  53.327  1.00  0.00     0.160 HD
BRANCH  13  15
HETATM   15  C8  UNL     1      20.568   1.077  51.599  1.00  0.00     0.177 C 
BRANCH  15  16
HETATM   16  C9  UNL     1      21.169   1.481  50.329  1.00  0.00     0.033 C 
HETATM   17  C10 UNL     1      21.450   1.024  49.105  1.00  0.00     0.027 C 
HETATM   18  C11 UNL     1      22.137   1.795  48.037  1.00  0.00     0.000 C 
HETATM   19  C12 UNL     1      22.573   3.053  48.246  1.00  0.00     0.008 C 
HETATM   20  C13 UNL     1      22.410   3.717  49.552  1.00  0.00     0.208 A 
HETATM   21  C14 UNL     1      21.314   4.399  50.122  1.00  0.00     0.252 A 
HETATM   22  N3  UNL     1      21.327   2.923  50.184  1.00  0.00    -0.301 N 
HETATM   23  O1  UNL     1      20.811   5.528  50.345  1.00  0.00    -0.270 OA
ENDBRANCH  15  16
ENDBRANCH  13  15
ENDBRANCH   8  13
TORSDOF 3
ENDMDL
MODEL 9
REMARK VINA RESULT:      -7.4      4.747      6.877
REMARK  3 active torsions:
REMARK  status: ('A' for Active; 'I' for Inactive)
REMARK    1  A    between atoms: C7_8  and  N2_9 
REMARK    2  A    between atoms: N2_9  and  C8_10 
REMARK    3  A    between atoms: C8_10  and  C9_11 
ROOT
HETATM    1  C1  UNL     1      26.144   9.165  49.380  1.00  0.00     0.021 C 
HETATM    2  C2  UNL     1      26.592   8.124  48.409  1.00  0.00    -0.002 C 
HETATM    3  C3  UNL     1      25.903   8.199  47.068  1.00  0.00     0.021 C 
HETATM    4  C4  UNL     1      28.094   8.121  48.189  1.00  0.00     0.133 C 
HETATM    5  N1  UNL     1      28.299   6.740  47.735  1.00  0.00    -0.388 N 
HETATM    6  C5  UNL     1      27.428   5.900  48.507  1.00  0.00     0.037 A 
HETATM    7  C6  UNL     1      27.462   4.570  48.853  1.00  0.00     0.058 A 
HETATM    8  C7  UNL     1      26.456   4.012  49.630  1.00  0.00     0.030 A 
HETATM    9  C15 UNL     1      25.415   4.853  50.042  1.00  0.00     0.030 A 
HETATM   10  C16 UNL     1      25.410   6.185  49.678  1.00  0.00     0.012 A 
HETATM   11  C17 UNL     1      26.400   6.727  48.915  1.00  0.00    -0.022 A 
HETATM   12  H9  UNL     1      28.948   6.366  46.989  1.00  0.00     0.159 HD
ENDROOT
BRANCH   8  13
HETATM   13  N2  UNL     1      26.448   2.622  50.019  1.00  0.00    -0.384 N 
HETATM   14  H11 UNL     1      26.243   1.947  49.249  1.00  0.00     0.160 HD
BRANCH  13  15
HETATM   15  C8  UNL     1      26.720   2.287  51.426  1.00  0.00     0.177 C 
BRANCH  15  16
HETATM   16  C9  UNL     1      25.556   1.563  51.931  1.00  0.00     0.033 C 
HETATM   17  C10 UNL     1      24.222   1.528  51.854  1.00  0.00     0.027 C 
HETATM   18  C11 UNL     1      23.341   0.588  52.595  1.00  0.00     0.000 C 
HETATM   19  C12 UNL     1      23.846  -0.315  53.458  1.00  0.00     0.008 C 
HETATM   20  C13 UNL     1      25.292  -0.399  53.727  1.00  0.00     0.208 A 
HETATM   21  C14 UNL     1      26.336  -1.039  53.027  1.00  0.00     0.252 A 
HETATM   22  N3  UNL     1      25.880   0.281  52.547  1.00  0.00    -0.301 N 
HETATM   23  O1  UNL     1      27.063  -2.063  52.977  1.00  0.00    -0.270 OA
ENDBRANCH  15  16
ENDBRANCH  13  15
ENDBRANCH   8  13
TORSDOF 3
ENDMDL
