MODEL 1
REMARK VINA RESULT:      -8.1      0.000      0.000
REMARK  8 active torsions:
REMARK  status: ('A' for Active; 'I' for Inactive)
REMARK    1  A    between atoms: O1_2  and  C2_3 
REMARK    2  A    between atoms: C6_9  and  N3_10 
REMARK    3  A    between atoms: N3_10  and  C7_11 
REMARK    4  A    between atoms: C15_21  and  O2_22 
REMARK    5  A    between atoms: O2_22  and  C16_23 
REMARK    6  A    between atoms: C16_23  and  C17_24 
REMARK    7  A    between atoms: C17_24  and  N4_25 
REMARK    8  A    between atoms: N4_25  and  C18_26 
ROOT
HETATM    1  C2  UNL     1      20.124   0.067  52.604  1.00  0.00     0.103 A 
HETATM    2  C3  UNL     1      20.456  -0.563  53.797  1.00  0.00     0.072 A 
HETATM    3  C4  UNL     1      21.768  -0.725  54.166  1.00  0.00     0.075 A 
HETATM    4  N1  UNL     1      22.121  -1.325  55.330  1.00  0.00    -0.241 NA
HETATM    5  C5  UNL     1      23.406  -1.477  55.695  1.00  0.00     0.236 A 
HETATM    6  N2  UNL     1      24.399  -1.014  54.875  1.00  0.00    -0.224 NA
HETATM    7  C6  UNL     1      24.076  -0.413  53.712  1.00  0.00     0.142 A 
HETATM    8  C13 UNL     1      22.768  -0.244  53.311  1.00  0.00     0.042 A 
HETATM    9  C14 UNL     1      22.398   0.370  52.140  1.00  0.00     0.057 A 
HETATM   10  C15 UNL     1      21.096   0.552  51.738  1.00  0.00     0.103 A 
ENDROOT
BRANCH   7  11
HETATM   11  N3  UNL     1      25.041   0.115  52.795  1.00  0.00    -0.340 N 
HETATM   12  H6  UNL     1      24.672   0.639  51.994  1.00  0.00     0.167 HD
BRANCH  11  13
HETATM   13  C7  UNL     1      26.428  -0.102  53.024  1.00  0.00     0.035 A 
HETATM   14  C8  UNL     1      27.065  -1.288  52.770  1.00  0.00     0.032 A 
HETATM   15  C9  UNL     1      28.433  -1.482  52.989  1.00  0.00     0.046 A 
HETATM   16  C10 UNL     1      29.165  -0.411  53.492  1.00  0.00     0.138 A 
HETATM   17  F1  UNL     1      30.503  -0.511  53.735  1.00  0.00    -0.204 F 
HETATM   18  C11 UNL     1      28.574   0.815  53.770  1.00  0.00     0.074 A 
HETATM   19 CL1  UNL     1      29.457   2.190  54.400  1.00  0.00    -0.081 Cl
HETATM   20  C12 UNL     1      27.218   0.905  53.518  1.00  0.00     0.056 A 
ENDBRANCH  11  13
ENDBRANCH   7  11
BRANCH  10  21
HETATM   21  O2  UNL     1      20.562   1.122  50.649  1.00  0.00    -0.347 OA
BRANCH  21  22
HETATM   22  C16 UNL     1      21.037   1.401  49.387  1.00  0.00     0.205 C 
BRANCH  22  23
HETATM   23  C17 UNL     1      21.731   2.733  49.225  1.00  0.00     0.297 C 
BRANCH  23  24
HETATM   24  N4  UNL     1      23.157   2.465  49.289  1.00  0.00     0.094 N 
HETATM   25  H15 UNL     1      23.578   2.205  48.394  1.00  0.00     0.316 HD
BRANCH  24  26
HETATM   26  C18 UNL     1      23.874   3.470  50.009  1.00  0.00     0.147 C 
HETATM   27  C19 UNL     1      23.025   3.956  51.156  1.00  0.00     0.048 C 
HETATM   28  C20 UNL     1      25.176   2.972  50.582  1.00  0.00     0.048 C 
HETATM   29  C21 UNL     1      24.192   4.630  49.094  1.00  0.00     0.048 C 
ENDBRANCH  24  26
ENDBRANCH  23  24
ENDBRANCH  22  23
ENDBRANCH  21  22
ENDBRANCH  10  21
BRANCH   1  30
HETATM   30  O1  UNL     1      18.760   0.152  52.374  1.00  0.00    -0.353 OA
HETATM   31  C1  UNL     1      17.873  -0.912  52.626  1.00  0.00     0.210 C 
ENDBRANCH   1  30
TORSDOF 8
ENDMDL
MODEL 2
REMARK VINA RESULT:      -8.0      1.009      1.574
REMARK  8 active torsions:
REMARK  status: ('A' for Active; 'I' for Inactive)
REMARK    1  A    between atoms: O1_2  and  C2_3 
REMARK    2  A    between atoms: C6_9  and  N3_10 
REMARK    3  A    between atoms: N3_10  and  C7_11 
REMARK    4  A    between atoms: C15_21  and  O2_22 
REMARK    5  A    between atoms: O2_22  and  C16_23 
REMARK    6  A    between atoms: C16_23  and  C17_24 
REMARK    7  A    between atoms: C17_24  and  N4_25 
REMARK    8  A    between atoms: N4_25  and  C18_26 
ROOT
HETATM    1  C2  UNL     1      19.984  -0.190  52.562  1.00  0.00     0.103 A 
HETATM    2  C3  UNL     1      20.401  -0.769  53.755  1.00  0.00     0.072 A 
HETATM    3  C4  UNL     1      21.731  -0.810  54.090  1.00  0.00     0.075 A 
HETATM    4  N1  UNL     1      22.166  -1.358  55.252  1.00  0.00    -0.241 NA
HETATM    5  C5  UNL     1      23.469  -1.390  55.583  1.00  0.00     0.236 A 
HETATM    6  N2  UNL     1      24.396  -0.854  54.731  1.00  0.00    -0.224 NA
HETATM    7  C6  UNL     1      23.991  -0.303  53.568  1.00  0.00     0.142 A 
HETATM    8  C13 UNL     1      22.663  -0.256  53.201  1.00  0.00     0.042 A 
HETATM    9  C14 UNL     1      22.210   0.305  52.033  1.00  0.00     0.057 A 
HETATM   10  C15 UNL     1      20.887   0.365  51.664  1.00  0.00     0.103 A 
ENDROOT
BRANCH   7  11
HETATM   11  N3  UNL     1      24.881   0.293  52.619  1.00  0.00    -0.340 N 
HETATM   12  H6  UNL     1      24.453   0.685  51.773  1.00  0.00     0.167 HD
BRANCH  11  13
HETATM   13  C7  UNL     1      26.279   0.318  52.878  1.00  0.00     0.035 A 
HETATM   14  C8  UNL     1      26.989   1.464  53.119  1.00  0.00     0.032 A 
HETATM   15  C9  UNL     1      28.363   1.470  53.385  1.00  0.00     0.046 A 
HETATM   16  C10 UNL     1      29.023   0.246  53.398  1.00  0.00     0.138 A 
HETATM   17  F1  UNL     1      30.361   0.158  53.649  1.00  0.00    -0.204 F 
HETATM   18  C11 UNL     1      28.357  -0.949  53.160  1.00  0.00     0.074 A 
HETATM   19 CL1  UNL     1      29.148  -2.512  53.169  1.00  0.00    -0.081 Cl
HETATM   20  C12 UNL     1      27.003  -0.848  52.908  1.00  0.00     0.056 A 
ENDBRANCH  11  13
ENDBRANCH   7  11
BRANCH  10  21
HETATM   21  O2  UNL     1      20.276   0.868  50.583  1.00  0.00    -0.347 OA
BRANCH  21  22
HETATM   22  C16 UNL     1      20.721   1.335  49.365  1.00  0.00     0.205 C 
BRANCH  22  23
HETATM   23  C17 UNL     1      21.357   2.705  49.378  1.00  0.00     0.297 C 
BRANCH  23  24
HETATM   24  N4  UNL     1      22.789   2.495  49.255  1.00  0.00     0.094 N 
HETATM   25  H15 UNL     1      23.092   2.189  48.327  1.00  0.00     0.316 HD
BRANCH  24  26
HETATM   26  C18 UNL     1      23.552   3.574  49.799  1.00  0.00     0.147 C 
HETATM   27  C19 UNL     1      25.012   3.194  49.801  1.00  0.00     0.048 C 
HETATM   28  C20 UNL     1      23.413   4.853  49.013  1.00  0.00     0.048 C 
HETATM   29  C21 UNL     1      23.106   3.857  51.215  1.00  0.00     0.048 C 
ENDBRANCH  24  26
ENDBRANCH  23  24
ENDBRANCH  22  23
ENDBRANCH  21  22
ENDBRANCH  10  21
BRANCH   1  30
HETATM   30  O1  UNL     1      18.612  -0.228  52.369  1.00  0.00    -0.353 OA
HETATM   31  C1  UNL     1      17.772  -1.146  53.027  1.00  0.00     0.210 C 
ENDBRANCH   1  30
TORSDOF 8
ENDMDL
MODEL 3
REMARK VINA RESULT:      -7.7      3.320      6.360
REMARK  8 active torsions:
REMARK  status: ('A' for Active; 'I' for Inactive)
REMARK    1  A    between atoms: O1_2  and  C2_3 
REMARK    2  A    between atoms: C6_9  and  N3_10 
REMARK    3  A    between atoms: N3_10  and  C7_11 
REMARK    4  A    between atoms: C15_21  and  O2_22 
REMARK    5  A    between atoms: O2_22  and  C16_23 
REMARK    6  A    between atoms: C16_23  and  C17_24 
REMARK    7  A    between atoms: C17_24  and  N4_25 
REMARK    8  A    between atoms: N4_25  and  C18_26 
ROOT
HETATM    1  C2  UNL     1      22.399  -0.091  52.622  1.00  0.00     0.103 A 
HETATM    2  C3  UNL     1      21.734   0.359  51.488  1.00  0.00     0.072 A 
HETATM    3  C4  UNL     1      22.291   1.315  50.678  1.00  0.00     0.075 A 
HETATM    4  N1  UNL     1      21.670   1.765  49.559  1.00  0.00    -0.241 NA
HETATM    5  C5  UNL     1      22.222   2.696  48.761  1.00  0.00     0.236 A 
HETATM    6  N2  UNL     1      23.449   3.213  49.075  1.00  0.00    -0.224 NA
HETATM    7  C6  UNL     1      24.089   2.784  50.182  1.00  0.00     0.142 A 
HETATM    8  C13 UNL     1      23.549   1.831  51.019  1.00  0.00     0.042 A 
HETATM    9  C14 UNL     1      24.172   1.361  52.149  1.00  0.00     0.057 A 
HETATM   10  C15 UNL     1      23.646   0.404  52.983  1.00  0.00     0.103 A 
ENDROOT
BRANCH   7  11
HETATM   11  N3  UNL     1      25.379   3.254  50.587  1.00  0.00    -0.340 N 
HETATM   12  H6  UNL     1      25.830   2.748  51.357  1.00  0.00     0.167 HD
BRANCH  11  13
HETATM   13  C7  UNL     1      25.966   4.369  49.927  1.00  0.00     0.035 A 
HETATM   14  C8  UNL     1      27.056   4.279  49.102  1.00  0.00     0.032 A 
HETATM   15  C9  UNL     1      27.614   5.383  48.450  1.00  0.00     0.046 A 
HETATM   16  C10 UNL     1      27.022   6.625  48.662  1.00  0.00     0.138 A 
HETATM   17  F1  UNL     1      27.499   7.755  48.065  1.00  0.00    -0.204 F 
HETATM   18  C11 UNL     1      25.915   6.779  49.487  1.00  0.00     0.074 A 
HETATM   19 CL1  UNL     1      25.138   8.320  49.778  1.00  0.00    -0.081 Cl
HETATM   20  C12 UNL     1      25.440   5.627  50.084  1.00  0.00     0.056 A 
ENDBRANCH  11  13
ENDBRANCH   7  11
BRANCH  10  21
HETATM   21  O2  UNL     1      24.107  -0.164  54.105  1.00  0.00    -0.347 OA
BRANCH  21  22
HETATM   22  C16 UNL     1      25.331  -0.668  54.487  1.00  0.00     0.205 C 
BRANCH  22  23
HETATM   23  C17 UNL     1      26.383   0.357  54.842  1.00  0.00     0.297 C 
BRANCH  23  24
HETATM   24  N4  UNL     1      27.658  -0.339  54.825  1.00  0.00     0.094 N 
HETATM   25  H15 UNL     1      27.582  -1.354  54.722  1.00  0.00     0.316 HD
BRANCH  24  26
HETATM   26  C18 UNL     1      28.607   0.274  53.951  1.00  0.00     0.147 C 
HETATM   27  C19 UNL     1      27.885   0.828  52.748  1.00  0.00     0.048 C 
HETATM   28  C20 UNL     1      29.360   1.410  54.597  1.00  0.00     0.048 C 
HETATM   29  C21 UNL     1      29.625  -0.748  53.497  1.00  0.00     0.048 C 
ENDBRANCH  24  26
ENDBRANCH  23  24
ENDBRANCH  22  23
ENDBRANCH  21  22
ENDBRANCH  10  21
BRANCH   1  30
HETATM   30  O1  UNL     1      21.705  -1.056  53.335  1.00  0.00    -0.353 OA
HETATM   31  C1  UNL     1      21.105  -0.802  54.583  1.00  0.00     0.210 C 
ENDBRANCH   1  30
TORSDOF 8
ENDMDL
MODEL 4
REMARK VINA RESULT:      -7.6      3.362      6.408
REMARK  8 active torsions:
REMARK  status: ('A' for Active; 'I' for Inactive)
REMARK    1  A    between atoms: O1_2  and  C2_3 
REMARK    2  A    between atoms: C6_9  and  N3_10 
REMARK    3  A    between atoms: N3_10  and  C7_11 
REMARK    4  A    between atoms: C15_21  and  O2_22 
REMARK    5  A    between atoms: O2_22  and  C16_23 
REMARK    6  A    between atoms: C16_23  and  C17_24 
REMARK    7  A    between atoms: C17_24  and  N4_25 
REMARK    8  A    between atoms: N4_25  and  C18_26 
ROOT
HETATM    1  C2  UNL     1      22.472  -0.022  52.997  1.00  0.00     0.103 A 
HETATM    2  C3  UNL     1      21.312   0.665  52.658  1.00  0.00     0.072 A 
HETATM    3  C4  UNL     1      21.353   1.997  52.332  1.00  0.00     0.075 A 
HETATM    4  N1  UNL     1      20.239   2.690  51.987  1.00  0.00    -0.241 NA
HETATM    5  C5  UNL     1      20.281   3.993  51.660  1.00  0.00     0.236 A 
HETATM    6  N2  UNL     1      21.480   4.653  51.669  1.00  0.00    -0.224 NA
HETATM    7  C6  UNL     1      22.603   3.988  52.008  1.00  0.00     0.142 A 
HETATM    8  C13 UNL     1      22.591   2.653  52.349  1.00  0.00     0.042 A 
HETATM    9  C14 UNL     1      23.713   1.938  52.690  1.00  0.00     0.057 A 
HETATM   10  C15 UNL     1      23.711   0.604  53.021  1.00  0.00     0.103 A 
ENDROOT
BRANCH   7  11
HETATM   11  N3  UNL     1      23.904   4.587  52.035  1.00  0.00    -0.340 N 
HETATM   12  H6  UNL     1      24.422   4.515  52.917  1.00  0.00     0.167 HD
BRANCH  11  13
HETATM   13  C7  UNL     1      24.408   5.236  50.874  1.00  0.00     0.035 A 
HETATM   14  C8  UNL     1      23.793   6.302  50.270  1.00  0.00     0.032 A 
HETATM   15  C9  UNL     1      24.308   6.938  49.136  1.00  0.00     0.046 A 
HETATM   16  C10 UNL     1      25.500   6.452  48.608  1.00  0.00     0.138 A 
HETATM   17  F1  UNL     1      26.074   7.012  47.505  1.00  0.00    -0.204 F 
HETATM   18  C11 UNL     1      26.168   5.375  49.177  1.00  0.00     0.074 A 
HETATM   19 CL1  UNL     1      27.671   4.733  48.547  1.00  0.00    -0.081 Cl
HETATM   20  C12 UNL     1      25.578   4.817  50.294  1.00  0.00     0.056 A 
ENDBRANCH  11  13
ENDBRANCH   7  11
BRANCH  10  21
HETATM   21  O2  UNL     1      24.694  -0.237  53.371  1.00  0.00    -0.347 OA
BRANCH  21  22
HETATM   22  C16 UNL     1      25.270  -0.586  54.573  1.00  0.00     0.205 C 
BRANCH  22  23
HETATM   23  C17 UNL     1      26.462   0.240  54.995  1.00  0.00     0.297 C 
BRANCH  23  24
HETATM   24  N4  UNL     1      27.641  -0.545  54.672  1.00  0.00     0.094 N 
HETATM   25  H15 UNL     1      27.440  -1.498  54.359  1.00  0.00     0.316 HD
BRANCH  24  26
HETATM   26  C18 UNL     1      28.565   0.166  53.846  1.00  0.00     0.147 C 
HETATM   27  C19 UNL     1      29.678  -0.766  53.435  1.00  0.00     0.048 C 
HETATM   28  C20 UNL     1      27.938   0.711  52.588  1.00  0.00     0.048 C 
HETATM   29  C21 UNL     1      29.146   1.334  54.610  1.00  0.00     0.048 C 
ENDBRANCH  24  26
ENDBRANCH  23  24
ENDBRANCH  22  23
ENDBRANCH  21  22
ENDBRANCH  10  21
BRANCH   1  30
HETATM   30  O1  UNL     1      22.265  -1.359  53.301  1.00  0.00    -0.353 OA
HETATM   31  C1  UNL     1      21.557  -1.783  54.441  1.00  0.00     0.210 C 
ENDBRANCH   1  30
TORSDOF 8
ENDMDL
MODEL 5
REMARK VINA RESULT:      -7.6      4.105      7.610
REMARK  8 active torsions:
REMARK  status: ('A' for Active; 'I' for Inactive)
REMARK    1  A    between atoms: O1_2  and  C2_3 
REMARK    2  A    between atoms: C6_9  and  N3_10 
REMARK    3  A    between atoms: N3_10  and  C7_11 
REMARK    4  A    between atoms: C15_21  and  O2_22 
REMARK    5  A    between atoms: O2_22  and  C16_23 
REMARK    6  A    between atoms: C16_23  and  C17_24 
REMARK    7  A    between atoms: C17_24  and  N4_25 
REMARK    8  A    between atoms: N4_25  and  C18_26 
ROOT
HETATM    1  C2  UNL     1      27.066   0.043  53.647  1.00  0.00     0.103 A 
HETATM    2  C3  UNL     1      27.555   0.940  52.705  1.00  0.00     0.072 A 
HETATM    3  C4  UNL     1      26.710   1.794  52.042  1.00  0.00     0.075 A 
HETATM    4  N1  UNL     1      27.160   2.687  51.126  1.00  0.00    -0.241 NA
HETATM    5  C5  UNL     1      26.333   3.530  50.483  1.00  0.00     0.236 A 
HETATM    6  N2  UNL     1      24.992   3.496  50.753  1.00  0.00    -0.224 NA
HETATM    7  C6  UNL     1      24.517   2.618  51.660  1.00  0.00     0.142 A 
HETATM    8  C13 UNL     1      25.340   1.742  52.335  1.00  0.00     0.042 A 
HETATM    9  C14 UNL     1      24.898   0.840  53.271  1.00  0.00     0.057 A 
HETATM   10  C15 UNL     1      25.713  -0.029  53.955  1.00  0.00     0.103 A 
ENDROOT
BRANCH   7  11
HETATM   11  N3  UNL     1      23.135   2.515  52.020  1.00  0.00    -0.340 N 
HETATM   12  H6  UNL     1      22.923   2.509  53.024  1.00  0.00     0.167 HD
BRANCH  11  13
HETATM   13  C7  UNL     1      22.144   2.429  51.004  1.00  0.00     0.035 A 
HETATM   14  C8  UNL     1      22.097   1.429  50.068  1.00  0.00     0.032 A 
HETATM   15  C9  UNL     1      21.108   1.350  49.083  1.00  0.00     0.046 A 
HETATM   16  C10 UNL     1      20.135   2.345  49.064  1.00  0.00     0.138 A 
HETATM   17  F1  UNL     1      19.132   2.346  48.139  1.00  0.00    -0.204 F 
HETATM   18  C11 UNL     1      20.130   3.383  49.986  1.00  0.00     0.074 A 
HETATM   19 CL1  UNL     1      18.923   4.653  50.001  1.00  0.00    -0.081 Cl
HETATM   20  C12 UNL     1      21.149   3.370  50.919  1.00  0.00     0.056 A 
ENDBRANCH  11  13
ENDBRANCH   7  11
BRANCH  10  21
HETATM   21  O2  UNL     1      25.458  -0.957  54.887  1.00  0.00    -0.347 OA
BRANCH  21  22
HETATM   22  C16 UNL     1      24.435  -1.149  55.790  1.00  0.00     0.205 C 
BRANCH  22  23
HETATM   23  C17 UNL     1      23.158  -1.726  55.224  1.00  0.00     0.297 C 
BRANCH  23  24
HETATM   24  N4  UNL     1      22.186  -0.647  55.217  1.00  0.00     0.094 N 
HETATM   25  H15 UNL     1      22.579   0.275  55.424  1.00  0.00     0.316 HD
BRANCH  24  26
HETATM   26  C18 UNL     1      21.334  -0.682  54.071  1.00  0.00     0.147 C 
HETATM   27  C19 UNL     1      22.161  -0.992  52.849  1.00  0.00     0.048 C 
HETATM   28  C20 UNL     1      20.253  -1.729  54.169  1.00  0.00     0.048 C 
HETATM   29  C21 UNL     1      20.657   0.657  53.891  1.00  0.00     0.048 C 
ENDBRANCH  24  26
ENDBRANCH  23  24
ENDBRANCH  22  23
ENDBRANCH  21  22
ENDBRANCH  10  21
BRANCH   1  30
HETATM   30  O1  UNL     1      28.043  -0.751  54.228  1.00  0.00    -0.353 OA
HETATM   31  C1  UNL     1      29.409  -0.642  53.903  1.00  0.00     0.210 C 
ENDBRANCH   1  30
TORSDOF 8
ENDMDL
MODEL 6
REMARK VINA RESULT:      -7.5      2.096      2.756
REMARK  8 active torsions:
REMARK  status: ('A' for Active; 'I' for Inactive)
REMARK    1  A    between atoms: O1_2  and  C2_3 
REMARK    2  A    between atoms: C6_9  and  N3_10 
REMARK    3  A    between atoms: N3_10  and  C7_11 
REMARK    4  A    between atoms: C15_21  and  O2_22 
REMARK    5  A    between atoms: O2_22  and  C16_23 
REMARK    6  A    between atoms: C16_23  and  C17_24 
REMARK    7  A    between atoms: C17_24  and  N4_25 
REMARK    8  A    between atoms: N4_25  and  C18_26 
ROOT
HETATM    1  C2  UNL     1      20.389   2.820  52.394  1.00  0.00     0.103 A 
HETATM    2  C3  UNL     1      20.300   1.618  53.086  1.00  0.00     0.072 A 
HETATM    3  C4  UNL     1      21.398   0.809  53.236  1.00  0.00     0.075 A 
HETATM    4  N1  UNL     1      21.344  -0.363  53.916  1.00  0.00    -0.241 NA
HETATM    5  C5  UNL     1      22.422  -1.151  54.070  1.00  0.00     0.236 A 
HETATM    6  N2  UNL     1      23.619  -0.769  53.529  1.00  0.00    -0.224 NA
HETATM    7  C6  UNL     1      23.702   0.392  52.847  1.00  0.00     0.142 A 
HETATM    8  C13 UNL     1      22.614   1.220  52.673  1.00  0.00     0.042 A 
HETATM    9  C14 UNL     1      22.659   2.413  51.995  1.00  0.00     0.057 A 
HETATM   10  C15 UNL     1      21.582   3.250  51.826  1.00  0.00     0.103 A 
ENDROOT
BRANCH   7  11
HETATM   11  N3  UNL     1      24.911   0.883  52.257  1.00  0.00    -0.340 N 
HETATM   12  H6  UNL     1      24.807   1.467  51.420  1.00  0.00     0.167 HD
BRANCH  11  13
HETATM   13  C7  UNL     1      26.167   0.550  52.835  1.00  0.00     0.035 A 
HETATM   14  C8  UNL     1      26.901   1.410  53.609  1.00  0.00     0.032 A 
HETATM   15  C9  UNL     1      28.129   1.064  54.181  1.00  0.00     0.046 A 
HETATM   16  C10 UNL     1      28.615  -0.218  53.940  1.00  0.00     0.138 A 
HETATM   17  F1  UNL     1      29.804  -0.641  54.460  1.00  0.00    -0.204 F 
HETATM   18  C11 UNL     1      27.916  -1.133  53.164  1.00  0.00     0.074 A 
HETATM   19 CL1  UNL     1      28.489  -2.756  52.838  1.00  0.00    -0.081 Cl
HETATM   20  C12 UNL     1      26.714  -0.694  52.645  1.00  0.00     0.056 A 
ENDBRANCH  11  13
ENDBRANCH   7  11
BRANCH  10  21
HETATM   21  O2  UNL     1      21.448   4.431  51.207  1.00  0.00    -0.347 OA
BRANCH  21  22
HETATM   22  C16 UNL     1      21.886   5.708  51.481  1.00  0.00     0.205 C 
BRANCH  22  23
HETATM   23  C17 UNL     1      22.819   6.317  50.461  1.00  0.00     0.297 C 
BRANCH  23  24
HETATM   24  N4  UNL     1      24.065   5.577  50.550  1.00  0.00     0.094 N 
HETATM   25  H15 UNL     1      24.064   4.832  51.252  1.00  0.00     0.316 HD
BRANCH  24  26
HETATM   26  C18 UNL     1      24.563   5.181  49.271  1.00  0.00     0.147 C 
HETATM   27  C19 UNL     1      24.007   3.823  48.923  1.00  0.00     0.048 C 
HETATM   28  C20 UNL     1      24.175   6.131  48.165  1.00  0.00     0.048 C 
HETATM   29  C21 UNL     1      26.072   5.111  49.304  1.00  0.00     0.048 C 
ENDBRANCH  24  26
ENDBRANCH  23  24
ENDBRANCH  22  23
ENDBRANCH  21  22
ENDBRANCH  10  21
BRANCH   1  30
HETATM   30  O1  UNL     1      19.195   3.521  52.329  1.00  0.00    -0.353 OA
HETATM   31  C1  UNL     1      18.138   3.155  51.474  1.00  0.00     0.210 C 
ENDBRANCH   1  30
TORSDOF 8
ENDMDL
MODEL 7
REMARK VINA RESULT:      -7.5      5.625      8.588
REMARK  8 active torsions:
REMARK  status: ('A' for Active; 'I' for Inactive)
REMARK    1  A    between atoms: O1_2  and  C2_3 
REMARK    2  A    between atoms: C6_9  and  N3_10 
REMARK    3  A    between atoms: N3_10  and  C7_11 
REMARK    4  A    between atoms: C15_21  and  O2_22 
REMARK    5  A    between atoms: O2_22  and  C16_23 
REMARK    6  A    between atoms: C16_23  and  C17_24 
REMARK    7  A    between atoms: C17_24  and  N4_25 
REMARK    8  A    between atoms: N4_25  and  C18_26 
ROOT
HETATM    1  C2  UNL     1      27.625   6.769  48.024  1.00  0.00     0.103 A 
HETATM    2  C3  UNL     1      26.294   6.929  48.390  1.00  0.00     0.072 A 
HETATM    3  C4  UNL     1      25.611   5.920  49.021  1.00  0.00     0.075 A 
HETATM    4  N1  UNL     1      24.315   6.052  49.399  1.00  0.00    -0.241 NA
HETATM    5  C5  UNL     1      23.649   5.066  50.025  1.00  0.00     0.236 A 
HETATM    6  N2  UNL     1      24.288   3.887  50.296  1.00  0.00    -0.224 NA
HETATM    7  C6  UNL     1      25.577   3.728  49.931  1.00  0.00     0.142 A 
HETATM    8  C13 UNL     1      26.285   4.721  49.287  1.00  0.00     0.042 A 
HETATM    9  C14 UNL     1      27.599   4.603  48.908  1.00  0.00     0.057 A 
HETATM   10  C15 UNL     1      28.316   5.591  48.277  1.00  0.00     0.103 A 
ENDROOT
BRANCH   7  11
HETATM   11  N3  UNL     1      26.334   2.539  50.181  1.00  0.00    -0.340 N 
HETATM   12  H6  UNL     1      26.797   2.112  49.372  1.00  0.00     0.167 HD
BRANCH  11  13
HETATM   13  C7  UNL     1      26.411   2.014  51.501  1.00  0.00     0.035 A 
HETATM   14  C8  UNL     1      27.401   2.334  52.392  1.00  0.00     0.032 A 
HETATM   15  C9  UNL     1      27.455   1.818  53.691  1.00  0.00     0.046 A 
HETATM   16  C10 UNL     1      26.449   0.938  54.079  1.00  0.00     0.138 A 
HETATM   17  F1  UNL     1      26.423   0.388  55.327  1.00  0.00    -0.204 F 
HETATM   18  C11 UNL     1      25.420   0.576  53.219  1.00  0.00     0.074 A 
HETATM   19 CL1  UNL     1      24.134  -0.525  53.667  1.00  0.00    -0.081 Cl
HETATM   20  C12 UNL     1      25.457   1.140  51.959  1.00  0.00     0.056 A 
ENDBRANCH  11  13
ENDBRANCH   7  11
BRANCH  10  21
HETATM   21  O2  UNL     1      29.583   5.648  47.845  1.00  0.00    -0.347 OA
BRANCH  21  22
HETATM   22  C16 UNL     1      30.799   5.815  48.471  1.00  0.00     0.205 C 
BRANCH  22  23
HETATM   23  C17 UNL     1      32.014   5.425  47.663  1.00  0.00     0.297 C 
BRANCH  23  24
HETATM   24  N4  UNL     1      32.530   4.205  48.260  1.00  0.00     0.094 N 
HETATM   25  H15 UNL     1      31.835   3.664  48.781  1.00  0.00     0.316 HD
BRANCH  24  26
HETATM   26  C18 UNL     1      33.315   3.435  47.348  1.00  0.00     0.147 C 
HETATM   27  C19 UNL     1      34.747   3.418  47.822  1.00  0.00     0.048 C 
HETATM   28  C20 UNL     1      32.854   2.004  47.232  1.00  0.00     0.048 C 
HETATM   29  C21 UNL     1      33.251   4.049  45.968  1.00  0.00     0.048 C 
ENDBRANCH  24  26
ENDBRANCH  23  24
ENDBRANCH  22  23
ENDBRANCH  21  22
ENDBRANCH  10  21
BRANCH   1  30
HETATM   30  O1  UNL     1      28.172   7.877  47.396  1.00  0.00    -0.353 OA
HETATM   31  C1  UNL     1      27.605   9.163  47.481  1.00  0.00     0.210 C 
ENDBRANCH   1  30
TORSDOF 8
ENDMDL
MODEL 8
REMARK VINA RESULT:      -7.5      2.195      3.657
REMARK  8 active torsions:
REMARK  status: ('A' for Active; 'I' for Inactive)
REMARK    1  A    between atoms: O1_2  and  C2_3 
REMARK    2  A    between atoms: C6_9  and  N3_10 
REMARK    3  A    between atoms: N3_10  and  C7_11 
REMARK    4  A    between atoms: C15_21  and  O2_22 
REMARK    5  A    between atoms: O2_22  and  C16_23 
REMARK    6  A    between atoms: C16_23  and  C17_24 
REMARK    7  A    between atoms: C17_24  and  N4_25 
REMARK    8  A    between atoms: N4_25  and  C18_26 
ROOT
HETATM    1  C2  UNL     1      19.487  -0.130  52.314  1.00  0.00     0.103 A 
HETATM    2  C3  UNL     1      19.841  -0.762  53.500  1.00  0.00     0.072 A 
HETATM    3  C4  UNL     1      21.154  -0.838  53.892  1.00  0.00     0.075 A 
HETATM    4  N1  UNL     1      21.528  -1.439  55.049  1.00  0.00    -0.241 NA
HETATM    5  C5  UNL     1      22.814  -1.506  55.437  1.00  0.00     0.236 A 
HETATM    6  N2  UNL     1      23.786  -0.952  54.648  1.00  0.00    -0.224 NA
HETATM    7  C6  UNL     1      23.442  -0.348  53.492  1.00  0.00     0.142 A 
HETATM    8  C13 UNL     1      22.133  -0.265  53.069  1.00  0.00     0.042 A 
HETATM    9  C14 UNL     1      21.741   0.349  51.905  1.00  0.00     0.057 A 
HETATM   10  C15 UNL     1      20.437   0.446  51.481  1.00  0.00     0.103 A 
ENDROOT
BRANCH   7  11
HETATM   11  N3  UNL     1      24.383   0.271  52.608  1.00  0.00    -0.340 N 
HETATM   12  H6  UNL     1      23.991   0.814  51.831  1.00  0.00     0.167 HD
BRANCH  11  13
HETATM   13  C7  UNL     1      25.778   0.112  52.835  1.00  0.00     0.035 A 
HETATM   14  C8  UNL     1      26.424  -1.096  52.792  1.00  0.00     0.032 A 
HETATM   15  C9  UNL     1      27.799  -1.234  53.006  1.00  0.00     0.046 A 
HETATM   16  C10 UNL     1      28.530  -0.081  53.276  1.00  0.00     0.138 A 
HETATM   17  F1  UNL     1      29.876  -0.123  53.496  1.00  0.00    -0.204 F 
HETATM   18  C11 UNL     1      27.930   1.171  53.333  1.00  0.00     0.074 A 
HETATM   19 CL1  UNL     1      28.811   2.647  53.667  1.00  0.00    -0.081 Cl
HETATM   20  C12 UNL     1      26.568   1.200  53.108  1.00  0.00     0.056 A 
ENDBRANCH  11  13
ENDBRANCH   7  11
BRANCH  10  21
HETATM   21  O2  UNL     1      19.883   1.001  50.395  1.00  0.00    -0.347 OA
BRANCH  21  22
HETATM   22  C16 UNL     1      19.426   2.266  50.096  1.00  0.00     0.205 C 
BRANCH  22  23
HETATM   23  C17 UNL     1      18.029   2.343  49.527  1.00  0.00     0.297 C 
BRANCH  23  24
HETATM   24  N4  UNL     1      17.648   0.984  49.186  1.00  0.00     0.094 N 
HETATM   25  H15 UNL     1      18.138   0.262  49.721  1.00  0.00     0.316 HD
BRANCH  24  26
HETATM   26  C18 UNL     1      16.231   0.809  49.120  1.00  0.00     0.147 C 
HETATM   27  C19 UNL     1      15.718   1.423  47.842  1.00  0.00     0.048 C 
HETATM   28  C20 UNL     1      15.812  -0.639  49.132  1.00  0.00     0.048 C 
HETATM   29  C21 UNL     1      15.573   1.485  50.300  1.00  0.00     0.048 C 
ENDBRANCH  24  26
ENDBRANCH  23  24
ENDBRANCH  22  23
ENDBRANCH  21  22
ENDBRANCH  10  21
BRANCH   1  30
HETATM   30  O1  UNL     1      18.124  -0.138  52.059  1.00  0.00    -0.353 OA
HETATM   31  C1  UNL     1      17.254  -1.114  52.580  1.00  0.00     0.210 C 
ENDBRANCH   1  30
TORSDOF 8
ENDMDL
MODEL 9
REMARK VINA RESULT:      -7.3      4.779      7.168
REMARK  8 active torsions:
REMARK  status: ('A' for Active; 'I' for Inactive)
REMARK    1  A    between atoms: O1_2  and  C2_3 
REMARK    2  A    between atoms: C6_9  and  N3_10 
REMARK    3  A    between atoms: N3_10  and  C7_11 
REMARK    4  A    between atoms: C15_21  and  O2_22 
REMARK    5  A    between atoms: O2_22  and  C16_23 
REMARK    6  A    between atoms: C16_23  and  C17_24 
REMARK    7  A    between atoms: C17_24  and  N4_25 
REMARK    8  A    between atoms: N4_25  and  C18_26 
ROOT
HETATM    1  C2  UNL     1      26.076   6.420  49.383  1.00  0.00     0.103 A 
HETATM    2  C3  UNL     1      25.029   6.490  50.293  1.00  0.00     0.072 A 
HETATM    3  C4  UNL     1      24.580   5.366  50.940  1.00  0.00     0.075 A 
HETATM    4  N1  UNL     1      23.567   5.407  51.841  1.00  0.00    -0.241 NA
HETATM    5  C5  UNL     1      23.135   4.306  52.480  1.00  0.00     0.236 A 
HETATM    6  N2  UNL     1      23.727   3.100  52.223  1.00  0.00    -0.224 NA
HETATM    7  C6  UNL     1      24.737   3.030  51.331  1.00  0.00     0.142 A 
HETATM    8  C13 UNL     1      25.202   4.141  50.660  1.00  0.00     0.042 A 
HETATM    9  C14 UNL     1      26.232   4.114  49.754  1.00  0.00     0.057 A 
HETATM   10  C15 UNL     1      26.709   5.218  49.089  1.00  0.00     0.103 A 
ENDROOT
BRANCH   7  11
HETATM   11  N3  UNL     1      25.427   1.819  51.005  1.00  0.00    -0.340 N 
HETATM   12  H6  UNL     1      25.206   1.397  50.097  1.00  0.00     0.167 HD
BRANCH  11  13
HETATM   13  C7  UNL     1      26.362   1.268  51.925  1.00  0.00     0.035 A 
HETATM   14  C8  UNL     1      27.106   2.019  52.796  1.00  0.00     0.032 A 
HETATM   15  C9  UNL     1      28.013   1.462  53.703  1.00  0.00     0.046 A 
HETATM   16  C10 UNL     1      28.155   0.077  53.705  1.00  0.00     0.138 A 
HETATM   17  F1  UNL     1      29.016  -0.551  54.557  1.00  0.00    -0.204 F 
HETATM   18  C11 UNL     1      27.429  -0.736  52.845  1.00  0.00     0.074 A 
HETATM   19 CL1  UNL     1      27.575  -2.481  52.816  1.00  0.00    -0.081 Cl
HETATM   20  C12 UNL     1      26.560  -0.088  51.988  1.00  0.00     0.056 A 
ENDBRANCH  11  13
ENDBRANCH   7  11
BRANCH  10  21
HETATM   21  O2  UNL     1      27.690   5.373  48.189  1.00  0.00    -0.347 OA
BRANCH  21  22
HETATM   22  C16 UNL     1      29.065   5.385  48.268  1.00  0.00     0.205 C 
BRANCH  22  23
HETATM   23  C17 UNL     1      29.743   6.629  47.743  1.00  0.00     0.297 C 
BRANCH  23  24
HETATM   24  N4  UNL     1      29.564   7.654  48.756  1.00  0.00     0.094 N 
HETATM   25  H15 UNL     1      29.197   7.307  49.646  1.00  0.00     0.316 HD
BRANCH  24  26
HETATM   26  C18 UNL     1      30.701   8.511  48.880  1.00  0.00     0.147 C 
HETATM   27  C19 UNL     1      31.215   8.850  47.504  1.00  0.00     0.048 C 
HETATM   28  C20 UNL     1      30.391   9.807  49.585  1.00  0.00     0.048 C 
HETATM   29  C21 UNL     1      31.788   7.813  49.664  1.00  0.00     0.048 C 
ENDBRANCH  24  26
ENDBRANCH  23  24
ENDBRANCH  22  23
ENDBRANCH  21  22
ENDBRANCH  10  21
BRANCH   1  30
HETATM   30  O1  UNL     1      26.411   7.639  48.815  1.00  0.00    -0.353 OA
HETATM   31  C1  UNL     1      25.713   8.193  47.725  1.00  0.00     0.210 C 
ENDBRANCH   1  30
TORSDOF 8
ENDMDL
