MODEL 1
REMARK VINA RESULT:      -7.5      0.000      0.000
REMARK  5 active torsions:
REMARK  status: ('A' for Active; 'I' for Inactive)
REMARK    1  A    between atoms: N3_19  and  C17_20 
REMARK    2  A    between atoms: C17_20  and  C18_21 
REMARK    3  A    between atoms: C18_21  and  S1_22 
REMARK    4  A    between atoms: S1_22  and  C19_23 
REMARK    5  A    between atoms: C20_24  and  C21_25 
ROOT
HETATM    1  C1  UNL     1      27.578   0.317  52.930  1.00  0.00     0.048 C 
HETATM    2  C2  UNL     1      26.278   0.728  52.331  1.00  0.00    -0.061 C 
HETATM    3  C3  UNL     1      26.410   1.613  51.326  1.00  0.00     0.007 C 
HETATM    4  C4  UNL     1      26.038   2.502  50.269  1.00  0.00     0.001 C 
HETATM    5  C5  UNL     1      25.556   3.269  49.347  1.00  0.00     0.011 C 
HETATM    6  C6  UNL     1      24.111   3.438  49.058  1.00  0.00    -0.038 C 
HETATM    7  C7  UNL     1      23.445   4.390  48.462  1.00  0.00     0.021 C 
HETATM    8  C8  UNL     1      22.433   4.858  49.433  1.00  0.00     0.262 C 
HETATM    9  C9  UNL     1      21.589   3.735  50.008  1.00  0.00     0.100 C 
HETATM   10  C10 UNL     1      21.988   2.431  49.473  1.00  0.00    -0.015 C 
HETATM   11  C11 UNL     1      23.295   2.342  49.620  1.00  0.00     0.007 C 
HETATM   12  C12 UNL     1      22.093   4.105  51.367  1.00  0.00     0.350 C 
HETATM   13  N1  UNL     1      22.711   3.030  52.058  1.00  0.00    -0.280 N 
HETATM   14  N2  UNL     1      23.930   3.387  52.641  1.00  0.00    -0.190 NA
HETATM   15  C13 UNL     1      24.604   2.507  53.346  1.00  0.00     0.139 C 
HETATM   16  C14 UNL     1      23.615   1.470  53.140  1.00  0.00     0.033 C 
HETATM   17  C15 UNL     1      24.033   0.266  53.509  1.00  0.00    -0.024 C 
HETATM   18  C16 UNL     1      25.226   0.005  52.998  1.00  0.00     0.019 C 
HETATM   19  N3  UNL     1      22.991   5.037  50.743  1.00  0.00     0.133 N 
HETATM   20  H13 UNL     1      22.038   2.214  51.944  1.00  0.00     0.184 HD
ENDROOT
BRANCH  19  21
HETATM   21  C17 UNL     1      22.697   6.401  51.217  1.00  0.00     0.368 C 
BRANCH  21  22
HETATM   22  C18 UNL     1      23.711   7.307  50.847  1.00  0.00    -0.077 C 
BRANCH  22  23
HETATM   23  S1  UNL     1      24.605   8.136  50.514  1.00  0.00    -0.062 SA
BRANCH  23  24
HETATM   24  C19 UNL     1      25.695   9.120  50.130  1.00  0.00     0.059 C 
HETATM   25  C20 UNL     1      26.941   8.686  50.050  1.00  0.00     0.026 C 
BRANCH  25  26
HETATM   26  C21 UNL     1      27.987   9.597  49.688  1.00  0.00     0.107 C 
HETATM   27  N4  UNL     1      29.194   9.653  50.129  1.00  0.00    -0.312 NA
HETATM   28  H22 UNL     1      29.550   9.001  50.837  1.00  0.00     0.186 HD
ENDBRANCH  25  26
ENDBRANCH  23  24
ENDBRANCH  22  23
ENDBRANCH  21  22
ENDBRANCH  19  21
TORSDOF 5
ENDMDL
MODEL 2
REMARK VINA RESULT:      -7.4      2.222      3.154
REMARK  5 active torsions:
REMARK  status: ('A' for Active; 'I' for Inactive)
REMARK    1  A    between atoms: N3_19  and  C17_20 
REMARK    2  A    between atoms: C17_20  and  C18_21 
REMARK    3  A    between atoms: C18_21  and  S1_22 
REMARK    4  A    between atoms: S1_22  and  C19_23 
REMARK    5  A    between atoms: C20_24  and  C21_25 
ROOT
HETATM    1  C1  UNL     1      22.705  -1.122  55.325  1.00  0.00     0.048 C 
HETATM    2  C2  UNL     1      22.169  -0.656  54.016  1.00  0.00    -0.061 C 
HETATM    3  C3  UNL     1      23.023   0.138  53.344  1.00  0.00     0.007 C 
HETATM    4  C4  UNL     1      23.533   0.973  52.300  1.00  0.00     0.001 C 
HETATM    5  C5  UNL     1      23.859   1.704  51.285  1.00  0.00     0.011 C 
HETATM    6  C6  UNL     1      22.986   1.964  50.115  1.00  0.00    -0.038 C 
HETATM    7  C7  UNL     1      22.982   2.919  49.224  1.00  0.00     0.021 C 
HETATM    8  C8  UNL     1      21.640   3.537  49.286  1.00  0.00     0.262 C 
HETATM    9  C9  UNL     1      20.510   2.530  49.166  1.00  0.00     0.100 C 
HETATM   10  C10 UNL     1      21.017   1.163  49.033  1.00  0.00    -0.015 C 
HETATM   11  C11 UNL     1      21.888   0.982  50.005  1.00  0.00     0.007 C 
HETATM   12  C12 UNL     1      20.038   2.960  50.519  1.00  0.00     0.350 C 
HETATM   13  N1  UNL     1      19.930   1.895  51.451  1.00  0.00    -0.280 N 
HETATM   14  N2  UNL     1      20.500   2.197  52.691  1.00  0.00    -0.190 NA
HETATM   15  C13 UNL     1      20.446   1.321  53.669  1.00  0.00     0.139 C 
HETATM   16  C14 UNL     1      19.729   0.353  52.867  1.00  0.00     0.033 C 
HETATM   17  C15 UNL     1      19.668  -0.849  53.425  1.00  0.00    -0.024 C 
HETATM   18  C16 UNL     1      20.868  -1.241  53.828  1.00  0.00     0.019 C 
HETATM   19  N3  UNL     1      21.219   3.768  50.638  1.00  0.00     0.133 N 
HETATM   20  H13 UNL     1      19.413   1.128  50.925  1.00  0.00     0.184 HD
ENDROOT
BRANCH  19  21
HETATM   21  C17 UNL     1      20.837   5.183  50.795  1.00  0.00     0.368 C 
BRANCH  21  22
HETATM   22  C18 UNL     1      21.968   6.024  50.829  1.00  0.00    -0.077 C 
BRANCH  22  23
HETATM   23  S1  UNL     1      22.972   6.791  50.844  1.00  0.00    -0.062 SA
BRANCH  23  24
HETATM   24  C19 UNL     1      24.187   7.701  50.841  1.00  0.00     0.059 C 
HETATM   25  C20 UNL     1      25.208   7.393  50.061  1.00  0.00     0.026 C 
BRANCH  25  26
HETATM   26  C21 UNL     1      26.366   8.238  50.042  1.00  0.00     0.107 C 
HETATM   27  N4  UNL     1      26.627   9.263  50.775  1.00  0.00    -0.312 NA
HETATM   28  H22 UNL     1      25.981   9.599  51.498  1.00  0.00     0.186 HD
ENDBRANCH  25  26
ENDBRANCH  23  24
ENDBRANCH  22  23
ENDBRANCH  21  22
ENDBRANCH  19  21
TORSDOF 5
ENDMDL
MODEL 3
REMARK VINA RESULT:      -6.8      8.056     10.468
REMARK  5 active torsions:
REMARK  status: ('A' for Active; 'I' for Inactive)
REMARK    1  A    between atoms: N3_19  and  C17_20 
REMARK    2  A    between atoms: C17_20  and  C18_21 
REMARK    3  A    between atoms: C18_21  and  S1_22 
REMARK    4  A    between atoms: S1_22  and  C19_23 
REMARK    5  A    between atoms: C20_24  and  C21_25 
ROOT
HETATM    1  C1  UNL     1      32.396   1.555  46.722  1.00  0.00     0.048 C 
HETATM    2  C2  UNL     1      33.019   2.896  46.896  1.00  0.00    -0.061 C 
HETATM    3  C3  UNL     1      32.230   3.771  47.546  1.00  0.00     0.007 C 
HETATM    4  C4  UNL     1      31.804   4.996  48.149  1.00  0.00     0.001 C 
HETATM    5  C5  UNL     1      31.554   6.161  48.650  1.00  0.00     0.011 C 
HETATM    6  C6  UNL     1      32.478   7.320  48.594  1.00  0.00    -0.038 C 
HETATM    7  C7  UNL     1      32.273   8.606  48.698  1.00  0.00     0.021 C 
HETATM    8  C8  UNL     1      32.803   9.211  47.457  1.00  0.00     0.262 C 
HETATM    9  C9  UNL     1      34.233   8.802  47.154  1.00  0.00     0.100 C 
HETATM   10  C10 UNL     1      34.757   7.880  48.164  1.00  0.00    -0.015 C 
HETATM   11  C11 UNL     1      33.868   6.916  48.299  1.00  0.00     0.007 C 
HETATM   12  C12 UNL     1      33.750   8.211  45.868  1.00  0.00     0.350 C 
HETATM   13  N1  UNL     1      34.082   6.841  45.709  1.00  0.00    -0.280 N 
HETATM   14  N2  UNL     1      33.003   6.066  45.274  1.00  0.00    -0.190 NA
HETATM   15  C13 UNL     1      33.165   4.782  45.047  1.00  0.00     0.139 C 
HETATM   16  C14 UNL     1      34.567   4.816  45.408  1.00  0.00     0.033 C 
HETATM   17  C15 UNL     1      35.100   3.611  45.554  1.00  0.00    -0.024 C 
HETATM   18  C16 UNL     1      34.344   2.853  46.334  1.00  0.00     0.019 C 
HETATM   19  N3  UNL     1      32.403   8.477  46.291  1.00  0.00     0.133 N 
HETATM   20  H13 UNL     1      35.112   6.781  45.969  1.00  0.00     0.184 HD
ENDROOT
BRANCH  19  21
HETATM   21  C17 UNL     1      31.756   9.393  45.335  1.00  0.00     0.368 C 
BRANCH  21  22
HETATM   22  C18 UNL     1      30.369   9.157  45.250  1.00  0.00    -0.077 C 
BRANCH  22  23
HETATM   23  S1  UNL     1      29.121   8.967  45.176  1.00  0.00    -0.062 SA
BRANCH  23  24
HETATM   24  C19 UNL     1      27.623   8.731  45.110  1.00  0.00     0.059 C 
HETATM   25  C20 UNL     1      27.000   8.931  43.963  1.00  0.00     0.026 C 
BRANCH  25  26
HETATM   26  C21 UNL     1      25.585   8.715  43.877  1.00  0.00     0.107 C 
HETATM   27  N4  UNL     1      24.952   7.733  43.339  1.00  0.00    -0.312 NA
HETATM   28  H22 UNL     1      25.438   6.951  42.884  1.00  0.00     0.186 HD
ENDBRANCH  25  26
ENDBRANCH  23  24
ENDBRANCH  22  23
ENDBRANCH  21  22
ENDBRANCH  19  21
TORSDOF 5
ENDMDL
MODEL 4
REMARK VINA RESULT:      -6.5      4.489      9.657
REMARK  5 active torsions:
REMARK  status: ('A' for Active; 'I' for Inactive)
REMARK    1  A    between atoms: N3_19  and  C17_20 
REMARK    2  A    between atoms: C17_20  and  C18_21 
REMARK    3  A    between atoms: C18_21  and  S1_22 
REMARK    4  A    between atoms: S1_22  and  C19_23 
REMARK    5  A    between atoms: C20_24  and  C21_25 
ROOT
HETATM    1  C1  UNL     1      34.216   5.758  48.672  1.00  0.00     0.048 C 
HETATM    2  C2  UNL     1      33.579   6.967  48.079  1.00  0.00    -0.061 C 
HETATM    3  C3  UNL     1      32.726   7.585  48.915  1.00  0.00     0.007 C 
HETATM    4  C4  UNL     1      31.779   8.547  49.390  1.00  0.00     0.001 C 
HETATM    5  C5  UNL     1      30.934   9.481  49.680  1.00  0.00     0.011 C 
HETATM    6  C6  UNL     1      30.513  10.558  48.751  1.00  0.00    -0.038 C 
HETATM    7  C7  UNL     1      29.456  11.324  48.724  1.00  0.00     0.021 C 
HETATM    8  C8  UNL     1      28.823  11.109  47.405  1.00  0.00     0.262 C 
HETATM    9  C9  UNL     1      29.784  11.285  46.243  1.00  0.00     0.100 C 
HETATM   10  C10 UNL     1      31.134  11.614  46.704  1.00  0.00    -0.015 C 
HETATM   11  C11 UNL     1      31.452  10.724  47.622  1.00  0.00     0.007 C 
HETATM   12  C12 UNL     1      29.515   9.864  45.858  1.00  0.00     0.350 C 
HETATM   13  N1  UNL     1      30.685   9.066  45.773  1.00  0.00    -0.280 N 
HETATM   14  N2  UNL     1      30.551   7.834  46.417  1.00  0.00    -0.190 NA
HETATM   15  C13 UNL     1      31.540   6.968  46.394  1.00  0.00     0.139 C 
HETATM   16  C14 UNL     1      32.387   7.840  45.607  1.00  0.00     0.033 C 
HETATM   17  C15 UNL     1      33.647   7.431  45.544  1.00  0.00    -0.024 C 
HETATM   18  C16 UNL     1      34.111   7.150  46.753  1.00  0.00     0.019 C 
HETATM   19  N3  UNL     1      28.752   9.717  47.066  1.00  0.00     0.133 N 
HETATM   20  H13 UNL     1      31.370   9.651  45.207  1.00  0.00     0.184 HD
ENDROOT
BRANCH  19  21
HETATM   21  C17 UNL     1      27.360   9.365  46.732  1.00  0.00     0.368 C 
BRANCH  21  22
HETATM   22  C18 UNL     1      26.932   8.222  47.436  1.00  0.00    -0.077 C 
BRANCH  22  23
HETATM   23  S1  UNL     1      26.547   7.185  48.048  1.00  0.00    -0.062 SA
BRANCH  23  24
HETATM   24  C19 UNL     1      26.107   5.936  48.791  1.00  0.00     0.059 C 
HETATM   25  C20 UNL     1      26.976   4.953  48.947  1.00  0.00     0.026 C 
BRANCH  25  26
HETATM   26  C21 UNL     1      26.583   3.764  49.645  1.00  0.00     0.107 C 
HETATM   27  N4  UNL     1      26.973   3.341  50.795  1.00  0.00    -0.312 NA
HETATM   28  H22 UNL     1      27.656   3.853  51.366  1.00  0.00     0.186 HD
ENDBRANCH  25  26
ENDBRANCH  23  24
ENDBRANCH  22  23
ENDBRANCH  21  22
ENDBRANCH  19  21
TORSDOF 5
ENDMDL
MODEL 5
REMARK VINA RESULT:      -6.5      6.290      8.607
REMARK  5 active torsions:
REMARK  status: ('A' for Active; 'I' for Inactive)
REMARK    1  A    between atoms: N3_19  and  C17_20 
REMARK    2  A    between atoms: C17_20  and  C18_21 
REMARK    3  A    between atoms: C18_21  and  S1_22 
REMARK    4  A    between atoms: S1_22  and  C19_23 
REMARK    5  A    between atoms: C20_24  and  C21_25 
ROOT
HETATM    1  C1  UNL     1      33.900   7.080  45.921  1.00  0.00     0.048 C 
HETATM    2  C2  UNL     1      32.601   7.015  46.645  1.00  0.00    -0.061 C 
HETATM    3  C3  UNL     1      31.574   7.534  45.947  1.00  0.00     0.007 C 
HETATM    4  C4  UNL     1      30.239   7.943  45.636  1.00  0.00     0.001 C 
HETATM    5  C5  UNL     1      28.994   8.260  45.495  1.00  0.00     0.011 C 
HETATM    6  C6  UNL     1      27.945   8.042  46.520  1.00  0.00    -0.038 C 
HETATM    7  C7  UNL     1      26.779   8.601  46.709  1.00  0.00     0.021 C 
HETATM    8  C8  UNL     1      26.804   9.153  48.081  1.00  0.00     0.262 C 
HETATM    9  C9  UNL     1      27.216   8.135  49.130  1.00  0.00     0.100 C 
HETATM   10  C10 UNL     1      27.513   6.833  48.531  1.00  0.00    -0.015 C 
HETATM   11  C11 UNL     1      28.352   7.052  47.537  1.00  0.00     0.007 C 
HETATM   12  C12 UNL     1      28.376   9.016  49.471  1.00  0.00     0.350 C 
HETATM   13  N1  UNL     1      29.633   8.365  49.378  1.00  0.00    -0.280 N 
HETATM   14  N2  UNL     1      30.588   9.121  48.692  1.00  0.00    -0.190 NA
HETATM   15  C13 UNL     1      31.813   8.666  48.556  1.00  0.00     0.139 C 
HETATM   16  C14 UNL     1      31.523   7.446  49.281  1.00  0.00     0.033 C 
HETATM   17  C15 UNL     1      32.478   6.533  49.174  1.00  0.00    -0.024 C 
HETATM   18  C16 UNL     1      32.822   6.357  47.907  1.00  0.00     0.019 C 
HETATM   19  N3  UNL     1      28.027   9.851  48.356  1.00  0.00     0.133 N 
HETATM   20  H13 UNL     1      29.497   7.442  49.889  1.00  0.00     0.184 HD
ENDROOT
BRANCH  19  21
HETATM   21  C17 UNL     1      27.717  11.211  48.832  1.00  0.00     0.368 C 
BRANCH  21  22
HETATM   22  C18 UNL     1      28.310  12.194  48.015  1.00  0.00    -0.077 C 
BRANCH  22  23
HETATM   23  S1  UNL     1      28.837  13.091  47.297  1.00  0.00    -0.062 SA
BRANCH  23  24
HETATM   24  C19 UNL     1      29.451  14.166  46.419  1.00  0.00     0.059 C 
HETATM   25  C20 UNL     1      29.149  15.429  46.658  1.00  0.00     0.026 C 
BRANCH  25  26
HETATM   26  C21 UNL     1      29.718  16.462  45.842  1.00  0.00     0.107 C 
HETATM   27  N4  UNL     1      29.525  17.732  45.900  1.00  0.00    -0.312 NA
HETATM   28  H22 UNL     1      28.896  18.160  46.589  1.00  0.00     0.186 HD
ENDBRANCH  25  26
ENDBRANCH  23  24
ENDBRANCH  22  23
ENDBRANCH  21  22
ENDBRANCH  19  21
TORSDOF 5
ENDMDL
MODEL 6
REMARK VINA RESULT:      -6.5      2.911      5.618
REMARK  5 active torsions:
REMARK  status: ('A' for Active; 'I' for Inactive)
REMARK    1  A    between atoms: N3_19  and  C17_20 
REMARK    2  A    between atoms: C17_20  and  C18_21 
REMARK    3  A    between atoms: C18_21  and  S1_22 
REMARK    4  A    between atoms: S1_22  and  C19_23 
REMARK    5  A    between atoms: C20_24  and  C21_25 
ROOT
HETATM    1  C1  UNL     1      26.464  -1.435  53.021  1.00  0.00     0.048 C 
HETATM    2  C2  UNL     1      26.055  -0.002  53.006  1.00  0.00    -0.061 C 
HETATM    3  C3  UNL     1      24.756   0.179  52.708  1.00  0.00     0.007 C 
HETATM    4  C4  UNL     1      23.525   0.861  52.453  1.00  0.00     0.001 C 
HETATM    5  C5  UNL     1      22.490   1.608  52.245  1.00  0.00     0.011 C 
HETATM    6  C6  UNL     1      22.493   3.090  52.301  1.00  0.00    -0.038 C 
HETATM    7  C7  UNL     1      21.695   3.985  51.783  1.00  0.00     0.021 C 
HETATM    8  C8  UNL     1      22.544   4.864  50.952  1.00  0.00     0.262 C 
HETATM    9  C9  UNL     1      23.745   5.418  51.698  1.00  0.00     0.100 C 
HETATM   10  C10 UNL     1      23.794   4.933  53.078  1.00  0.00    -0.015 C 
HETATM   11  C11 UNL     1      23.664   3.622  53.027  1.00  0.00     0.007 C 
HETATM   12  C12 UNL     1      24.628   4.739  50.698  1.00  0.00     0.350 C 
HETATM   13  N1  UNL     1      25.574   3.856  51.280  1.00  0.00    -0.280 N 
HETATM   14  N2  UNL     1      25.634   2.619  50.633  1.00  0.00    -0.190 NA
HETATM   15  C13 UNL     1      26.491   1.707  51.035  1.00  0.00     0.139 C 
HETATM   16  C14 UNL     1      27.015   2.553  52.087  1.00  0.00     0.033 C 
HETATM   17  C15 UNL     1      27.790   1.903  52.945  1.00  0.00    -0.024 C 
HETATM   18  C16 UNL     1      27.199   0.795  53.367  1.00  0.00     0.019 C 
HETATM   19  N3  UNL     1      23.460   4.115  50.142  1.00  0.00     0.133 N 
HETATM   20  H13 UNL     1      26.004   4.411  52.080  1.00  0.00     0.184 HD
ENDROOT
BRANCH  19  21
HETATM   21  C17 UNL     1      23.308   4.517  48.732  1.00  0.00     0.368 C 
BRANCH  21  22
HETATM   22  C18 UNL     1      22.094   4.051  48.189  1.00  0.00    -0.077 C 
BRANCH  22  23
HETATM   23  S1  UNL     1      21.004   3.650  47.689  1.00  0.00    -0.062 SA
BRANCH  23  24
HETATM   24  C19 UNL     1      19.683   3.181  47.106  1.00  0.00     0.059 C 
HETATM   25  C20 UNL     1      19.332   3.607  45.906  1.00  0.00     0.026 C 
BRANCH  25  26
HETATM   26  C21 UNL     1      18.089   3.177  45.336  1.00  0.00     0.107 C 
HETATM   27  N4  UNL     1      17.418   2.109  45.583  1.00  0.00    -0.312 NA
HETATM   28  H22 UNL     1      17.732   1.408  46.263  1.00  0.00     0.186 HD
ENDBRANCH  25  26
ENDBRANCH  23  24
ENDBRANCH  22  23
ENDBRANCH  21  22
ENDBRANCH  19  21
TORSDOF 5
ENDMDL
MODEL 7
REMARK VINA RESULT:      -6.5      6.690     10.790
REMARK  5 active torsions:
REMARK  status: ('A' for Active; 'I' for Inactive)
REMARK    1  A    between atoms: N3_19  and  C17_20 
REMARK    2  A    between atoms: C17_20  and  C18_21 
REMARK    3  A    between atoms: C18_21  and  S1_22 
REMARK    4  A    between atoms: S1_22  and  C19_23 
REMARK    5  A    between atoms: C20_24  and  C21_25 
ROOT
HETATM    1  C1  UNL     1      33.477   4.327  41.882  1.00  0.00     0.048 C 
HETATM    2  C2  UNL     1      33.742   5.104  43.125  1.00  0.00    -0.061 C 
HETATM    3  C3  UNL     1      33.168   4.572  44.219  1.00  0.00     0.007 C 
HETATM    4  C4  UNL     1      32.787   4.418  45.589  1.00  0.00     0.001 C 
HETATM    5  C5  UNL     1      32.520   4.410  46.854  1.00  0.00     0.011 C 
HETATM    6  C6  UNL     1      32.973   5.440  47.820  1.00  0.00    -0.038 C 
HETATM    7  C7  UNL     1      32.522   5.794  48.994  1.00  0.00     0.021 C 
HETATM    8  C8  UNL     1      32.218   7.238  48.901  1.00  0.00     0.262 C 
HETATM    9  C9  UNL     1      33.379   8.063  48.373  1.00  0.00     0.100 C 
HETATM   10  C10 UNL     1      34.538   7.225  48.059  1.00  0.00    -0.015 C 
HETATM   11  C11 UNL     1      34.101   6.238  47.300  1.00  0.00     0.007 C 
HETATM   12  C12 UNL     1      32.507   8.487  47.233  1.00  0.00     0.350 C 
HETATM   13  N1  UNL     1      33.060   8.205  45.957  1.00  0.00    -0.280 N 
HETATM   14  N2  UNL     1      32.143   7.609  45.087  1.00  0.00    -0.190 NA
HETATM   15  C13 UNL     1      32.498   7.321  43.854  1.00  0.00     0.139 C 
HETATM   16  C14 UNL     1      33.839   7.834  44.039  1.00  0.00     0.033 C 
HETATM   17  C15 UNL     1      34.665   7.510  43.053  1.00  0.00    -0.024 C 
HETATM   18  C16 UNL     1      34.597   6.213  42.789  1.00  0.00     0.019 C 
HETATM   19  N3  UNL     1      31.511   7.560  47.694  1.00  0.00     0.133 N 
HETATM   20  H13 UNL     1      34.064   8.550  46.016  1.00  0.00     0.184 HD
ENDROOT
BRANCH  19  21
HETATM   21  C17 UNL     1      30.276   8.289  48.033  1.00  0.00     0.368 C 
BRANCH  21  22
HETATM   22  C18 UNL     1      29.188   7.410  48.209  1.00  0.00    -0.077 C 
BRANCH  22  23
HETATM   23  S1  UNL     1      28.200   6.639  48.376  1.00  0.00    -0.062 SA
BRANCH  23  24
HETATM   24  C19 UNL     1      27.029   5.697  48.589  1.00  0.00     0.059 C 
HETATM   25  C20 UNL     1      27.256   4.518  49.139  1.00  0.00     0.026 C 
BRANCH  25  26
HETATM   26  C21 UNL     1      26.164   3.612  49.351  1.00  0.00     0.107 C 
HETATM   27  N4  UNL     1      25.748   3.098  50.454  1.00  0.00    -0.312 NA
HETATM   28  H22 UNL     1      26.192   3.301  51.356  1.00  0.00     0.186 HD
ENDBRANCH  25  26
ENDBRANCH  23  24
ENDBRANCH  22  23
ENDBRANCH  21  22
ENDBRANCH  19  21
TORSDOF 5
ENDMDL
MODEL 8
REMARK VINA RESULT:      -6.4      3.257      6.376
REMARK  5 active torsions:
REMARK  status: ('A' for Active; 'I' for Inactive)
REMARK    1  A    between atoms: N3_19  and  C17_20 
REMARK    2  A    between atoms: C17_20  and  C18_21 
REMARK    3  A    between atoms: C18_21  and  S1_22 
REMARK    4  A    between atoms: S1_22  and  C19_23 
REMARK    5  A    between atoms: C20_24  and  C21_25 
ROOT
HETATM    1  C1  UNL     1      27.650   7.380  47.974  1.00  0.00     0.048 C 
HETATM    2  C2  UNL     1      26.666   6.872  48.970  1.00  0.00    -0.061 C 
HETATM    3  C3  UNL     1      26.566   5.530  48.984  1.00  0.00     0.007 C 
HETATM    4  C4  UNL     1      26.116   4.226  49.363  1.00  0.00     0.001 C 
HETATM    5  C5  UNL     1      25.616   3.119  49.804  1.00  0.00     0.011 C 
HETATM    6  C6  UNL     1      24.569   3.023  50.850  1.00  0.00    -0.038 C 
HETATM    7  C7  UNL     1      23.715   2.080  51.146  1.00  0.00     0.021 C 
HETATM    8  C8  UNL     1      22.374   2.698  51.066  1.00  0.00     0.262 C 
HETATM    9  C9  UNL     1      22.250   3.970  51.886  1.00  0.00     0.100 C 
HETATM   10  C10 UNL     1      23.506   4.303  52.560  1.00  0.00    -0.015 C 
HETATM   11  C11 UNL     1      24.453   4.263  51.644  1.00  0.00     0.007 C 
HETATM   12  C12 UNL     1      21.931   4.705  50.622  1.00  0.00     0.350 C 
HETATM   13  N1  UNL     1      22.793   5.804  50.369  1.00  0.00    -0.280 N 
HETATM   14  N2  UNL     1      23.260   5.837  49.052  1.00  0.00    -0.190 NA
HETATM   15  C13 UNL     1      24.040   6.817  48.655  1.00  0.00     0.139 C 
HETATM   16  C14 UNL     1      24.024   7.458  49.953  1.00  0.00     0.033 C 
HETATM   17  C15 UNL     1      24.928   8.421  50.074  1.00  0.00    -0.024 C 
HETATM   18  C16 UNL     1      26.120   8.000  49.678  1.00  0.00     0.019 C 
HETATM   19  N3  UNL     1      22.226   3.506  49.890  1.00  0.00     0.133 N 
HETATM   20  H13 UNL     1      22.840   6.329  51.293  1.00  0.00     0.184 HD
ENDROOT
BRANCH  19  21
HETATM   21  C17 UNL     1      21.029   3.072  49.147  1.00  0.00     0.368 C 
BRANCH  21  22
HETATM   22  C18 UNL     1      21.144   3.353  47.770  1.00  0.00    -0.077 C 
BRANCH  22  23
HETATM   23  S1  UNL     1      21.265   3.617  46.540  1.00  0.00    -0.062 SA
BRANCH  23  24
HETATM   24  C19 UNL     1      21.428   3.916  45.061  1.00  0.00     0.059 C 
HETATM   25  C20 UNL     1      20.351   3.945  44.298  1.00  0.00     0.026 C 
BRANCH  25  26
HETATM   26  C21 UNL     1      20.480   4.226  42.898  1.00  0.00     0.107 C 
HETATM   27  N4  UNL     1      20.536   3.401  41.913  1.00  0.00    -0.312 NA
HETATM   28  H22 UNL     1      20.491   2.384  42.046  1.00  0.00     0.186 HD
ENDBRANCH  25  26
ENDBRANCH  23  24
ENDBRANCH  22  23
ENDBRANCH  21  22
ENDBRANCH  19  21
TORSDOF 5
ENDMDL
MODEL 9
REMARK VINA RESULT:      -6.4      6.268      9.498
REMARK  5 active torsions:
REMARK  status: ('A' for Active; 'I' for Inactive)
REMARK    1  A    between atoms: N3_19  and  C17_20 
REMARK    2  A    between atoms: C17_20  and  C18_21 
REMARK    3  A    between atoms: C18_21  and  S1_22 
REMARK    4  A    between atoms: S1_22  and  C19_23 
REMARK    5  A    between atoms: C20_24  and  C21_25 
ROOT
HETATM    1  C1  UNL     1      24.452   7.875  47.010  1.00  0.00     0.048 C 
HETATM    2  C2  UNL     1      25.517   8.750  47.574  1.00  0.00    -0.061 C 
HETATM    3  C3  UNL     1      26.471   9.072  46.682  1.00  0.00     0.007 C 
HETATM    4  C4  UNL     1      27.660   9.663  46.150  1.00  0.00     0.001 C 
HETATM    5  C5  UNL     1      28.758  10.255  45.810  1.00  0.00     0.011 C 
HETATM    6  C6  UNL     1      29.599  11.065  46.724  1.00  0.00    -0.038 C 
HETATM    7  C7  UNL     1      30.859  11.408  46.678  1.00  0.00     0.021 C 
HETATM    8  C8  UNL     1      31.468  10.916  47.932  1.00  0.00     0.262 C 
HETATM    9  C9  UNL     1      30.718  11.358  49.176  1.00  0.00     0.100 C 
HETATM   10  C10 UNL     1      29.543  12.164  48.841  1.00  0.00    -0.015 C 
HETATM   11  C11 UNL     1      28.864  11.491  47.933  1.00  0.00     0.007 C 
HETATM   12  C12 UNL     1      30.493   9.915  49.504  1.00  0.00     0.350 C 
HETATM   13  N1  UNL     1      29.125   9.575  49.671  1.00  0.00    -0.280 N 
HETATM   14  N2  UNL     1      28.767   8.410  48.988  1.00  0.00    -0.190 NA
HETATM   15  C13 UNL     1      27.540   7.947  49.077  1.00  0.00     0.139 C 
HETATM   16  C14 UNL     1      27.117   9.018  49.954  1.00  0.00     0.033 C 
HETATM   17  C15 UNL     1      25.801   9.075  50.115  1.00  0.00    -0.024 C 
HETATM   18  C16 UNL     1      25.182   9.038  48.945  1.00  0.00     0.019 C 
HETATM   19  N3  UNL     1      31.065   9.572  48.232  1.00  0.00     0.133 N 
HETATM   20  H13 UNL     1      28.735  10.333  50.307  1.00  0.00     0.184 HD
ENDROOT
BRANCH  19  21
HETATM   21  C17 UNL     1      32.262   8.737  48.436  1.00  0.00     0.368 C 
BRANCH  21  22
HETATM   22  C18 UNL     1      32.005   7.383  48.142  1.00  0.00    -0.077 C 
BRANCH  22  23
HETATM   23  S1  UNL     1      31.766   6.175  47.858  1.00  0.00    -0.062 SA
BRANCH  23  24
HETATM   24  C19 UNL     1      31.460   4.724  47.534  1.00  0.00     0.059 C 
HETATM   25  C20 UNL     1      32.339   4.032  46.832  1.00  0.00     0.026 C 
BRANCH  25  26
HETATM   26  C21 UNL     1      32.071   2.659  46.514  1.00  0.00     0.107 C 
HETATM   27  N4  UNL     1      32.648   1.602  46.963  1.00  0.00    -0.312 NA
HETATM   28  H22 UNL     1      33.415   1.643  47.644  1.00  0.00     0.186 HD
ENDBRANCH  25  26
ENDBRANCH  23  24
ENDBRANCH  22  23
ENDBRANCH  21  22
ENDBRANCH  19  21
TORSDOF 5
ENDMDL
