MODEL 1
REMARK VINA RESULT:      -7.5      0.000      0.000
REMARK  3 active torsions:
REMARK  status: ('A' for Active; 'I' for Inactive)
REMARK    1  A    between atoms: C2_2  and  O1_3 
REMARK    2  A    between atoms: O1_3  and  C3_4 
REMARK    3  A    between atoms: N3_19  and  C14_20 
ROOT
HETATM    1  C3  UNL     1      21.581  -0.417  52.462  1.00  0.00     0.181 C 
HETATM    2  C4  UNL     1      20.340  -0.205  53.268  1.00  0.00     0.205 C 
HETATM    3  O2  UNL     1      19.328   0.569  52.852  1.00  0.00    -0.377 OA
HETATM    4  C5  UNL     1      18.784   0.321  51.571  1.00  0.00     0.263 C 
HETATM    5  C6  UNL     1      19.859   0.654  50.664  1.00  0.00    -0.050 C 
HETATM    6  C7  UNL     1      20.721   0.921  49.966  1.00  0.00     0.056 C 
HETATM    7  O3  UNL     1      21.748   1.235  49.165  1.00  0.00    -0.302 OA
HETATM    8  C8  UNL     1      22.620   2.295  49.704  1.00  0.00     0.208 C 
HETATM    9  C9  UNL     1      22.861   1.714  51.079  1.00  0.00     0.103 A 
HETATM   10  C10 UNL     1      23.751   2.077  52.131  1.00  0.00     0.471 A 
HETATM   11  C11 UNL     1      23.514   3.702  52.141  1.00  0.00     0.085 A 
HETATM   12  C12 UNL     1      24.382   3.607  53.064  1.00  0.00     0.283 A 
HETATM   13  N1  UNL     1      24.222   2.168  52.656  1.00  0.00     0.388 N 
HETATM   14  N2  UNL     1      23.129   1.345  52.233  1.00  0.00     0.000 N 
HETATM   15  C13 UNL     1      22.300   0.649  51.909  1.00  0.00    -0.026 A 
HETATM   16  N3  UNL     1      24.441   0.871  52.673  1.00  0.00     0.399 N 
ENDROOT
BRANCH  16  17
HETATM   17  C14 UNL     1      25.652   0.392  53.456  1.00  0.00     0.217 A 
HETATM   18  C15 UNL     1      26.229   0.933  54.583  1.00  0.00     0.044 A 
HETATM   19  C16 UNL     1      27.139  -0.142  54.471  1.00  0.00     0.011 A 
HETATM   20  C17 UNL     1      26.636  -0.697  53.405  1.00  0.00    -0.022 A 
HETATM   21  C18 UNL     1      26.793  -1.827  52.458  1.00  0.00     0.050 C 
ENDBRANCH  16  17
BRANCH   1  22
HETATM   22  O1  UNL     1      22.424  -1.246  53.316  1.00  0.00    -0.352 OA
BRANCH  22  23
HETATM   23  C2  UNL     1      22.006  -1.643  54.581  1.00  0.00     0.125 C 
HETATM   24  C1  UNL     1      23.060  -1.269  55.327  1.00  0.00     0.037 C 
ENDBRANCH  22  23
ENDBRANCH   1  22
TORSDOF 3
ENDMDL
MODEL 2
REMARK VINA RESULT:      -7.3      2.442      5.058
REMARK  3 active torsions:
REMARK  status: ('A' for Active; 'I' for Inactive)
REMARK    1  A    between atoms: C2_2  and  O1_3 
REMARK    2  A    between atoms: O1_3  and  C3_4 
REMARK    3  A    between atoms: N3_19  and  C14_20 
ROOT
HETATM    1  C3  UNL     1      25.451   2.731  51.496  1.00  0.00     0.181 C 
HETATM    2  C4  UNL     1      26.522   2.432  50.497  1.00  0.00     0.205 C 
HETATM    3  O2  UNL     1      26.635   3.091  49.335  1.00  0.00    -0.377 OA
HETATM    4  C5  UNL     1      26.681   4.503  49.373  1.00  0.00     0.263 C 
HETATM    5  C6  UNL     1      25.371   4.883  49.851  1.00  0.00    -0.050 C 
HETATM    6  C7  UNL     1      24.333   5.161  50.231  1.00  0.00     0.056 C 
HETATM    7  O3  UNL     1      23.108   5.465  50.683  1.00  0.00    -0.302 OA
HETATM    8  C8  UNL     1      22.069   4.499  50.281  1.00  0.00     0.208 C 
HETATM    9  C9  UNL     1      22.761   3.227  50.716  1.00  0.00     0.103 A 
HETATM   10  C10 UNL     1      22.312   1.878  50.818  1.00  0.00     0.471 A 
HETATM   11  C11 UNL     1      21.535   1.739  49.379  1.00  0.00     0.085 A 
HETATM   12  C12 UNL     1      21.320   0.579  49.850  1.00  0.00     0.283 A 
HETATM   13  N1  UNL     1      22.122   1.208  50.957  1.00  0.00     0.388 N 
HETATM   14  N2  UNL     1      23.224   2.119  51.025  1.00  0.00     0.000 N 
HETATM   15  C13 UNL     1      24.102   2.823  51.135  1.00  0.00    -0.026 A 
HETATM   16  N3  UNL     1      22.730   1.284  52.121  1.00  0.00     0.399 N 
ENDROOT
BRANCH  16  17
HETATM   17  C14 UNL     1      22.442   0.174  53.118  1.00  0.00     0.217 A 
HETATM   18  C15 UNL     1      23.321  -0.550  53.891  1.00  0.00     0.044 A 
HETATM   19  C16 UNL     1      22.160  -1.202  54.365  1.00  0.00     0.011 A 
HETATM   20  C17 UNL     1      21.283  -0.549  53.656  1.00  0.00    -0.022 A 
HETATM   21  C18 UNL     1      19.834  -0.421  53.370  1.00  0.00     0.050 C 
ENDBRANCH  16  17
BRANCH   1  22
HETATM   22  O1  UNL     1      25.659   1.743  52.548  1.00  0.00    -0.352 OA
BRANCH  22  23
HETATM   23  C2  UNL     1      26.051   2.118  53.828  1.00  0.00     0.125 C 
HETATM   24  C1  UNL     1      26.701   1.012  54.231  1.00  0.00     0.037 C 
ENDBRANCH  22  23
ENDBRANCH   1  22
TORSDOF 3
ENDMDL
MODEL 3
REMARK VINA RESULT:      -7.2      1.927      3.878
REMARK  3 active torsions:
REMARK  status: ('A' for Active; 'I' for Inactive)
REMARK    1  A    between atoms: C2_2  and  O1_3 
REMARK    2  A    between atoms: O1_3  and  C3_4 
REMARK    3  A    between atoms: N3_19  and  C14_20 
ROOT
HETATM    1  C3  UNL     1      22.884   2.722  49.989  1.00  0.00     0.181 C 
HETATM    2  C4  UNL     1      22.584   2.144  48.643  1.00  0.00     0.205 C 
HETATM    3  O2  UNL     1      21.343   1.821  48.252  1.00  0.00    -0.377 OA
HETATM    4  C5  UNL     1      20.335   2.806  48.358  1.00  0.00     0.263 C 
HETATM    5  C6  UNL     1      20.197   3.014  49.781  1.00  0.00    -0.050 C 
HETATM    6  C7  UNL     1      20.106   3.164  50.908  1.00  0.00     0.056 C 
HETATM    7  O3  UNL     1      20.018   3.327  52.235  1.00  0.00    -0.302 OA
HETATM    8  C8  UNL     1      20.322   2.107  53.006  1.00  0.00     0.208 C 
HETATM    9  C9  UNL     1      21.640   1.751  52.356  1.00  0.00     0.103 A 
HETATM   10  C10 UNL     1      22.641   0.789  52.680  1.00  0.00     0.471 A 
HETATM   11  C11 UNL     1      21.684  -0.513  52.972  1.00  0.00     0.085 A 
HETATM   12  C12 UNL     1      22.821  -1.028  53.203  1.00  0.00     0.283 A 
HETATM   13  N1  UNL     1      23.201   0.381  52.837  1.00  0.00     0.388 N 
HETATM   14  N2  UNL     1      22.723   1.353  51.901  1.00  0.00     0.000 N 
HETATM   15  C13 UNL     1      22.396   2.150  51.169  1.00  0.00    -0.026 A 
HETATM   16  N3  UNL     1      23.998   1.403  52.616  1.00  0.00     0.399 N 
ENDROOT
BRANCH  16  17
HETATM   17  C14 UNL     1      25.438   1.261  53.081  1.00  0.00     0.217 A 
HETATM   18  C15 UNL     1      26.226   2.162  53.761  1.00  0.00     0.044 A 
HETATM   19  C16 UNL     1      27.214   1.154  53.684  1.00  0.00     0.011 A 
HETATM   20  C17 UNL     1      26.515   0.263  53.039  1.00  0.00    -0.022 A 
HETATM   21  C18 UNL     1      26.560  -1.101  52.459  1.00  0.00     0.050 C 
ENDBRANCH  16  17
BRANCH   1  22
HETATM   22  O1  UNL     1      24.337   2.840  50.011  1.00  0.00    -0.352 OA
BRANCH  22  23
HETATM   23  C2  UNL     1      24.962   4.035  50.350  1.00  0.00     0.125 C 
HETATM   24  C1  UNL     1      26.246   3.735  50.088  1.00  0.00     0.037 C 
ENDBRANCH  22  23
ENDBRANCH   1  22
TORSDOF 3
ENDMDL
MODEL 4
REMARK VINA RESULT:      -7.2     11.083     12.973
REMARK  3 active torsions:
REMARK  status: ('A' for Active; 'I' for Inactive)
REMARK    1  A    between atoms: C2_2  and  O1_3 
REMARK    2  A    between atoms: O1_3  and  C3_4 
REMARK    3  A    between atoms: N3_19  and  C14_20 
ROOT
HETATM    1  C3  UNL     1      30.825   8.259  47.847  1.00  0.00     0.181 C 
HETATM    2  C4  UNL     1      30.346   8.760  49.172  1.00  0.00     0.205 C 
HETATM    3  O2  UNL     1      30.760   9.919  49.702  1.00  0.00    -0.377 OA
HETATM    4  C5  UNL     1      30.655  11.087  48.913  1.00  0.00     0.263 C 
HETATM    5  C6  UNL     1      31.583  10.860  47.828  1.00  0.00    -0.050 C 
HETATM    6  C7  UNL     1      32.319  10.661  46.980  1.00  0.00     0.056 C 
HETATM    7  O3  UNL     1      33.186  10.405  45.991  1.00  0.00    -0.302 OA
HETATM    8  C8  UNL     1      34.325   9.563  46.402  1.00  0.00     0.208 C 
HETATM    9  C9  UNL     1      33.553   8.444  47.064  1.00  0.00     0.103 A 
HETATM   10  C10 UNL     1      33.948   7.165  47.554  1.00  0.00     0.471 A 
HETATM   11  C11 UNL     1      35.306   7.594  48.371  1.00  0.00     0.085 A 
HETATM   12  C12 UNL     1      35.317   6.341  48.582  1.00  0.00     0.283 A 
HETATM   13  N1  UNL     1      34.075   6.493  47.747  1.00  0.00     0.388 N 
HETATM   14  N2  UNL     1      33.036   7.472  47.636  1.00  0.00     0.000 N 
HETATM   15  C13 UNL     1      32.184   8.206  47.519  1.00  0.00    -0.026 A 
HETATM   16  N3  UNL     1      32.996   6.112  47.098  1.00  0.00     0.399 N 
ENDROOT
BRANCH  16  17
HETATM   17  C14 UNL     1      32.828   4.619  46.867  1.00  0.00     0.217 A 
HETATM   18  C15 UNL     1      31.712   3.832  47.042  1.00  0.00     0.044 A 
HETATM   19  C16 UNL     1      32.548   2.781  46.602  1.00  0.00     0.011 A 
HETATM   20  C17 UNL     1      33.635   3.476  46.420  1.00  0.00    -0.022 A 
HETATM   21  C18 UNL     1      35.053   3.390  45.995  1.00  0.00     0.050 C 
ENDBRANCH  16  17
BRANCH   1  22
HETATM   22  O1  UNL     1      30.188   6.954  47.707  1.00  0.00    -0.352 OA
BRANCH  22  23
HETATM   23  C2  UNL     1      28.820   6.791  47.902  1.00  0.00     0.125 C 
HETATM   24  C1  UNL     1      28.771   5.506  48.295  1.00  0.00     0.037 C 
ENDBRANCH  22  23
ENDBRANCH   1  22
TORSDOF 3
ENDMDL
MODEL 5
REMARK VINA RESULT:      -7.2      2.071      3.747
REMARK  3 active torsions:
REMARK  status: ('A' for Active; 'I' for Inactive)
REMARK    1  A    between atoms: C2_2  and  O1_3 
REMARK    2  A    between atoms: O1_3  and  C3_4 
REMARK    3  A    between atoms: N3_19  and  C14_20 
ROOT
HETATM    1  C3  UNL     1      23.341   0.042  52.673  1.00  0.00     0.181 C 
HETATM    2  C4  UNL     1      23.396  -0.233  54.142  1.00  0.00     0.205 C 
HETATM    3  O2  UNL     1      22.299  -0.303  54.909  1.00  0.00    -0.377 OA
HETATM    4  C5  UNL     1      21.259  -1.172  54.505  1.00  0.00     0.263 C 
HETATM    5  C6  UNL     1      20.775  -0.590  53.274  1.00  0.00    -0.050 C 
HETATM    6  C7  UNL     1      20.409  -0.115  52.304  1.00  0.00     0.056 C 
HETATM    7  O3  UNL     1      19.998   0.457  51.164  1.00  0.00    -0.302 OA
HETATM    8  C8  UNL     1      20.153   1.923  51.145  1.00  0.00     0.208 C 
HETATM    9  C9  UNL     1      21.601   2.004  51.573  1.00  0.00     0.103 A 
HETATM   10  C10 UNL     1      22.528   3.086  51.619  1.00  0.00     0.471 A 
HETATM   11  C11 UNL     1      21.578   4.233  52.310  1.00  0.00     0.085 A 
HETATM   12  C12 UNL     1      22.644   4.905  52.155  1.00  0.00     0.283 A 
HETATM   13  N1  UNL     1      23.049   3.569  51.593  1.00  0.00     0.388 N 
HETATM   14  N2  UNL     1      22.775   2.202  51.919  1.00  0.00     0.000 N 
HETATM   15  C13 UNL     1      22.604   1.107  52.143  1.00  0.00    -0.026 A 
HETATM   16  N3  UNL     1      23.837   2.678  51.033  1.00  0.00     0.399 N 
ENDROOT
BRANCH  16  17
HETATM   17  C14 UNL     1      25.127   3.195  50.418  1.00  0.00     0.217 A 
HETATM   18  C15 UNL     1      26.406   2.697  50.532  1.00  0.00     0.044 A 
HETATM   19  C16 UNL     1      26.758   3.778  49.692  1.00  0.00     0.011 A 
HETATM   20  C17 UNL     1      25.571   4.294  49.550  1.00  0.00    -0.022 A 
HETATM   21  C18 UNL     1      24.814   5.396  48.908  1.00  0.00     0.050 C 
ENDBRANCH  16  17
BRANCH   1  22
HETATM   22  O1  UNL     1      24.741   0.104  52.269  1.00  0.00    -0.352 OA
BRANCH  22  23
HETATM   23  C2  UNL     1      25.761  -0.296  53.125  1.00  0.00     0.125 C 
HETATM   24  C1  UNL     1      26.726  -0.610  52.243  1.00  0.00     0.037 C 
ENDBRANCH  22  23
ENDBRANCH   1  22
TORSDOF 3
ENDMDL
MODEL 6
REMARK VINA RESULT:      -7.1      2.491      3.994
REMARK  3 active torsions:
REMARK  status: ('A' for Active; 'I' for Inactive)
REMARK    1  A    between atoms: C2_2  and  O1_3 
REMARK    2  A    between atoms: O1_3  and  C3_4 
REMARK    3  A    between atoms: N3_19  and  C14_20 
ROOT
HETATM    1  C3  UNL     1      23.027   0.784  51.916  1.00  0.00     0.181 C 
HETATM    2  C4  UNL     1      22.867   0.581  53.389  1.00  0.00     0.205 C 
HETATM    3  O2  UNL     1      21.670   0.567  53.994  1.00  0.00    -0.377 OA
HETATM    4  C5  UNL     1      20.679  -0.305  53.487  1.00  0.00     0.263 C 
HETATM    5  C6  UNL     1      20.388   0.223  52.173  1.00  0.00    -0.050 C 
HETATM    6  C7  UNL     1      20.174   0.655  51.140  1.00  0.00     0.056 C 
HETATM    7  O3  UNL     1      19.942   1.177  49.928  1.00  0.00    -0.302 OA
HETATM    8  C8  UNL     1      20.131   2.638  49.863  1.00  0.00     0.208 C 
HETATM    9  C9  UNL     1      21.505   2.717  50.489  1.00  0.00     0.103 A 
HETATM   10  C10 UNL     1      22.441   3.785  50.616  1.00  0.00     0.471 A 
HETATM   11  C11 UNL     1      21.428   4.979  51.110  1.00  0.00     0.085 A 
HETATM   12  C12 UNL     1      22.520   5.626  51.078  1.00  0.00     0.283 A 
HETATM   13  N1  UNL     1      22.970   4.258  50.642  1.00  0.00     0.388 N 
HETATM   14  N2  UNL     1      22.622   2.913  50.990  1.00  0.00     0.000 N 
HETATM   15  C13 UNL     1      22.397   1.834  51.238  1.00  0.00    -0.026 A 
HETATM   16  N3  UNL     1      23.810   3.328  50.243  1.00  0.00     0.399 N 
ENDROOT
BRANCH  16  17
HETATM   17  C14 UNL     1      25.186   3.794  49.796  1.00  0.00     0.217 A 
HETATM   18  C15 UNL     1      26.398   3.150  49.898  1.00  0.00     0.044 A 
HETATM   19  C16 UNL     1      26.914   4.305  49.268  1.00  0.00     0.011 A 
HETATM   20  C17 UNL     1      25.795   4.962  49.146  1.00  0.00    -0.022 A 
HETATM   21  C18 UNL     1      25.198   6.226  48.652  1.00  0.00     0.050 C 
ENDBRANCH  16  17
BRANCH   1  22
HETATM   22  O1  UNL     1      24.471   0.805  51.714  1.00  0.00    -0.352 OA
BRANCH  22  23
HETATM   23  C2  UNL     1      25.354   0.635  52.775  1.00  0.00     0.125 C 
HETATM   24  C1  UNL     1      26.422   0.126  52.138  1.00  0.00     0.037 C 
ENDBRANCH  22  23
ENDBRANCH   1  22
TORSDOF 3
ENDMDL
MODEL 7
REMARK VINA RESULT:      -7.1      1.901      5.338
REMARK  3 active torsions:
REMARK  status: ('A' for Active; 'I' for Inactive)
REMARK    1  A    between atoms: C2_2  and  O1_3 
REMARK    2  A    between atoms: O1_3  and  C3_4 
REMARK    3  A    between atoms: N3_19  and  C14_20 
ROOT
HETATM    1  C3  UNL     1      23.213   0.694  53.516  1.00  0.00     0.181 C 
HETATM    2  C4  UNL     1      24.387  -0.229  53.441  1.00  0.00     0.205 C 
HETATM    3  O2  UNL     1      25.581   0.154  52.968  1.00  0.00    -0.377 OA
HETATM    4  C5  UNL     1      26.176   1.311  53.522  1.00  0.00     0.263 C 
HETATM    5  C6  UNL     1      25.294   2.384  53.121  1.00  0.00    -0.050 C 
HETATM    6  C7  UNL     1      24.585   3.215  52.796  1.00  0.00     0.056 C 
HETATM    7  O3  UNL     1      23.736   4.175  52.406  1.00  0.00    -0.302 OA
HETATM    8  C8  UNL     1      23.075   3.898  51.117  1.00  0.00     0.208 C 
HETATM    9  C9  UNL     1      22.580   2.500  51.413  1.00  0.00     0.103 A 
HETATM   10  C10 UNL     1      21.696   1.628  50.712  1.00  0.00     0.471 A 
HETATM   11  C11 UNL     1      22.288   1.804  49.190  1.00  0.00     0.085 A 
HETATM   12  C12 UNL     1      21.336   0.996  48.957  1.00  0.00     0.283 A 
HETATM   13  N1  UNL     1      21.210   1.185  50.444  1.00  0.00     0.388 N 
HETATM   14  N2  UNL     1      22.126   1.352  51.531  1.00  0.00     0.000 N 
HETATM   15  C13 UNL     1      22.807   1.471  52.426  1.00  0.00    -0.026 A 
HETATM   16  N3  UNL     1      20.706   1.024  51.648  1.00  0.00     0.399 N 
ENDROOT
BRANCH  16  17
HETATM   17  C14 UNL     1      19.349   0.345  51.737  1.00  0.00     0.217 A 
HETATM   18  C15 UNL     1      18.869  -0.517  52.697  1.00  0.00     0.044 A 
HETATM   19  C16 UNL     1      17.694  -0.526  51.912  1.00  0.00     0.011 A 
HETATM   20  C17 UNL     1      18.096   0.284  50.974  1.00  0.00    -0.022 A 
HETATM   21  C18 UNL     1      17.690   0.945  49.709  1.00  0.00     0.050 C 
ENDBRANCH  16  17
BRANCH   1  22
HETATM   22  O1  UNL     1      22.129  -0.148  54.009  1.00  0.00    -0.352 OA
BRANCH  22  23
HETATM   23  C2  UNL     1      22.353  -1.137  54.960  1.00  0.00     0.125 C 
HETATM   24  C1  UNL     1      21.455  -2.063  54.583  1.00  0.00     0.037 C 
ENDBRANCH  22  23
ENDBRANCH   1  22
TORSDOF 3
ENDMDL
MODEL 8
REMARK VINA RESULT:      -6.8      1.747      2.275
REMARK  3 active torsions:
REMARK  status: ('A' for Active; 'I' for Inactive)
REMARK    1  A    between atoms: C2_2  and  O1_3 
REMARK    2  A    between atoms: O1_3  and  C3_4 
REMARK    3  A    between atoms: N3_19  and  C14_20 
ROOT
HETATM    1  C3  UNL     1      21.703  -0.006  52.334  1.00  0.00     0.181 C 
HETATM    2  C4  UNL     1      20.903  -0.253  53.573  1.00  0.00     0.205 C 
HETATM    3  O2  UNL     1      19.598   0.039  53.665  1.00  0.00    -0.377 OA
HETATM    4  C5  UNL     1      18.731  -0.473  52.673  1.00  0.00     0.263 C 
HETATM    5  C6  UNL     1      19.145   0.203  51.464  1.00  0.00    -0.050 C 
HETATM    6  C7  UNL     1      19.488   0.746  50.522  1.00  0.00     0.056 C 
HETATM    7  O3  UNL     1      19.910   1.392  49.427  1.00  0.00    -0.302 OA
HETATM    8  C8  UNL     1      20.449   2.737  49.700  1.00  0.00     0.208 C 
HETATM    9  C9  UNL     1      21.415   2.374  50.805  1.00  0.00     0.103 A 
HETATM   10  C10 UNL     1      22.438   3.115  51.466  1.00  0.00     0.471 A 
HETATM   11  C11 UNL     1      21.626   4.515  51.743  1.00  0.00     0.085 A 
HETATM   12  C12 UNL     1      22.752   4.820  52.245  1.00  0.00     0.283 A 
HETATM   13  N1  UNL     1      23.004   3.412  51.776  1.00  0.00     0.388 N 
HETATM   14  N2  UNL     1      22.236   2.205  51.719  1.00  0.00     0.000 N 
HETATM   15  C13 UNL     1      21.679   1.223  51.666  1.00  0.00    -0.026 A 
HETATM   16  N3  UNL     1      23.687   2.308  51.567  1.00  0.00     0.399 N 
ENDROOT
BRANCH  16  17
HETATM   17  C14 UNL     1      25.192   2.386  51.767  1.00  0.00     0.217 A 
HETATM   18  C15 UNL     1      25.935   2.106  52.892  1.00  0.00     0.044 A 
HETATM   19  C16 UNL     1      27.041   2.458  52.086  1.00  0.00     0.011 A 
HETATM   20  C17 UNL     1      26.389   2.738  50.993  1.00  0.00    -0.022 A 
HETATM   21  C18 UNL     1      26.546   3.190  49.589  1.00  0.00     0.050 C 
ENDBRANCH  16  17
BRANCH   1  22
HETATM   22  O1  UNL     1      23.060  -0.391  52.703  1.00  0.00    -0.352 OA
BRANCH  22  23
HETATM   23  C2  UNL     1      23.355  -0.889  53.968  1.00  0.00     0.125 C 
HETATM   24  C1  UNL     1      24.676  -0.651  54.035  1.00  0.00     0.037 C 
ENDBRANCH  22  23
ENDBRANCH   1  22
TORSDOF 3
ENDMDL
MODEL 9
REMARK VINA RESULT:      -6.7      1.998      2.545
REMARK  3 active torsions:
REMARK  status: ('A' for Active; 'I' for Inactive)
REMARK    1  A    between atoms: C2_2  and  O1_3 
REMARK    2  A    between atoms: O1_3  and  C3_4 
REMARK    3  A    between atoms: N3_19  and  C14_20 
ROOT
HETATM    1  C3  UNL     1      20.542   2.146  51.522  1.00  0.00     0.181 C 
HETATM    2  C4  UNL     1      19.846   3.377  52.009  1.00  0.00     0.205 C 
HETATM    3  O2  UNL     1      19.449   4.359  51.187  1.00  0.00    -0.377 OA
HETATM    4  C5  UNL     1      18.647   4.012  50.075  1.00  0.00     0.263 C 
HETATM    5  C6  UNL     1      19.523   3.213  49.248  1.00  0.00    -0.050 C 
HETATM    6  C7  UNL     1      20.230   2.584  48.612  1.00  0.00     0.056 C 
HETATM    7  O3  UNL     1      21.077   1.845  47.882  1.00  0.00    -0.302 OA
HETATM    8  C8  UNL     1      22.489   2.244  48.024  1.00  0.00     0.208 C 
HETATM    9  C9  UNL     1      22.572   2.251  49.533  1.00  0.00     0.103 A 
HETATM   10  C10 UNL     1      23.672   2.371  50.433  1.00  0.00     0.471 A 
HETATM   11  C11 UNL     1      24.466   3.624  49.728  1.00  0.00     0.085 A 
HETATM   12  C12 UNL     1      25.250   3.395  50.701  1.00  0.00     0.283 A 
HETATM   13  N1  UNL     1      24.187   2.353  50.922  1.00  0.00     0.388 N 
HETATM   14  N2  UNL     1      22.766   2.298  50.758  1.00  0.00     0.000 N 
HETATM   15  C13 UNL     1      21.643   2.206  50.661  1.00  0.00    -0.026 A 
HETATM   16  N3  UNL     1      23.582   1.345  51.510  1.00  0.00     0.399 N 
ENDROOT
BRANCH  16  17
HETATM   17  C14 UNL     1      24.377   0.588  52.561  1.00  0.00     0.217 A 
HETATM   18  C15 UNL     1      23.937  -0.011  53.720  1.00  0.00     0.044 A 
HETATM   19  C16 UNL     1      25.295  -0.360  53.897  1.00  0.00     0.011 A 
HETATM   20  C17 UNL     1      25.768   0.190  52.815  1.00  0.00    -0.022 A 
HETATM   21  C18 UNL     1      27.007   0.425  52.035  1.00  0.00     0.050 C 
ENDBRANCH  16  17
BRANCH   1  22
HETATM   22  O1  UNL     1      20.852   1.407  52.740  1.00  0.00    -0.352 OA
BRANCH  22  23
HETATM   23  C2  UNL     1      20.246   0.187  53.022  1.00  0.00     0.125 C 
HETATM   24  C1  UNL     1      20.472   0.089  54.343  1.00  0.00     0.037 C 
ENDBRANCH  22  23
ENDBRANCH   1  22
TORSDOF 3
ENDMDL
