MODEL 1
REMARK VINA RESULT:      -8.1      0.000      0.000
REMARK  0 active torsions:
REMARK  status: ('A' for Active; 'I' for Inactive)
ROOT
HETATM    1  F1  UNL     1      24.014   6.852  51.295  1.00  0.00    -0.206 F 
HETATM    2  C1  UNL     1      23.813   5.497  51.168  1.00  0.00     0.119 A 
HETATM    3  C2  UNL     1      22.485   5.084  51.209  1.00  0.00     0.043 A 
HETATM    4  C3  UNL     1      22.295   3.719  51.082  1.00  0.00     0.014 A 
HETATM    5  C4  UNL     1      23.273   2.764  50.924  1.00  0.00    -0.005 A 
HETATM    6  C5  UNL     1      24.592   3.205  50.887  1.00  0.00     0.088 A 
HETATM    7  C6  UNL     1      24.835   4.550  51.008  1.00  0.00     0.080 A 
HETATM    8  O1  UNL     1      25.790   2.537  50.744  1.00  0.00    -0.291 OA
HETATM    9  C7  UNL     1      26.528   1.994  51.761  1.00  0.00     0.174 A 
HETATM   10  C8  UNL     1      26.538   0.995  52.675  1.00  0.00     0.108 A 
HETATM   11  C9  UNL     1      26.760   0.104  53.643  1.00  0.00     0.129 A 
HETATM   12  N1  UNL     1      27.916   0.709  53.917  1.00  0.00    -0.225 NA
HETATM   13  C10 UNL     1      28.379   1.804  53.253  1.00  0.00     0.238 A 
HETATM   14  N2  UNL     1      27.731   2.405  52.247  1.00  0.00    -0.217 NA
HETATM   15  N3  UNL     1      25.939  -0.970  54.059  1.00  0.00    -0.368 N 
HETATM   16  C11 UNL     1      24.615  -0.990  54.656  1.00  0.00     0.134 C 
HETATM   17  C12 UNL     1      23.434  -0.483  54.167  1.00  0.00     0.004 C 
HETATM   18  C13 UNL     1      22.340   0.176  53.347  1.00  0.00    -0.001 C 
HETATM   19  C14 UNL     1      22.377   0.792  52.134  1.00  0.00     0.019 C 
HETATM   20  C15 UNL     1      22.845   1.369  50.812  1.00  0.00     0.122 C 
HETATM   21 CL1  UNL     1      21.572   1.241  49.591  1.00  0.00    -0.119 Cl
HETATM   22  H6  UNL     1      26.608  -1.707  53.788  1.00  0.00     0.161 HD
ENDROOT
TORSDOF 0
ENDMDL
MODEL 2
REMARK VINA RESULT:      -7.8      3.377      5.382
REMARK  0 active torsions:
REMARK  status: ('A' for Active; 'I' for Inactive)
ROOT
HETATM    1  F1  UNL     1      27.301   0.432  53.889  1.00  0.00    -0.206 F 
HETATM    2  C1  UNL     1      25.980   0.701  53.616  1.00  0.00     0.119 A 
HETATM    3  C2  UNL     1      25.113  -0.379  53.745  1.00  0.00     0.043 A 
HETATM    4  C3  UNL     1      23.786  -0.098  53.467  1.00  0.00     0.014 A 
HETATM    5  C4  UNL     1      23.266   1.118  53.086  1.00  0.00    -0.005 A 
HETATM    6  C5  UNL     1      24.157   2.181  52.965  1.00  0.00     0.088 A 
HETATM    7  C6  UNL     1      25.484   1.954  53.230  1.00  0.00     0.080 A 
HETATM    8  O1  UNL     1      23.982   3.502  52.613  1.00  0.00    -0.291 OA
HETATM    9  C7  UNL     1      23.999   3.998  51.337  1.00  0.00     0.174 A 
HETATM   10  C8  UNL     1      23.306   4.011  50.173  1.00  0.00     0.108 A 
HETATM   11  C9  UNL     1      22.803   4.165  48.947  1.00  0.00     0.129 A 
HETATM   12  N1  UNL     1      23.847   4.931  48.629  1.00  0.00    -0.225 NA
HETATM   13  C10 UNL     1      24.861   5.232  49.487  1.00  0.00     0.238 A 
HETATM   14  N2  UNL     1      24.933   4.796  50.751  1.00  0.00    -0.217 NA
HETATM   15  N3  UNL     1      21.617   3.617  48.405  1.00  0.00    -0.368 N 
HETATM   16  C11 UNL     1      21.226   2.242  48.147  1.00  0.00     0.134 C 
HETATM   17  C12 UNL     1      21.124   1.189  49.025  1.00  0.00     0.004 C 
HETATM   18  C13 UNL     1      21.119   0.275  50.237  1.00  0.00    -0.001 C 
HETATM   19  C14 UNL     1      21.420   0.516  51.543  1.00  0.00     0.019 C 
HETATM   20  C15 UNL     1      21.826   1.190  52.838  1.00  0.00     0.122 C 
HETATM   21 CL1  UNL     1      20.958   0.484  54.207  1.00  0.00    -0.119 Cl
HETATM   22  H6  UNL     1      21.151   4.527  48.267  1.00  0.00     0.161 HD
ENDROOT
TORSDOF 0
ENDMDL
MODEL 3
REMARK VINA RESULT:      -7.7      3.596      5.027
REMARK  0 active torsions:
REMARK  status: ('A' for Active; 'I' for Inactive)
ROOT
HETATM    1  F1  UNL     1      25.901   4.832  48.488  1.00  0.00    -0.206 F 
HETATM    2  C1  UNL     1      25.630   4.218  49.688  1.00  0.00     0.119 A 
HETATM    3  C2  UNL     1      26.514   3.208  50.055  1.00  0.00     0.043 A 
HETATM    4  C3  UNL     1      26.230   2.596  51.263  1.00  0.00     0.014 A 
HETATM    5  C4  UNL     1      25.182   2.888  52.107  1.00  0.00    -0.005 A 
HETATM    6  C5  UNL     1      24.314   3.902  51.714  1.00  0.00     0.088 A 
HETATM    7  C6  UNL     1      24.552   4.542  50.524  1.00  0.00     0.080 A 
HETATM    8  O1  UNL     1      23.189   4.440  52.304  1.00  0.00    -0.291 OA
HETATM    9  C7  UNL     1      21.910   3.975  52.158  1.00  0.00     0.174 A 
HETATM   10  C8  UNL     1      21.093   2.942  52.474  1.00  0.00     0.108 A 
HETATM   11  C9  UNL     1      20.122   2.048  52.662  1.00  0.00     0.129 A 
HETATM   12  N1  UNL     1      19.291   2.823  51.966  1.00  0.00    -0.225 NA
HETATM   13  C10 UNL     1      19.645   4.017  51.414  1.00  0.00     0.238 A 
HETATM   14  N2  UNL     1      20.869   4.554  51.502  1.00  0.00    -0.217 NA
HETATM   15  N3  UNL     1      20.180   0.813  53.348  1.00  0.00    -0.368 N 
HETATM   16  C11 UNL     1      20.932  -0.400  53.079  1.00  0.00     0.134 C 
HETATM   17  C12 UNL     1      22.293  -0.573  52.976  1.00  0.00     0.004 C 
HETATM   18  C13 UNL     1      23.801  -0.407  52.929  1.00  0.00    -0.001 C 
HETATM   19  C14 UNL     1      24.587   0.692  53.096  1.00  0.00     0.019 C 
HETATM   20  C15 UNL     1      25.069   2.109  53.340  1.00  0.00     0.122 C 
HETATM   21 CL1  UNL     1      26.628   2.101  54.176  1.00  0.00    -0.119 Cl
HETATM   22  H6  UNL     1      19.512   1.086  54.086  1.00  0.00     0.161 HD
ENDROOT
TORSDOF 0
ENDMDL
MODEL 4
REMARK VINA RESULT:      -7.6      1.650      2.053
REMARK  0 active torsions:
REMARK  status: ('A' for Active; 'I' for Inactive)
ROOT
HETATM    1  F1  UNL     1      26.003   7.346  49.492  1.00  0.00    -0.206 F 
HETATM    2  C1  UNL     1      25.431   6.098  49.406  1.00  0.00     0.119 A 
HETATM    3  C2  UNL     1      24.103   6.079  48.990  1.00  0.00     0.043 A 
HETATM    4  C3  UNL     1      23.537   4.818  48.909  1.00  0.00     0.014 A 
HETATM    5  C4  UNL     1      24.151   3.620  49.195  1.00  0.00    -0.005 A 
HETATM    6  C5  UNL     1      25.479   3.671  49.610  1.00  0.00     0.088 A 
HETATM    7  C6  UNL     1      26.088   4.896  49.706  1.00  0.00     0.080 A 
HETATM    8  O1  UNL     1      26.376   2.686  49.968  1.00  0.00    -0.291 OA
HETATM    9  C7  UNL     1      26.529   2.163  51.223  1.00  0.00     0.174 A 
HETATM   10  C8  UNL     1      25.920   1.388  52.152  1.00  0.00     0.108 A 
HETATM   11  C9  UNL     1      25.517   0.668  53.200  1.00  0.00     0.129 A 
HETATM   12  N1  UNL     1      26.651   0.974  53.831  1.00  0.00    -0.225 NA
HETATM   13  C10 UNL     1      27.630   1.758  53.299  1.00  0.00     0.238 A 
HETATM   14  N2  UNL     1      27.573   2.314  52.082  1.00  0.00    -0.217 NA
HETATM   15  N3  UNL     1      24.307  -0.044  53.369  1.00  0.00    -0.368 N 
HETATM   16  C11 UNL     1      22.929   0.409  53.439  1.00  0.00     0.134 C 
HETATM   17  C12 UNL     1      22.199   1.118  52.513  1.00  0.00     0.004 C 
HETATM   18  C13 UNL     1      21.704   1.885  51.301  1.00  0.00    -0.001 C 
HETATM   19  C14 UNL     1      22.328   2.230  50.142  1.00  0.00     0.019 C 
HETATM   20  C15 UNL     1      23.359   2.400  49.043  1.00  0.00     0.122 C 
HETATM   21 CL1  UNL     1      22.582   2.398  47.455  1.00  0.00    -0.119 Cl
HETATM   22  H6  UNL     1      24.753  -0.973  53.420  1.00  0.00     0.161 HD
ENDROOT
TORSDOF 0
ENDMDL
MODEL 5
REMARK VINA RESULT:      -7.6      2.831      4.488
REMARK  0 active torsions:
REMARK  status: ('A' for Active; 'I' for Inactive)
ROOT
HETATM    1  F1  UNL     1      20.355   1.788  47.823  1.00  0.00    -0.206 F 
HETATM    2  C1  UNL     1      21.331   2.110  48.737  1.00  0.00     0.119 A 
HETATM    3  C2  UNL     1      22.527   2.573  48.196  1.00  0.00     0.043 A 
HETATM    4  C3  UNL     1      23.502   2.892  49.125  1.00  0.00     0.014 A 
HETATM    5  C4  UNL     1      23.397   2.795  50.494  1.00  0.00    -0.005 A 
HETATM    6  C5  UNL     1      22.190   2.328  51.007  1.00  0.00     0.088 A 
HETATM    7  C6  UNL     1      21.190   1.999  50.128  1.00  0.00     0.080 A 
HETATM    8  O1  UNL     1      21.753   2.113  52.298  1.00  0.00    -0.291 OA
HETATM    9  C7  UNL     1      21.927   0.962  53.018  1.00  0.00     0.174 A 
HETATM   10  C8  UNL     1      22.865   0.205  53.635  1.00  0.00     0.108 A 
HETATM   11  C9  UNL     1      23.604  -0.687  54.297  1.00  0.00     0.129 A 
HETATM   12  N1  UNL     1      22.505  -1.403  54.534  1.00  0.00    -0.225 NA
HETATM   13  C10 UNL     1      21.260  -1.052  54.106  1.00  0.00     0.238 A 
HETATM   14  N2  UNL     1      20.990   0.051  53.398  1.00  0.00    -0.217 NA
HETATM   15  N3  UNL     1      25.001  -0.684  54.518  1.00  0.00    -0.368 N 
HETATM   16  C11 UNL     1      26.119  -0.780  53.597  1.00  0.00     0.134 C 
HETATM   17  C12 UNL     1      26.445   0.036  52.538  1.00  0.00     0.004 C 
HETATM   18  C13 UNL     1      26.505   1.114  51.473  1.00  0.00    -0.001 C 
HETATM   19  C14 UNL     1      25.686   2.172  51.221  1.00  0.00     0.019 C 
HETATM   20  C15 UNL     1      24.560   3.186  51.291  1.00  0.00     0.122 C 
HETATM   21 CL1  UNL     1      25.122   4.779  50.769  1.00  0.00    -0.119 Cl
HETATM   22  H6  UNL     1      24.931  -0.591  55.544  1.00  0.00     0.161 HD
ENDROOT
TORSDOF 0
ENDMDL
MODEL 6
REMARK VINA RESULT:      -7.6      4.199      5.814
REMARK  0 active torsions:
REMARK  status: ('A' for Active; 'I' for Inactive)
ROOT
HETATM    1  F1  UNL     1      21.986   2.841  46.927  1.00  0.00    -0.206 F 
HETATM    2  C1  UNL     1      22.098   2.793  48.297  1.00  0.00     0.119 A 
HETATM    3  C2  UNL     1      23.398   2.821  48.792  1.00  0.00     0.043 A 
HETATM    4  C3  UNL     1      23.497   2.771  50.171  1.00  0.00     0.014 A 
HETATM    5  C4  UNL     1      22.456   2.698  51.069  1.00  0.00    -0.005 A 
HETATM    6  C5  UNL     1      21.167   2.672  50.546  1.00  0.00     0.088 A 
HETATM    7  C6  UNL     1      21.013   2.720  49.184  1.00  0.00     0.080 A 
HETATM    8  O1  UNL     1      19.926   2.605  51.143  1.00  0.00    -0.291 OA
HETATM    9  C7  UNL     1      19.268   1.456  51.491  1.00  0.00     0.174 A 
HETATM   10  C8  UNL     1      19.298   0.413  52.355  1.00  0.00     0.108 A 
HETATM   11  C9  UNL     1      19.128  -0.687  53.089  1.00  0.00     0.129 A 
HETATM   12  N1  UNL     1      18.042  -0.982  52.374  1.00  0.00    -0.225 NA
HETATM   13  C10 UNL     1      17.574  -0.217  51.349  1.00  0.00     0.238 A 
HETATM   14  N2  UNL     1      18.147   0.921  50.936  1.00  0.00    -0.217 NA
HETATM   15  N3  UNL     1      19.927  -1.171  54.151  1.00  0.00    -0.368 N 
HETATM   16  C11 UNL     1      21.302  -1.637  54.182  1.00  0.00     0.134 C 
HETATM   17  C12 UNL     1      22.453  -0.970  53.830  1.00  0.00     0.004 C 
HETATM   18  C13 UNL     1      23.491   0.034  53.365  1.00  0.00    -0.001 C 
HETATM   19  C14 UNL     1      23.363   1.313  52.917  1.00  0.00     0.019 C 
HETATM   20  C15 UNL     1      22.793   2.653  52.492  1.00  0.00     0.122 C 
HETATM   21 CL1  UNL     1      23.922   3.959  52.872  1.00  0.00    -0.119 Cl
HETATM   22  H6  UNL     1      19.193  -1.072  54.870  1.00  0.00     0.161 HD
ENDROOT
TORSDOF 0
ENDMDL
MODEL 7
REMARK VINA RESULT:      -7.4      3.862      5.405
REMARK  0 active torsions:
REMARK  status: ('A' for Active; 'I' for Inactive)
ROOT
HETATM    1  F1  UNL     1      26.775   4.597  48.565  1.00  0.00    -0.206 F 
HETATM    2  C1  UNL     1      26.133   4.083  49.667  1.00  0.00     0.119 A 
HETATM    3  C2  UNL     1      26.643   2.882  50.149  1.00  0.00     0.043 A 
HETATM    4  C3  UNL     1      25.987   2.374  51.257  1.00  0.00     0.014 A 
HETATM    5  C4  UNL     1      24.909   2.934  51.904  1.00  0.00    -0.005 A 
HETATM    6  C5  UNL     1      24.420   4.135  51.400  1.00  0.00     0.088 A 
HETATM    7  C6  UNL     1      25.035   4.682  50.302  1.00  0.00     0.080 A 
HETATM    8  O1  UNL     1      23.379   4.951  51.793  1.00  0.00    -0.291 OA
HETATM    9  C7  UNL     1      22.076   4.831  51.393  1.00  0.00     0.174 A 
HETATM   10  C8  UNL     1      20.977   4.047  51.509  1.00  0.00     0.108 A 
HETATM   11  C9  UNL     1      19.792   3.438  51.476  1.00  0.00     0.129 A 
HETATM   12  N1  UNL     1      19.334   4.396  50.671  1.00  0.00    -0.225 NA
HETATM   13  C10 UNL     1      20.081   5.453  50.245  1.00  0.00     0.238 A 
HETATM   14  N2  UNL     1      21.361   5.656  50.581  1.00  0.00    -0.217 NA
HETATM   15  N3  UNL     1      19.401   2.235  52.110  1.00  0.00    -0.368 N 
HETATM   16  C11 UNL     1      19.855   0.866  51.934  1.00  0.00     0.134 C 
HETATM   17  C12 UNL     1      21.120   0.346  52.078  1.00  0.00     0.004 C 
HETATM   18  C13 UNL     1      22.601   0.116  52.318  1.00  0.00    -0.001 C 
HETATM   19  C14 UNL     1      23.596   0.975  52.673  1.00  0.00     0.019 C 
HETATM   20  C15 UNL     1      24.369   2.220  53.061  1.00  0.00     0.122 C 
HETATM   21 CL1  UNL     1      25.686   1.816  54.170  1.00  0.00    -0.119 Cl
HETATM   22  H6  UNL     1      18.698   2.678  52.721  1.00  0.00     0.161 HD
ENDROOT
TORSDOF 0
ENDMDL
MODEL 8
REMARK VINA RESULT:      -7.3      1.819      2.163
REMARK  0 active torsions:
REMARK  status: ('A' for Active; 'I' for Inactive)
ROOT
HETATM    1  F1  UNL     1      21.413   6.055  51.313  1.00  0.00    -0.206 F 
HETATM    2  C1  UNL     1      21.344   4.683  51.384  1.00  0.00     0.119 A 
HETATM    3  C2  UNL     1      20.104   4.165  51.742  1.00  0.00     0.043 A 
HETATM    4  C3  UNL     1      20.047   2.784  51.812  1.00  0.00     0.014 A 
HETATM    5  C4  UNL     1      21.077   1.905  51.566  1.00  0.00    -0.005 A 
HETATM    6  C5  UNL     1      22.307   2.451  51.209  1.00  0.00     0.088 A 
HETATM    7  C6  UNL     1      22.416   3.816  51.125  1.00  0.00     0.080 A 
HETATM    8  O1  UNL     1      23.521   1.876  50.900  1.00  0.00    -0.291 OA
HETATM    9  C7  UNL     1      24.497   1.540  51.799  1.00  0.00     0.174 A 
HETATM   10  C8  UNL     1      24.795   0.675  52.798  1.00  0.00     0.108 A 
HETATM   11  C9  UNL     1      25.297  -0.056  53.794  1.00  0.00     0.129 A 
HETATM   12  N1  UNL     1      26.409   0.678  53.756  1.00  0.00    -0.225 NA
HETATM   13  C10 UNL     1      26.610   1.711  52.891  1.00  0.00     0.238 A 
HETATM   14  N2  UNL     1      25.717   2.114  51.978  1.00  0.00    -0.217 NA
HETATM   15  N3  UNL     1      24.697  -1.133  54.488  1.00  0.00    -0.368 N 
HETATM   16  C11 UNL     1      23.524  -1.189  55.342  1.00  0.00     0.134 C 
HETATM   17  C12 UNL     1      22.221  -0.856  55.051  1.00  0.00     0.004 C 
HETATM   18  C13 UNL     1      20.923  -0.410  54.404  1.00  0.00    -0.001 C 
HETATM   19  C14 UNL     1      20.656   0.041  53.148  1.00  0.00     0.019 C 
HETATM   20  C15 UNL     1      20.794   0.476  51.702  1.00  0.00     0.122 C 
HETATM   21 CL1  UNL     1      19.333   0.077  50.789  1.00  0.00    -0.119 Cl
HETATM   22  H6  UNL     1      25.380  -1.838  54.171  1.00  0.00     0.161 HD
ENDROOT
TORSDOF 0
ENDMDL
MODEL 9
REMARK VINA RESULT:      -7.2      4.202      6.437
REMARK  0 active torsions:
REMARK  status: ('A' for Active; 'I' for Inactive)
ROOT
HETATM    1  F1  UNL     1      18.292  -0.550  53.222  1.00  0.00    -0.206 F 
HETATM    2  C1  UNL     1      19.595  -0.211  52.944  1.00  0.00     0.119 A 
HETATM    3  C2  UNL     1      20.419  -0.046  54.053  1.00  0.00     0.043 A 
HETATM    4  C3  UNL     1      21.728   0.296  53.761  1.00  0.00     0.014 A 
HETATM    5  C4  UNL     1      22.269   0.483  52.510  1.00  0.00    -0.005 A 
HETATM    6  C5  UNL     1      21.422   0.313  51.419  1.00  0.00     0.088 A 
HETATM    7  C6  UNL     1      20.115  -0.029  51.654  1.00  0.00     0.080 A 
HETATM    8  O1  UNL     1      21.629   0.419  50.059  1.00  0.00    -0.291 OA
HETATM    9  C7  UNL     1      21.524   1.567  49.323  1.00  0.00     0.174 A 
HETATM   10  C8  UNL     1      22.113   2.767  49.102  1.00  0.00     0.108 A 
HETATM   11  C9  UNL     1      22.514   3.982  48.725  1.00  0.00     0.129 A 
HETATM   12  N1  UNL     1      21.484   4.047  47.882  1.00  0.00    -0.225 NA
HETATM   13  C10 UNL     1      20.564   3.055  47.726  1.00  0.00     0.238 A 
HETATM   14  N2  UNL     1      20.582   1.897  48.399  1.00  0.00    -0.217 NA
HETATM   15  N3  UNL     1      23.621   4.729  49.191  1.00  0.00    -0.368 N 
HETATM   16  C11 UNL     1      23.923   5.284  50.499  1.00  0.00     0.134 C 
HETATM   17  C12 UNL     1      24.051   4.638  51.707  1.00  0.00     0.004 C 
HETATM   18  C13 UNL     1      24.119   3.631  52.840  1.00  0.00    -0.001 C 
HETATM   19  C14 UNL     1      23.944   2.281  52.852  1.00  0.00     0.019 C 
HETATM   20  C15 UNL     1      23.684   0.847  52.433  1.00  0.00     0.122 C 
HETATM   21 CL1  UNL     1      24.634  -0.271  53.419  1.00  0.00    -0.119 Cl
HETATM   22  H6  UNL     1      24.116   4.733  48.286  1.00  0.00     0.161 HD
ENDROOT
TORSDOF 0
ENDMDL
