MODEL 1
REMARK VINA RESULT:      -7.5      0.000      0.000
REMARK  2 active torsions:
REMARK  status: ('A' for Active; 'I' for Inactive)
REMARK    1  A    between atoms: C2_2  and  C3_3 
REMARK    2  A    between atoms: N1_10  and  C10_11 
ROOT
HETATM    1  C10 UNL     1      23.388   0.968  51.984  1.00  0.00     0.144 A 
HETATM    2  N2  UNL     1      24.712   0.991  52.240  1.00  0.00    -0.223 NA
HETATM    3  C11 UNL     1      25.179   0.239  53.277  1.00  0.00     0.236 A 
HETATM    4  N3  UNL     1      24.337  -0.517  54.036  1.00  0.00    -0.241 NA
HETATM    5  C12 UNL     1      23.027  -0.529  53.769  1.00  0.00     0.072 A 
HETATM    6  C13 UNL     1      22.151  -1.277  54.531  1.00  0.00     0.034 A 
HETATM    7  C14 UNL     1      20.791  -1.236  54.207  1.00  0.00     0.026 A 
HETATM    8  C15 UNL     1      20.257  -0.481  53.158  1.00  0.00     0.035 A 
HETATM    9 CL1  UNL     1      18.539  -0.518  52.862  1.00  0.00    -0.084 Cl
HETATM   10  C16 UNL     1      21.171   0.255  52.418  1.00  0.00     0.041 A 
HETATM   11  C17 UNL     1      22.515   0.218  52.731  1.00  0.00     0.041 A 
ENDROOT
BRANCH   1  12
HETATM   12  N1  UNL     1      22.938   1.770  50.807  1.00  0.00    -0.329 N 
HETATM   13  C3  UNL     1      23.556   3.034  51.108  1.00  0.00     0.136 A 
HETATM   14  C4  UNL     1      23.546   4.132  50.109  1.00  0.00     0.011 A 
HETATM   15  C5  UNL     1      23.153   4.633  48.866  1.00  0.00     0.063 A 
HETATM   16  C6  UNL     1      22.565   3.438  48.746  1.00  0.00    -0.074 A 
HETATM   17  C7  UNL     1      22.094   2.458  48.668  1.00  0.00    -0.073 A 
HETATM   18  C8  UNL     1      21.543   1.284  48.597  1.00  0.00     0.082 A 
HETATM   19  C9  UNL     1      22.083   0.985  49.851  1.00  0.00     0.102 A 
BRANCH  13  20
HETATM   20  C2  UNL     1      22.852   3.614  52.332  1.00  0.00    -0.008 C 
HETATM   21  C1  UNL     1      23.418   4.761  52.707  1.00  0.00     0.009 C 
ENDBRANCH  13  20
ENDBRANCH   1  12
TORSDOF 2
ENDMDL
MODEL 2
REMARK VINA RESULT:      -7.4      2.232      2.965
REMARK  2 active torsions:
REMARK  status: ('A' for Active; 'I' for Inactive)
REMARK    1  A    between atoms: C2_2  and  C3_3 
REMARK    2  A    between atoms: N1_10  and  C10_11 
ROOT
HETATM    1  C10 UNL     1      22.197   1.111  52.132  1.00  0.00     0.144 A 
HETATM    2  N2  UNL     1      20.926   1.147  52.581  1.00  0.00    -0.223 NA
HETATM    3  C11 UNL     1      20.641   0.519  53.758  1.00  0.00     0.236 A 
HETATM    4  N3  UNL     1      21.611  -0.127  54.465  1.00  0.00    -0.241 NA
HETATM    5  C12 UNL     1      22.866  -0.154  54.006  1.00  0.00     0.072 A 
HETATM    6  C13 UNL     1      23.864  -0.811  54.698  1.00  0.00     0.034 A 
HETATM    7  C14 UNL     1      25.154  -0.812  54.157  1.00  0.00     0.026 A 
HETATM    8  C15 UNL     1      25.501  -0.189  52.955  1.00  0.00     0.035 A 
HETATM    9 CL1  UNL     1      27.149  -0.267  52.391  1.00  0.00    -0.084 Cl
HETATM   10  C16 UNL     1      24.469   0.461  52.292  1.00  0.00     0.041 A 
HETATM   11  C17 UNL     1      23.193   0.467  52.821  1.00  0.00     0.041 A 
ENDROOT
BRANCH   1  12
HETATM   12  N1  UNL     1      22.461   1.856  50.865  1.00  0.00    -0.329 N 
HETATM   13  C3  UNL     1      23.273   2.933  51.366  1.00  0.00     0.136 A 
HETATM   14  C4  UNL     1      23.950   3.862  50.427  1.00  0.00     0.011 A 
HETATM   15  C5  UNL     1      24.198   4.296  49.123  1.00  0.00     0.063 A 
HETATM   16  C6  UNL     1      23.368   3.300  48.801  1.00  0.00    -0.074 A 
HETATM   17  C7  UNL     1      22.689   2.482  48.559  1.00  0.00    -0.073 A 
HETATM   18  C8  UNL     1      21.879   1.501  48.296  1.00  0.00     0.082 A 
HETATM   19  C9  UNL     1      21.816   1.221  49.663  1.00  0.00     0.102 A 
BRANCH  13  20
HETATM   20  C2  UNL     1      22.381   3.825  52.225  1.00  0.00    -0.008 C 
HETATM   21  C1  UNL     1      23.072   4.849  52.724  1.00  0.00     0.009 C 
ENDBRANCH  13  20
ENDBRANCH   1  12
TORSDOF 2
ENDMDL
MODEL 3
REMARK VINA RESULT:      -7.1      2.667      4.117
REMARK  2 active torsions:
REMARK  status: ('A' for Active; 'I' for Inactive)
REMARK    1  A    between atoms: C2_2  and  C3_3 
REMARK    2  A    between atoms: N1_10  and  C10_11 
ROOT
HETATM    1  C10 UNL     1      21.900   1.072  52.845  1.00  0.00     0.144 A 
HETATM    2  N2  UNL     1      21.020   0.422  53.633  1.00  0.00    -0.223 NA
HETATM    3  C11 UNL     1      21.496  -0.547  54.467  1.00  0.00     0.236 A 
HETATM    4  N3  UNL     1      22.824  -0.852  54.507  1.00  0.00    -0.241 NA
HETATM    5  C12 UNL     1      23.683  -0.198  53.720  1.00  0.00     0.072 A 
HETATM    6  C13 UNL     1      25.032  -0.496  53.734  1.00  0.00     0.034 A 
HETATM    7  C14 UNL     1      25.876   0.216  52.876  1.00  0.00     0.026 A 
HETATM    8  C15 UNL     1      25.442   1.216  52.000  1.00  0.00     0.035 A 
HETATM    9 CL1  UNL     1      26.601   2.027  50.981  1.00  0.00    -0.084 Cl
HETATM   10  C16 UNL     1      24.081   1.484  52.018  1.00  0.00     0.041 A 
HETATM   11  C17 UNL     1      23.241   0.786  52.863  1.00  0.00     0.041 A 
ENDROOT
BRANCH   1  12
HETATM   12  N1  UNL     1      21.331   2.156  51.990  1.00  0.00    -0.329 N 
HETATM   13  C3  UNL     1      20.329   1.415  51.271  1.00  0.00     0.136 A 
HETATM   14  C4  UNL     1      19.350   2.119  50.406  1.00  0.00     0.011 A 
HETATM   15  C5  UNL     1      18.870   3.300  49.834  1.00  0.00     0.063 A 
HETATM   16  C6  UNL     1      19.887   3.851  50.503  1.00  0.00    -0.074 A 
HETATM   17  C7  UNL     1      20.721   4.282  51.057  1.00  0.00    -0.073 A 
HETATM   18  C8  UNL     1      21.721   4.772  51.726  1.00  0.00     0.082 A 
HETATM   19  C9  UNL     1      21.990   3.490  52.212  1.00  0.00     0.102 A 
BRANCH  13  20
HETATM   20  C2  UNL     1      21.050   0.447  50.336  1.00  0.00    -0.008 C 
HETATM   21  C1  UNL     1      21.469   1.070  49.236  1.00  0.00     0.009 C 
ENDBRANCH  13  20
ENDBRANCH   1  12
TORSDOF 2
ENDMDL
MODEL 4
REMARK VINA RESULT:      -7.0      1.647      2.671
REMARK  2 active torsions:
REMARK  status: ('A' for Active; 'I' for Inactive)
REMARK    1  A    between atoms: C2_2  and  C3_3 
REMARK    2  A    between atoms: N1_10  and  C10_11 
ROOT
HETATM    1  C10 UNL     1      24.589   2.233  52.579  1.00  0.00     0.144 A 
HETATM    2  N2  UNL     1      25.826   2.277  53.112  1.00  0.00    -0.223 NA
HETATM    3  C11 UNL     1      26.236   1.224  53.875  1.00  0.00     0.236 A 
HETATM    4  N3  UNL     1      25.422   0.153  54.095  1.00  0.00    -0.241 NA
HETATM    5  C12 UNL     1      24.198   0.125  53.560  1.00  0.00     0.072 A 
HETATM    6  C13 UNL     1      23.349  -0.942  53.777  1.00  0.00     0.034 A 
HETATM    7  C14 UNL     1      22.077  -0.905  53.198  1.00  0.00     0.026 A 
HETATM    8  C15 UNL     1      21.603   0.149  52.411  1.00  0.00     0.035 A 
HETATM    9 CL1  UNL     1      19.992   0.071  51.749  1.00  0.00    -0.084 Cl
HETATM   10  C16 UNL     1      22.487   1.201  52.217  1.00  0.00     0.041 A 
HETATM   11  C17 UNL     1      23.746   1.170  52.784  1.00  0.00     0.041 A 
ENDROOT
BRANCH   1  12
HETATM   12  N1  UNL     1      24.211   3.389  51.712  1.00  0.00    -0.329 N 
HETATM   13  C3  UNL     1      24.575   2.871  50.420  1.00  0.00     0.136 A 
HETATM   14  C4  UNL     1      24.209   3.608  49.185  1.00  0.00     0.011 A 
HETATM   15  C5  UNL     1      23.642   4.723  48.565  1.00  0.00     0.063 A 
HETATM   16  C6  UNL     1      23.427   5.118  49.824  1.00  0.00    -0.074 A 
HETATM   17  C7  UNL     1      23.260   5.421  50.857  1.00  0.00    -0.073 A 
HETATM   18  C8  UNL     1      23.072   5.760  52.097  1.00  0.00     0.082 A 
HETATM   19  C9  UNL     1      23.642   4.546  52.488  1.00  0.00     0.102 A 
BRANCH  13  20
HETATM   20  C2  UNL     1      26.097   2.764  50.376  1.00  0.00    -0.008 C 
HETATM   21  C1  UNL     1      26.624   3.770  49.678  1.00  0.00     0.009 C 
ENDBRANCH  13  20
ENDBRANCH   1  12
TORSDOF 2
ENDMDL
MODEL 5
REMARK VINA RESULT:      -7.0      2.292      5.497
REMARK  2 active torsions:
REMARK  status: ('A' for Active; 'I' for Inactive)
REMARK    1  A    between atoms: C2_2  and  C3_3 
REMARK    2  A    between atoms: N1_10  and  C10_11 
ROOT
HETATM    1  C10 UNL     1      23.591   3.220  52.172  1.00  0.00     0.144 A 
HETATM    2  N2  UNL     1      23.786   4.139  53.139  1.00  0.00    -0.223 NA
HETATM    3  C11 UNL     1      23.685   5.457  52.804  1.00  0.00     0.236 A 
HETATM    4  N3  UNL     1      23.395   5.840  51.528  1.00  0.00    -0.241 NA
HETATM    5  C12 UNL     1      23.205   4.917  50.581  1.00  0.00     0.072 A 
HETATM    6  C13 UNL     1      22.922   5.279  49.279  1.00  0.00     0.034 A 
HETATM    7  C14 UNL     1      22.747   4.264  48.333  1.00  0.00     0.026 A 
HETATM    8  C15 UNL     1      22.842   2.899  48.620  1.00  0.00     0.035 A 
HETATM    9 CL1  UNL     1      22.602   1.735  47.344  1.00  0.00    -0.084 Cl
HETATM   10  C16 UNL     1      23.127   2.579  49.939  1.00  0.00     0.041 A 
HETATM   11  C17 UNL     1      23.300   3.575  50.879  1.00  0.00     0.041 A 
ENDROOT
BRANCH   1  12
HETATM   12  N1  UNL     1      23.665   1.793  52.605  1.00  0.00    -0.329 N 
HETATM   13  C3  UNL     1      25.027   1.734  53.066  1.00  0.00     0.136 A 
HETATM   14  C4  UNL     1      25.529   0.533  53.778  1.00  0.00     0.011 A 
HETATM   15  C5  UNL     1      25.322  -0.761  54.261  1.00  0.00     0.063 A 
HETATM   16  C6  UNL     1      24.109  -0.599  53.725  1.00  0.00    -0.074 A 
HETATM   17  C7  UNL     1      23.125  -0.447  53.282  1.00  0.00    -0.073 A 
HETATM   18  C8  UNL     1      21.958  -0.241  52.748  1.00  0.00     0.082 A 
HETATM   19  C9  UNL     1      22.374   1.047  52.400  1.00  0.00     0.102 A 
BRANCH  13  20
HETATM   20  C2  UNL     1      25.935   1.873  51.846  1.00  0.00    -0.008 C 
HETATM   21  C1  UNL     1      27.193   2.109  52.214  1.00  0.00     0.009 C 
ENDBRANCH  13  20
ENDBRANCH   1  12
TORSDOF 2
ENDMDL
MODEL 6
REMARK VINA RESULT:      -6.9      1.522      2.114
REMARK  2 active torsions:
REMARK  status: ('A' for Active; 'I' for Inactive)
REMARK    1  A    between atoms: C2_2  and  C3_3 
REMARK    2  A    between atoms: N1_10  and  C10_11 
ROOT
HETATM    1  C10 UNL     1      24.705   2.469  51.131  1.00  0.00     0.144 A 
HETATM    2  N2  UNL     1      26.034   2.684  51.200  1.00  0.00    -0.223 NA
HETATM    3  C11 UNL     1      26.778   1.867  51.999  1.00  0.00     0.236 A 
HETATM    4  N3  UNL     1      26.198   0.858  52.710  1.00  0.00    -0.241 NA
HETATM    5  C12 UNL     1      24.880   0.657  52.630  1.00  0.00     0.072 A 
HETATM    6  C13 UNL     1      24.267  -0.350  53.349  1.00  0.00     0.034 A 
HETATM    7  C14 UNL     1      22.881  -0.498  53.232  1.00  0.00     0.026 A 
HETATM    8  C15 UNL     1      22.070   0.311  52.431  1.00  0.00     0.035 A 
HETATM    9 CL1  UNL     1      20.352   0.019  52.375  1.00  0.00    -0.084 Cl
HETATM   10  C16 UNL     1      22.725   1.311  51.726  1.00  0.00     0.041 A 
HETATM   11  C17 UNL     1      24.094   1.463  51.836  1.00  0.00     0.041 A 
ENDROOT
BRANCH   1  12
HETATM   12  N1  UNL     1      23.948   3.361  50.203  1.00  0.00    -0.329 N 
HETATM   13  C3  UNL     1      24.268   4.646  50.766  1.00  0.00     0.136 A 
HETATM   14  C4  UNL     1      23.882   5.893  50.060  1.00  0.00     0.011 A 
HETATM   15  C5  UNL     1      23.245   6.532  48.993  1.00  0.00     0.063 A 
HETATM   16  C6  UNL     1      22.957   5.281  48.621  1.00  0.00    -0.074 A 
HETATM   17  C7  UNL     1      22.733   4.253  48.335  1.00  0.00    -0.073 A 
HETATM   18  C8  UNL     1      22.480   3.020  48.013  1.00  0.00     0.082 A 
HETATM   19  C9  UNL     1      23.210   2.607  49.131  1.00  0.00     0.102 A 
BRANCH  13  20
HETATM   20  C2  UNL     1      23.582   4.740  52.127  1.00  0.00    -0.008 C 
HETATM   21  C1  UNL     1      22.278   4.975  51.987  1.00  0.00     0.009 C 
ENDBRANCH  13  20
ENDBRANCH   1  12
TORSDOF 2
ENDMDL
MODEL 7
REMARK VINA RESULT:      -6.9      2.736      4.458
REMARK  2 active torsions:
REMARK  status: ('A' for Active; 'I' for Inactive)
REMARK    1  A    between atoms: C2_2  and  C3_3 
REMARK    2  A    between atoms: N1_10  and  C10_11 
ROOT
HETATM    1  C10 UNL     1      24.265   2.929  50.868  1.00  0.00     0.144 A 
HETATM    2  N2  UNL     1      24.769   3.858  50.030  1.00  0.00    -0.223 NA
HETATM    3  C11 UNL     1      26.124   3.980  49.943  1.00  0.00     0.236 A 
HETATM    4  N3  UNL     1      26.952   3.185  50.679  1.00  0.00    -0.241 NA
HETATM    5  C12 UNL     1      26.438   2.268  51.504  1.00  0.00     0.072 A 
HETATM    6  C13 UNL     1      27.254   1.458  52.269  1.00  0.00     0.034 A 
HETATM    7  C14 UNL     1      26.653   0.528  53.122  1.00  0.00     0.026 A 
HETATM    8  C15 UNL     1      25.271   0.363  53.253  1.00  0.00     0.035 A 
HETATM    9 CL1  UNL     1      24.650  -0.836  54.357  1.00  0.00    -0.084 Cl
HETATM   10  C16 UNL     1      24.487   1.195  52.467  1.00  0.00     0.041 A 
HETATM   11  C17 UNL     1      25.073   2.116  51.622  1.00  0.00     0.041 A 
ENDROOT
BRANCH   1  12
HETATM   12  N1  UNL     1      22.777   2.806  50.886  1.00  0.00    -0.329 N 
HETATM   13  C3  UNL     1      22.585   1.853  49.825  1.00  0.00     0.136 A 
HETATM   14  C4  UNL     1      21.247   1.261  49.580  1.00  0.00     0.011 A 
HETATM   15  C5  UNL     1      19.885   1.182  49.883  1.00  0.00     0.063 A 
HETATM   16  C6  UNL     1      20.191   2.120  50.784  1.00  0.00    -0.074 A 
HETATM   17  C7  UNL     1      20.461   2.884  51.513  1.00  0.00    -0.073 A 
HETATM   18  C8  UNL     1      20.808   3.792  52.375  1.00  0.00     0.082 A 
HETATM   19  C9  UNL     1      22.128   3.668  51.935  1.00  0.00     0.102 A 
BRANCH  13  20
HETATM   20  C2  UNL     1      22.955   2.540  48.513  1.00  0.00    -0.008 C 
HETATM   21  C1  UNL     1      22.396   1.917  47.476  1.00  0.00     0.009 C 
ENDBRANCH  13  20
ENDBRANCH   1  12
TORSDOF 2
ENDMDL
MODEL 8
REMARK VINA RESULT:      -6.8      2.482      3.908
REMARK  2 active torsions:
REMARK  status: ('A' for Active; 'I' for Inactive)
REMARK    1  A    between atoms: C2_2  and  C3_3 
REMARK    2  A    between atoms: N1_10  and  C10_11 
ROOT
HETATM    1  C10 UNL     1      22.129   2.531  51.803  1.00  0.00     0.144 A 
HETATM    2  N2  UNL     1      20.820   2.615  52.116  1.00  0.00    -0.223 NA
HETATM    3  C11 UNL     1      20.310   1.711  53.001  1.00  0.00     0.236 A 
HETATM    4  N3  UNL     1      21.098   0.748  53.558  1.00  0.00    -0.241 NA
HETATM    5  C12 UNL     1      22.393   0.678  53.237  1.00  0.00     0.072 A 
HETATM    6  C13 UNL     1      23.210  -0.295  53.778  1.00  0.00     0.034 A 
HETATM    7  C14 UNL     1      24.554  -0.321  53.392  1.00  0.00     0.026 A 
HETATM    8  C15 UNL     1      25.128   0.577  52.488  1.00  0.00     0.035 A 
HETATM    9 CL1  UNL     1      26.820   0.432  52.090  1.00  0.00    -0.084 Cl
HETATM   10  C16 UNL     1      24.274   1.539  51.968  1.00  0.00     0.041 A 
HETATM   11  C17 UNL     1      22.946   1.572  52.346  1.00  0.00     0.041 A 
ENDROOT
BRANCH   1  12
HETATM   12  N1  UNL     1      22.643   3.575  50.868  1.00  0.00    -0.329 N 
HETATM   13  C3  UNL     1      21.905   3.242  49.679  1.00  0.00     0.136 A 
HETATM   14  C4  UNL     1      21.942   4.136  48.496  1.00  0.00     0.011 A 
HETATM   15  C5  UNL     1      22.431   5.278  47.857  1.00  0.00     0.063 A 
HETATM   16  C6  UNL     1      23.115   5.430  48.995  1.00  0.00    -0.074 A 
HETATM   17  C7  UNL     1      23.663   5.537  49.931  1.00  0.00    -0.073 A 
HETATM   18  C8  UNL     1      24.305   5.642  51.056  1.00  0.00     0.082 A 
HETATM   19  C9  UNL     1      23.654   4.490  51.505  1.00  0.00     0.102 A 
BRANCH  13  20
HETATM   20  C2  UNL     1      22.425   1.900  49.172  1.00  0.00    -0.008 C 
HETATM   21  C1  UNL     1      21.833   1.562  48.027  1.00  0.00     0.009 C 
ENDBRANCH  13  20
ENDBRANCH   1  12
TORSDOF 2
ENDMDL
MODEL 9
REMARK VINA RESULT:      -6.7     10.848     12.973
REMARK  2 active torsions:
REMARK  status: ('A' for Active; 'I' for Inactive)
REMARK    1  A    between atoms: C2_2  and  C3_3 
REMARK    2  A    between atoms: N1_10  and  C10_11 
ROOT
HETATM    1  C10 UNL     1      32.994   7.535  46.857  1.00  0.00     0.144 A 
HETATM    2  N2  UNL     1      33.777   8.621  46.697  1.00  0.00    -0.223 NA
HETATM    3  C11 UNL     1      33.288   9.830  47.096  1.00  0.00     0.236 A 
HETATM    4  N3  UNL     1      32.045   9.943  47.643  1.00  0.00    -0.241 NA
HETATM    5  C12 UNL     1      31.281   8.857  47.794  1.00  0.00     0.072 A 
HETATM    6  C13 UNL     1      30.013   8.945  48.334  1.00  0.00     0.034 A 
HETATM    7  C14 UNL     1      29.261   7.773  48.453  1.00  0.00     0.026 A 
HETATM    8  C15 UNL     1      29.709   6.509  48.058  1.00  0.00     0.035 A 
HETATM    9 CL1  UNL     1      28.667   5.126  48.261  1.00  0.00    -0.084 Cl
HETATM   10  C16 UNL     1      30.988   6.464  47.521  1.00  0.00     0.041 A 
HETATM   11  C17 UNL     1      31.737   7.617  47.402  1.00  0.00     0.041 A 
ENDROOT
BRANCH   1  12
HETATM   12  N1  UNL     1      33.597   6.231  46.448  1.00  0.00    -0.329 N 
HETATM   13  C3  UNL     1      33.984   5.714  47.734  1.00  0.00     0.136 A 
HETATM   14  C4  UNL     1      34.477   4.321  47.866  1.00  0.00     0.011 A 
HETATM   15  C5  UNL     1      34.837   3.104  47.281  1.00  0.00     0.063 A 
HETATM   16  C6  UNL     1      34.507   3.731  46.147  1.00  0.00    -0.074 A 
HETATM   17  C7  UNL     1      34.233   4.260  45.235  1.00  0.00    -0.073 A 
HETATM   18  C8  UNL     1      33.899   4.911  44.161  1.00  0.00     0.082 A 
HETATM   19  C9  UNL     1      33.557   6.004  44.961  1.00  0.00     0.102 A 
BRANCH  13  20
HETATM   20  C2  UNL     1      35.124   6.583  48.259  1.00  0.00    -0.008 C 
HETATM   21  C1  UNL     1      35.776   5.968  49.245  1.00  0.00     0.009 C 
ENDBRANCH  13  20
ENDBRANCH   1  12
TORSDOF 2
ENDMDL
