MODEL 1
REMARK VINA RESULT:      -7.9      0.000      0.000
REMARK  8 active torsions:
REMARK  status: ('A' for Active; 'I' for Inactive)
REMARK    1  A    between atoms: C2_2  and  N1_3 
REMARK    2  A    between atoms: N1_3  and  C3_4 
REMARK    3  A    between atoms: N1_3  and  C5_6 
REMARK    4  A    between atoms: C5_6  and  C6_7 
REMARK    5  A    between atoms: C7_8  and  C8_9 
REMARK       I    between atoms: C8_9  and  N2_11 
REMARK    6  A    between atoms: N2_11  and  C9_12 
REMARK    7  A    between atoms: C13_18  and  N5_19 
REMARK    8  A    between atoms: N5_19  and  C14_20 
ROOT
HETATM    1  C9  UNL     1      25.687   6.060  49.576  1.00  0.00     0.025 A 
HETATM    2  C10 UNL     1      24.514   6.657  49.346  1.00  0.00     0.081 A 
HETATM    3  C11 UNL     1      23.902   5.568  48.983  1.00  0.00     0.048 A 
HETATM    4  N3  UNL     1      23.166   4.537  48.331  1.00  0.00    -0.248 NA
HETATM    5  C12 UNL     1      23.196   3.341  48.861  1.00  0.00     0.235 C 
HETATM    6  N4  UNL     1      23.942   3.143  50.048  1.00  0.00    -0.227 NA
HETATM    7  C13 UNL     1      24.598   4.051  50.680  1.00  0.00     0.121 C 
HETATM    8  C20 UNL     1      24.567   5.462  50.306  1.00  0.00     0.151 A 
ENDROOT
BRANCH   1   9
HETATM    9  N2  UNL     1      27.011   6.278  49.108  1.00  0.00    -0.321 N 
HETATM   10  C8  UNL     1      27.881   5.247  48.729  1.00  0.00     0.300 C 
HETATM   11  O1  UNL     1      27.475   4.077  48.806  1.00  0.00    -0.258 OA
HETATM   12  H13 UNL     1      27.381   7.250  49.032  1.00  0.00     0.169 HD
BRANCH  10  13
HETATM   13  C7  UNL     1      29.222   5.391  48.251  1.00  0.00    -0.004 C 
HETATM   14  C6  UNL     1      30.368   5.501  47.852  1.00  0.00    -0.077 C 
BRANCH  14  15
HETATM   15  C5  UNL     1      31.736   5.612  47.360  1.00  0.00     0.212 C 
BRANCH  15  16
HETATM   16  N1  UNL     1      32.409   4.375  47.547  1.00  0.00    -0.403 N 
BRANCH  16  17
HETATM   17  C2  UNL     1      33.796   4.478  47.853  1.00  0.00     0.113 C 
HETATM   18  C1  UNL     1      34.180   5.817  48.438  1.00  0.00     0.026 C 
ENDBRANCH  16  17
BRANCH  16  19
HETATM   19  C3  UNL     1      31.999   3.319  46.701  1.00  0.00     0.113 C 
HETATM   20  C4  UNL     1      32.699   2.007  46.966  1.00  0.00     0.026 C 
ENDBRANCH  16  19
ENDBRANCH  15  16
ENDBRANCH  14  15
ENDBRANCH  10  13
ENDBRANCH   1   9
BRANCH   7  21
HETATM   21  N5  UNL     1      25.294   3.621  51.857  1.00  0.00    -0.343 N 
HETATM   22  H15 UNL     1      25.775   4.283  52.510  1.00  0.00     0.167 HD
BRANCH  21  23
HETATM   23  C14 UNL     1      25.386   2.233  52.237  1.00  0.00     0.035 A 
HETATM   24  C15 UNL     1      26.557   1.665  51.759  1.00  0.00     0.032 A 
HETATM   25  C16 UNL     1      26.852   0.330  52.019  1.00  0.00     0.046 A 
HETATM   26  C17 UNL     1      25.978  -0.449  52.757  1.00  0.00     0.138 A 
HETATM   27  F1  UNL     1      26.202  -1.754  53.045  1.00  0.00    -0.204 F 
HETATM   28  C18 UNL     1      24.827   0.145  53.215  1.00  0.00     0.074 A 
HETATM   29 CL1  UNL     1      23.672  -0.773  54.155  1.00  0.00    -0.081 Cl
HETATM   30  C19 UNL     1      24.506   1.472  52.973  1.00  0.00     0.056 A 
ENDBRANCH  21  23
ENDBRANCH   7  21
TORSDOF 8
ENDMDL
MODEL 2
REMARK VINA RESULT:      -7.8      1.829      2.236
REMARK  8 active torsions:
REMARK  status: ('A' for Active; 'I' for Inactive)
REMARK    1  A    between atoms: C2_2  and  N1_3 
REMARK    2  A    between atoms: N1_3  and  C3_4 
REMARK    3  A    between atoms: N1_3  and  C5_6 
REMARK    4  A    between atoms: C5_6  and  C6_7 
REMARK    5  A    between atoms: C7_8  and  C8_9 
REMARK       I    between atoms: C8_9  and  N2_11 
REMARK    6  A    between atoms: N2_11  and  C9_12 
REMARK    7  A    between atoms: C13_18  and  N5_19 
REMARK    8  A    between atoms: N5_19  and  C14_20 
ROOT
HETATM    1  C9  UNL     1      24.666   4.942  50.802  1.00  0.00     0.025 A 
HETATM    2  C10 UNL     1      23.370   5.238  50.675  1.00  0.00     0.081 A 
HETATM    3  C11 UNL     1      22.999   4.019  50.416  1.00  0.00     0.048 A 
HETATM    4  N3  UNL     1      22.469   2.811  49.880  1.00  0.00    -0.248 NA
HETATM    5  C12 UNL     1      22.829   1.686  50.443  1.00  0.00     0.235 C 
HETATM    6  N4  UNL     1      23.708   1.733  51.552  1.00  0.00    -0.227 NA
HETATM    7  C13 UNL     1      24.188   2.803  52.081  1.00  0.00     0.121 C 
HETATM    8  C20 UNL     1      23.792   4.145  51.665  1.00  0.00     0.151 A 
ENDROOT
BRANCH   1   9
HETATM    9  N2  UNL     1      25.852   5.433  50.191  1.00  0.00    -0.321 N 
HETATM   10  C8  UNL     1      26.704   4.646  49.405  1.00  0.00     0.300 C 
HETATM   11  O1  UNL     1      26.409   3.453  49.230  1.00  0.00    -0.258 OA
HETATM   12  H13 UNL     1      26.127   6.430  50.318  1.00  0.00     0.169 HD
BRANCH  10  13
HETATM   13  C7  UNL     1      27.909   5.069  48.761  1.00  0.00    -0.004 C 
HETATM   14  C6  UNL     1      28.944   5.423  48.224  1.00  0.00    -0.077 C 
BRANCH  14  15
HETATM   15  C5  UNL     1      30.187   5.823  47.574  1.00  0.00     0.212 C 
BRANCH  15  16
HETATM   16  N1  UNL     1      31.290   5.281  48.286  1.00  0.00    -0.403 N 
BRANCH  16  17
HETATM   17  C2  UNL     1      31.677   6.005  49.450  1.00  0.00     0.113 C 
HETATM   18  C1  UNL     1      31.730   7.499  49.232  1.00  0.00     0.026 C 
ENDBRANCH  16  17
BRANCH  16  19
HETATM   19  C3  UNL     1      32.315   4.715  47.494  1.00  0.00     0.113 C 
HETATM   20  C4  UNL     1      31.880   3.524  46.675  1.00  0.00     0.026 C 
ENDBRANCH  16  19
ENDBRANCH  15  16
ENDBRANCH  14  15
ENDBRANCH  10  13
ENDBRANCH   1   9
BRANCH   7  21
HETATM   21  N5  UNL     1      25.073   2.613  53.193  1.00  0.00    -0.343 N 
HETATM   22  H15 UNL     1      24.995   3.157  54.083  1.00  0.00     0.167 HD
BRANCH  21  23
HETATM   23  C14 UNL     1      26.147   1.651  53.171  1.00  0.00     0.035 A 
HETATM   24  C15 UNL     1      27.361   2.257  53.457  1.00  0.00     0.032 A 
HETATM   25  C16 UNL     1      28.533   1.507  53.496  1.00  0.00     0.046 A 
HETATM   26  C17 UNL     1      28.501   0.146  53.248  1.00  0.00     0.138 A 
HETATM   27  F1  UNL     1      29.604  -0.642  53.269  1.00  0.00    -0.204 F 
HETATM   28  C18 UNL     1      27.282  -0.422  52.967  1.00  0.00     0.074 A 
HETATM   29 CL1  UNL     1      27.160  -2.136  52.642  1.00  0.00    -0.081 Cl
HETATM   30  C19 UNL     1      26.099   0.298  52.921  1.00  0.00     0.056 A 
ENDBRANCH  21  23
ENDBRANCH   7  21
TORSDOF 8
ENDMDL
MODEL 3
REMARK VINA RESULT:      -7.6      3.880      8.550
REMARK  8 active torsions:
REMARK  status: ('A' for Active; 'I' for Inactive)
REMARK    1  A    between atoms: C2_2  and  N1_3 
REMARK    2  A    between atoms: N1_3  and  C3_4 
REMARK    3  A    between atoms: N1_3  and  C5_6 
REMARK    4  A    between atoms: C5_6  and  C6_7 
REMARK    5  A    between atoms: C7_8  and  C8_9 
REMARK       I    between atoms: C8_9  and  N2_11 
REMARK    6  A    between atoms: N2_11  and  C9_12 
REMARK    7  A    between atoms: C13_18  and  N5_19 
REMARK    8  A    between atoms: N5_19  and  C14_20 
ROOT
HETATM    1  C9  UNL     1      28.544   7.037  48.180  1.00  0.00     0.025 A 
HETATM    2  C10 UNL     1      28.702   7.660  47.009  1.00  0.00     0.081 A 
HETATM    3  C11 UNL     1      29.361   8.666  47.504  1.00  0.00     0.048 A 
HETATM    4  N3  UNL     1      29.864   9.936  47.908  1.00  0.00    -0.248 NA
HETATM    5  C12 UNL     1      30.828   9.954  48.792  1.00  0.00     0.235 C 
HETATM    6  N4  UNL     1      31.322   8.722  49.285  1.00  0.00    -0.227 NA
HETATM    7  C13 UNL     1      30.913   7.556  48.927  1.00  0.00     0.121 C 
HETATM    8  C20 UNL     1      29.939   7.345  47.860  1.00  0.00     0.151 A 
ENDROOT
BRANCH   1   9
HETATM    9  N2  UNL     1      27.413   6.553  48.892  1.00  0.00    -0.321 N 
HETATM   10  C8  UNL     1      27.118   5.193  49.050  1.00  0.00     0.300 C 
HETATM   11  O1  UNL     1      27.885   4.361  48.540  1.00  0.00    -0.258 OA
HETATM   12  H13 UNL     1      26.750   7.227  49.332  1.00  0.00     0.169 HD
BRANCH  10  13
HETATM   13  C7  UNL     1      26.002   4.634  49.751  1.00  0.00    -0.004 C 
HETATM   14  C6  UNL     1      25.055   4.168  50.360  1.00  0.00    -0.077 C 
BRANCH  14  15
HETATM   15  C5  UNL     1      23.910   3.632  51.084  1.00  0.00     0.212 C 
BRANCH  15  16
HETATM   16  N1  UNL     1      24.315   2.501  51.842  1.00  0.00    -0.403 N 
BRANCH  16  17
HETATM   17  C2  UNL     1      23.606   1.298  51.566  1.00  0.00     0.113 C 
HETATM   18  C1  UNL     1      22.744   0.836  52.718  1.00  0.00     0.026 C 
ENDBRANCH  16  17
BRANCH  16  19
HETATM   19  C3  UNL     1      24.675   2.757  53.185  1.00  0.00     0.113 C 
HETATM   20  C4  UNL     1      26.023   2.205  53.581  1.00  0.00     0.026 C 
ENDBRANCH  16  19
ENDBRANCH  15  16
ENDBRANCH  14  15
ENDBRANCH  10  13
ENDBRANCH   1   9
BRANCH   7  21
HETATM   21  N5  UNL     1      31.548   6.443  49.568  1.00  0.00    -0.343 N 
HETATM   22  H15 UNL     1      31.426   6.222  50.583  1.00  0.00     0.167 HD
BRANCH  21  23
HETATM   23  C14 UNL     1      32.411   5.531  48.858  1.00  0.00     0.035 A 
HETATM   24  C15 UNL     1      33.731   5.953  48.912  1.00  0.00     0.032 A 
HETATM   25  C16 UNL     1      34.735   5.213  48.296  1.00  0.00     0.046 A 
HETATM   26  C17 UNL     1      34.429   4.044  47.619  1.00  0.00     0.138 A 
HETATM   27  F1  UNL     1      35.357   3.277  46.998  1.00  0.00    -0.204 F 
HETATM   28  C18 UNL     1      33.112   3.655  47.585  1.00  0.00     0.074 A 
HETATM   29 CL1  UNL     1      32.645   2.191  46.750  1.00  0.00    -0.081 Cl
HETATM   30  C19 UNL     1      32.090   4.371  48.189  1.00  0.00     0.056 A 
ENDBRANCH  21  23
ENDBRANCH   7  21
TORSDOF 8
ENDMDL
MODEL 4
REMARK VINA RESULT:      -7.6      4.855      7.156
REMARK  8 active torsions:
REMARK  status: ('A' for Active; 'I' for Inactive)
REMARK    1  A    between atoms: C2_2  and  N1_3 
REMARK    2  A    between atoms: N1_3  and  C3_4 
REMARK    3  A    between atoms: N1_3  and  C5_6 
REMARK    4  A    between atoms: C5_6  and  C6_7 
REMARK    5  A    between atoms: C7_8  and  C8_9 
REMARK       I    between atoms: C8_9  and  N2_11 
REMARK    6  A    between atoms: N2_11  and  C9_12 
REMARK    7  A    between atoms: C13_18  and  N5_19 
REMARK    8  A    between atoms: N5_19  and  C14_20 
ROOT
HETATM    1  C9  UNL     1      20.977   0.813  51.064  1.00  0.00     0.025 A 
HETATM    2  C10 UNL     1      19.671   0.543  51.128  1.00  0.00     0.081 A 
HETATM    3  C11 UNL     1      19.314   1.767  51.382  1.00  0.00     0.048 A 
HETATM    4  N3  UNL     1      18.784   2.982  51.905  1.00  0.00    -0.248 NA
HETATM    5  C12 UNL     1      19.193   4.103  51.369  1.00  0.00     0.235 C 
HETATM    6  N4  UNL     1      20.122   4.047  50.302  1.00  0.00    -0.227 NA
HETATM    7  C13 UNL     1      20.604   2.972  49.785  1.00  0.00     0.121 C 
HETATM    8  C20 UNL     1      20.161   1.635  50.169  1.00  0.00     0.151 A 
ENDROOT
BRANCH   1   9
HETATM    9  N2  UNL     1      22.124   0.291  51.724  1.00  0.00    -0.321 N 
HETATM   10  C8  UNL     1      22.982   1.065  52.517  1.00  0.00     0.300 C 
HETATM   11  O1  UNL     1      22.729   2.272  52.653  1.00  0.00    -0.258 OA
HETATM   12  H13 UNL     1      22.362  -0.719  51.630  1.00  0.00     0.169 HD
BRANCH  10  13
HETATM   13  C7  UNL     1      24.149   0.611  53.209  1.00  0.00    -0.004 C 
HETATM   14  C6  UNL     1      25.146   0.239  53.803  1.00  0.00    -0.077 C 
BRANCH  14  15
HETATM   15  C5  UNL     1      26.326  -0.203  54.535  1.00  0.00     0.212 C 
BRANCH  15  16
HETATM   16  N1  UNL     1      27.480   0.432  54.002  1.00  0.00    -0.403 N 
BRANCH  16  17
HETATM   17  C2  UNL     1      28.725  -0.098  54.445  1.00  0.00     0.113 C 
HETATM   18  C1  UNL     1      29.292  -1.144  53.513  1.00  0.00     0.026 C 
ENDBRANCH  16  17
BRANCH  16  19
HETATM   19  C3  UNL     1      27.387   1.833  53.830  1.00  0.00     0.113 C 
HETATM   20  C4  UNL     1      28.709   2.513  53.567  1.00  0.00     0.026 C 
ENDBRANCH  16  19
ENDBRANCH  15  16
ENDBRANCH  14  15
ENDBRANCH  10  13
ENDBRANCH   1   9
BRANCH   7  21
HETATM   21  N5  UNL     1      21.542   3.153  48.717  1.00  0.00    -0.343 N 
HETATM   22  H15 UNL     1      21.314   2.953  47.716  1.00  0.00     0.167 HD
BRANCH  21  23
HETATM   23  C14 UNL     1      22.886   3.628  48.940  1.00  0.00     0.035 A 
HETATM   24  C15 UNL     1      23.033   4.930  48.487  1.00  0.00     0.032 A 
HETATM   25  C16 UNL     1      24.253   5.588  48.611  1.00  0.00     0.046 A 
HETATM   26  C17 UNL     1      25.337   4.949  49.188  1.00  0.00     0.138 A 
HETATM   27  F1  UNL     1      26.551   5.530  49.339  1.00  0.00    -0.204 F 
HETATM   28  C18 UNL     1      25.156   3.659  49.626  1.00  0.00     0.074 A 
HETATM   29 CL1  UNL     1      26.478   2.785  50.367  1.00  0.00    -0.081 Cl
HETATM   30  C19 UNL     1      23.954   2.979  49.517  1.00  0.00     0.056 A 
ENDBRANCH  21  23
ENDBRANCH   7  21
TORSDOF 8
ENDMDL
MODEL 5
REMARK VINA RESULT:      -7.6      2.515      3.659
REMARK  8 active torsions:
REMARK  status: ('A' for Active; 'I' for Inactive)
REMARK    1  A    between atoms: C2_2  and  N1_3 
REMARK    2  A    between atoms: N1_3  and  C3_4 
REMARK    3  A    between atoms: N1_3  and  C5_6 
REMARK    4  A    between atoms: C5_6  and  C6_7 
REMARK    5  A    between atoms: C7_8  and  C8_9 
REMARK       I    between atoms: C8_9  and  N2_11 
REMARK    6  A    between atoms: N2_11  and  C9_12 
REMARK    7  A    between atoms: C13_18  and  N5_19 
REMARK    8  A    between atoms: N5_19  and  C14_20 
ROOT
HETATM    1  C9  UNL     1      23.973   4.775  51.759  1.00  0.00     0.025 A 
HETATM    2  C10 UNL     1      23.117   5.044  52.749  1.00  0.00     0.081 A 
HETATM    3  C11 UNL     1      22.108   4.439  52.195  1.00  0.00     0.048 A 
HETATM    4  N3  UNL     1      20.863   4.046  51.626  1.00  0.00    -0.248 NA
HETATM    5  C12 UNL     1      20.810   2.891  51.015  1.00  0.00     0.235 C 
HETATM    6  N4  UNL     1      21.981   2.096  50.964  1.00  0.00    -0.227 NA
HETATM    7  C13 UNL     1      23.116   2.402  51.486  1.00  0.00     0.121 C 
HETATM    8  C20 UNL     1      23.320   3.588  52.313  1.00  0.00     0.151 A 
ENDROOT
BRANCH   1   9
HETATM    9  N2  UNL     1      24.813   5.577  50.939  1.00  0.00    -0.321 N 
HETATM   10  C8  UNL     1      25.584   5.068  49.886  1.00  0.00     0.300 C 
HETATM   11  O1  UNL     1      25.533   3.851  49.653  1.00  0.00    -0.258 OA
HETATM   12  H13 UNL     1      24.877   6.603  51.109  1.00  0.00     0.169 HD
BRANCH  10  13
HETATM   13  C7  UNL     1      26.449   5.812  49.022  1.00  0.00    -0.004 C 
HETATM   14  C6  UNL     1      27.195   6.449  48.299  1.00  0.00    -0.077 C 
BRANCH  14  15
HETATM   15  C5  UNL     1      28.104   7.194  47.437  1.00  0.00     0.212 C 
BRANCH  15  16
HETATM   16  N1  UNL     1      29.320   7.439  48.129  1.00  0.00    -0.403 N 
BRANCH  16  17
HETATM   17  C2  UNL     1      30.044   6.276  48.516  1.00  0.00     0.113 C 
HETATM   18  C1  UNL     1      31.061   5.837  47.487  1.00  0.00     0.026 C 
ENDBRANCH  16  17
BRANCH  16  19
HETATM   19  C3  UNL     1      29.308   8.533  49.025  1.00  0.00     0.113 C 
HETATM   20  C4  UNL     1      30.663   9.155  49.261  1.00  0.00     0.026 C 
ENDBRANCH  16  19
ENDBRANCH  15  16
ENDBRANCH  14  15
ENDBRANCH  10  13
ENDBRANCH   1   9
BRANCH   7  21
HETATM   21  N5  UNL     1      24.172   1.451  51.299  1.00  0.00    -0.343 N 
HETATM   22  H15 UNL     1      24.250   0.844  50.450  1.00  0.00     0.167 HD
BRANCH  21  23
HETATM   23  C14 UNL     1      25.216   1.252  52.274  1.00  0.00     0.035 A 
HETATM   24  C15 UNL     1      24.921   0.183  53.106  1.00  0.00     0.032 A 
HETATM   25  C16 UNL     1      25.802  -0.188  54.118  1.00  0.00     0.046 A 
HETATM   26  C17 UNL     1      26.984   0.507  54.307  1.00  0.00     0.138 A 
HETATM   27  F1  UNL     1      27.884   0.199  55.272  1.00  0.00    -0.204 F 
HETATM   28  C18 UNL     1      27.244   1.561  53.465  1.00  0.00     0.074 A 
HETATM   29 CL1  UNL     1      28.717   2.488  53.641  1.00  0.00    -0.081 Cl
HETATM   30  C19 UNL     1      26.388   1.954  52.450  1.00  0.00     0.056 A 
ENDBRANCH  21  23
ENDBRANCH   7  21
TORSDOF 8
ENDMDL
MODEL 6
REMARK VINA RESULT:      -7.5      2.230      3.011
REMARK  8 active torsions:
REMARK  status: ('A' for Active; 'I' for Inactive)
REMARK    1  A    between atoms: C2_2  and  N1_3 
REMARK    2  A    between atoms: N1_3  and  C3_4 
REMARK    3  A    between atoms: N1_3  and  C5_6 
REMARK    4  A    between atoms: C5_6  and  C6_7 
REMARK    5  A    between atoms: C7_8  and  C8_9 
REMARK       I    between atoms: C8_9  and  N2_11 
REMARK    6  A    between atoms: N2_11  and  C9_12 
REMARK    7  A    between atoms: C13_18  and  N5_19 
REMARK    8  A    between atoms: N5_19  and  C14_20 
ROOT
HETATM    1  C9  UNL     1      24.114   4.917  51.431  1.00  0.00     0.025 A 
HETATM    2  C10 UNL     1      22.786   5.008  51.534  1.00  0.00     0.081 A 
HETATM    3  C11 UNL     1      22.563   3.763  51.232  1.00  0.00     0.048 A 
HETATM    4  N3  UNL     1      22.137   2.519  50.685  1.00  0.00    -0.248 NA
HETATM    5  C12 UNL     1      22.750   1.435  51.087  1.00  0.00     0.235 C 
HETATM    6  N4  UNL     1      23.785   1.557  52.045  1.00  0.00    -0.227 NA
HETATM    7  C13 UNL     1      24.182   2.657  52.582  1.00  0.00     0.121 C 
HETATM    8  C20 UNL     1      23.526   3.940  52.349  1.00  0.00     0.151 A 
ENDROOT
BRANCH   1   9
HETATM    9  N2  UNL     1      25.095   5.628  50.686  1.00  0.00    -0.321 N 
HETATM   10  C8  UNL     1      25.876   5.048  49.679  1.00  0.00     0.300 C 
HETATM   11  O1  UNL     1      25.706   3.847  49.420  1.00  0.00    -0.258 OA
HETATM   12  H13 UNL     1      25.261   6.639  50.880  1.00  0.00     0.169 HD
BRANCH  10  13
HETATM   13  C7  UNL     1      26.878   5.699  48.891  1.00  0.00    -0.004 C 
HETATM   14  C6  UNL     1      27.735   6.261  48.233  1.00  0.00    -0.077 C 
BRANCH  14  15
HETATM   15  C5  UNL     1      28.779   6.920  47.457  1.00  0.00     0.212 C 
BRANCH  15  16
HETATM   16  N1  UNL     1      29.941   7.073  48.259  1.00  0.00    -0.403 N 
BRANCH  16  17
HETATM   17  C2  UNL     1      30.709   8.244  48.000  1.00  0.00     0.113 C 
HETATM   18  C1  UNL     1      31.310   8.850  49.247  1.00  0.00     0.026 C 
ENDBRANCH  16  17
BRANCH  16  19
HETATM   19  C3  UNL     1      30.642   5.883  48.561  1.00  0.00     0.113 C 
HETATM   20  C4  UNL     1      31.534   5.389  47.447  1.00  0.00     0.026 C 
ENDBRANCH  16  19
ENDBRANCH  15  16
ENDBRANCH  14  15
ENDBRANCH  10  13
ENDBRANCH   1   9
BRANCH   7  21
HETATM   21  N5  UNL     1      25.259   2.546  53.521  1.00  0.00    -0.343 N 
HETATM   22  H15 UNL     1      25.351   3.165  54.360  1.00  0.00     0.167 HD
BRANCH  21  23
HETATM   23  C14 UNL     1      26.307   1.564  53.385  1.00  0.00     0.035 A 
HETATM   24  C15 UNL     1      27.551   2.133  53.612  1.00  0.00     0.032 A 
HETATM   25  C16 UNL     1      28.705   1.359  53.538  1.00  0.00     0.046 A 
HETATM   26  C17 UNL     1      28.626   0.011  53.235  1.00  0.00     0.138 A 
HETATM   27  F1  UNL     1      29.709  -0.799  53.146  1.00  0.00    -0.204 F 
HETATM   28  C18 UNL     1      27.378  -0.520  53.015  1.00  0.00     0.074 A 
HETATM   29 CL1  UNL     1      27.195  -2.215  52.627  1.00  0.00    -0.081 Cl
HETATM   30  C19 UNL     1      26.211   0.224  53.082  1.00  0.00     0.056 A 
ENDBRANCH  21  23
ENDBRANCH   7  21
TORSDOF 8
ENDMDL
MODEL 7
REMARK VINA RESULT:      -7.5      4.907      6.477
REMARK  8 active torsions:
REMARK  status: ('A' for Active; 'I' for Inactive)
REMARK    1  A    between atoms: C2_2  and  N1_3 
REMARK    2  A    between atoms: N1_3  and  C3_4 
REMARK    3  A    between atoms: N1_3  and  C5_6 
REMARK    4  A    between atoms: C5_6  and  C6_7 
REMARK    5  A    between atoms: C7_8  and  C8_9 
REMARK       I    between atoms: C8_9  and  N2_11 
REMARK    6  A    between atoms: N2_11  and  C9_12 
REMARK    7  A    between atoms: C13_18  and  N5_19 
REMARK    8  A    between atoms: N5_19  and  C14_20 
ROOT
HETATM    1  C9  UNL     1      22.533   3.944  51.013  1.00  0.00     0.025 A 
HETATM    2  C10 UNL     1      22.618   4.934  50.120  1.00  0.00     0.081 A 
HETATM    3  C11 UNL     1      22.118   4.244  49.138  1.00  0.00     0.048 A 
HETATM    4  N3  UNL     1      21.830   3.570  47.917  1.00  0.00    -0.248 NA
HETATM    5  C12 UNL     1      20.802   2.761  47.897  1.00  0.00     0.235 C 
HETATM    6  N4  UNL     1      20.033   2.611  49.076  1.00  0.00    -0.227 NA
HETATM    7  C13 UNL     1      20.244   3.220  50.189  1.00  0.00     0.121 C 
HETATM    8  C20 UNL     1      21.263   4.253  50.352  1.00  0.00     0.151 A 
ENDROOT
BRANCH   1   9
HETATM    9  N2  UNL     1      23.471   3.311  51.874  1.00  0.00    -0.321 N 
HETATM   10  C8  UNL     1      23.747   1.938  51.847  1.00  0.00     0.300 C 
HETATM   11  O1  UNL     1      23.140   1.232  51.026  1.00  0.00    -0.258 OA
HETATM   12  H13 UNL     1      23.997   3.877  52.573  1.00  0.00     0.169 HD
BRANCH  10  13
HETATM   13  C7  UNL     1      24.674   1.234  52.679  1.00  0.00    -0.004 C 
HETATM   14  C6  UNL     1      25.475   0.638  53.377  1.00  0.00    -0.077 C 
BRANCH  14  15
HETATM   15  C5  UNL     1      26.443  -0.053  54.220  1.00  0.00     0.212 C 
BRANCH  15  16
HETATM   16  N1  UNL     1      27.747   0.125  53.687  1.00  0.00    -0.403 N 
BRANCH  16  17
HETATM   17  C2  UNL     1      28.363  -1.055  53.180  1.00  0.00     0.113 C 
HETATM   18  C1  UNL     1      29.803  -1.208  53.611  1.00  0.00     0.026 C 
ENDBRANCH  16  17
BRANCH  16  19
HETATM   19  C3  UNL     1      28.569   1.054  54.366  1.00  0.00     0.113 C 
HETATM   20  C4  UNL     1      28.730   2.375  53.654  1.00  0.00     0.026 C 
ENDBRANCH  16  19
ENDBRANCH  15  16
ENDBRANCH  14  15
ENDBRANCH  10  13
ENDBRANCH   1   9
BRANCH   7  21
HETATM   21  N5  UNL     1      19.345   2.906  51.260  1.00  0.00    -0.343 N 
HETATM   22  H15 UNL     1      18.560   3.534  51.550  1.00  0.00     0.167 HD
BRANCH  21  23
HETATM   23  C14 UNL     1      19.450   1.689  52.027  1.00  0.00     0.035 A 
HETATM   24  C15 UNL     1      18.458   0.789  51.668  1.00  0.00     0.032 A 
HETATM   25  C16 UNL     1      18.380  -0.457  52.282  1.00  0.00     0.046 A 
HETATM   26  C17 UNL     1      19.292  -0.815  53.260  1.00  0.00     0.138 A 
HETATM   27  F1  UNL     1      19.272  -2.010  53.898  1.00  0.00    -0.204 F 
HETATM   28  C18 UNL     1      20.261   0.101  53.591  1.00  0.00     0.074 A 
HETATM   29 CL1  UNL     1      21.450  -0.277  54.818  1.00  0.00    -0.081 Cl
HETATM   30  C19 UNL     1      20.365   1.349  52.998  1.00  0.00     0.056 A 
ENDBRANCH  21  23
ENDBRANCH   7  21
TORSDOF 8
ENDMDL
MODEL 8
REMARK VINA RESULT:      -7.4      5.389     10.239
REMARK  8 active torsions:
REMARK  status: ('A' for Active; 'I' for Inactive)
REMARK    1  A    between atoms: C2_2  and  N1_3 
REMARK    2  A    between atoms: N1_3  and  C3_4 
REMARK    3  A    between atoms: N1_3  and  C5_6 
REMARK    4  A    between atoms: C5_6  and  C6_7 
REMARK    5  A    between atoms: C7_8  and  C8_9 
REMARK       I    between atoms: C8_9  and  N2_11 
REMARK    6  A    between atoms: N2_11  and  C9_12 
REMARK    7  A    between atoms: C13_18  and  N5_19 
REMARK    8  A    between atoms: N5_19  and  C14_20 
ROOT
HETATM    1  C9  UNL     1      21.941   1.642  50.582  1.00  0.00     0.025 A 
HETATM    2  C10 UNL     1      22.557   2.118  49.497  1.00  0.00     0.081 A 
HETATM    3  C11 UNL     1      22.970   3.210  50.071  1.00  0.00     0.048 A 
HETATM    4  N3  UNL     1      23.278   4.543  50.466  1.00  0.00    -0.248 NA
HETATM    5  C12 UNL     1      23.809   4.720  51.648  1.00  0.00     0.235 C 
HETATM    6  N4  UNL     1      24.058   3.586  52.458  1.00  0.00    -0.227 NA
HETATM    7  C13 UNL     1      23.818   2.365  52.129  1.00  0.00     0.121 C 
HETATM    8  C20 UNL     1      23.350   1.974  50.802  1.00  0.00     0.151 A 
ENDROOT
BRANCH   1   9
HETATM    9  N2  UNL     1      20.616   1.198  50.846  1.00  0.00    -0.321 N 
HETATM   10  C8  UNL     1      20.278   0.357  51.915  1.00  0.00     0.300 C 
HETATM   11  O1  UNL     1      21.182  -0.022  52.675  1.00  0.00    -0.258 OA
HETATM   12  H13 UNL     1      19.835   1.500  50.227  1.00  0.00     0.169 HD
BRANCH  10  13
HETATM   13  C7  UNL     1      18.972  -0.128  52.242  1.00  0.00    -0.004 C 
HETATM   14  C6  UNL     1      17.854  -0.529  52.512  1.00  0.00    -0.077 C 
BRANCH  14  15
HETATM   15  C5  UNL     1      16.513  -1.017  52.811  1.00  0.00     0.212 C 
BRANCH  15  16
HETATM   16  N1  UNL     1      16.474  -2.427  52.645  1.00  0.00    -0.403 N 
BRANCH  16  17
HETATM   17  C2  UNL     1      15.202  -2.963  52.296  1.00  0.00     0.113 C 
HETATM   18  C1  UNL     1      14.740  -2.554  50.916  1.00  0.00     0.026 C 
ENDBRANCH  16  17
BRANCH  16  19
HETATM   19  C3  UNL     1      17.279  -3.175  53.535  1.00  0.00     0.113 C 
HETATM   20  C4  UNL     1      16.990  -4.656  53.537  1.00  0.00     0.026 C 
ENDBRANCH  16  19
ENDBRANCH  15  16
ENDBRANCH  14  15
ENDBRANCH  10  13
ENDBRANCH   1   9
BRANCH   7  21
HETATM   21  N5  UNL     1      24.138   1.374  53.113  1.00  0.00    -0.343 N 
HETATM   22  H15 UNL     1      23.437   0.996  53.792  1.00  0.00     0.167 HD
BRANCH  21  23
HETATM   23  C14 UNL     1      25.460   0.814  53.246  1.00  0.00     0.035 A 
HETATM   24  C15 UNL     1      25.489  -0.501  52.806  1.00  0.00     0.032 A 
HETATM   25  C16 UNL     1      26.673  -1.231  52.839  1.00  0.00     0.046 A 
HETATM   26  C17 UNL     1      27.838  -0.654  53.314  1.00  0.00     0.138 A 
HETATM   27  F1  UNL     1      29.023  -1.308  53.374  1.00  0.00    -0.204 F 
HETATM   28  C18 UNL     1      27.775   0.650  53.742  1.00  0.00     0.074 A 
HETATM   29 CL1  UNL     1      29.204   1.449  54.355  1.00  0.00    -0.081 Cl
HETATM   30  C19 UNL     1      26.611   1.402  53.721  1.00  0.00     0.056 A 
ENDBRANCH  21  23
ENDBRANCH   7  21
TORSDOF 8
ENDMDL
MODEL 9
REMARK VINA RESULT:      -7.3      1.760      2.331
REMARK  8 active torsions:
REMARK  status: ('A' for Active; 'I' for Inactive)
REMARK    1  A    between atoms: C2_2  and  N1_3 
REMARK    2  A    between atoms: N1_3  and  C3_4 
REMARK    3  A    between atoms: N1_3  and  C5_6 
REMARK    4  A    between atoms: C5_6  and  C6_7 
REMARK    5  A    between atoms: C7_8  and  C8_9 
REMARK       I    between atoms: C8_9  and  N2_11 
REMARK    6  A    between atoms: N2_11  and  C9_12 
REMARK    7  A    between atoms: C13_18  and  N5_19 
REMARK    8  A    between atoms: N5_19  and  C14_20 
ROOT
HETATM    1  C9  UNL     1      24.575   5.452  50.712  1.00  0.00     0.025 A 
HETATM    2  C10 UNL     1      23.673   6.062  51.485  1.00  0.00     0.081 A 
HETATM    3  C11 UNL     1      22.659   5.777  50.723  1.00  0.00     0.048 A 
HETATM    4  N3  UNL     1      21.501   5.769  49.893  1.00  0.00    -0.248 NA
HETATM    5  C12 UNL     1      21.193   4.649  49.290  1.00  0.00     0.235 C 
HETATM    6  N4  UNL     1      22.012   3.515  49.505  1.00  0.00    -0.227 NA
HETATM    7  C13 UNL     1      23.049   3.474  50.265  1.00  0.00     0.121 C 
HETATM    8  C20 UNL     1      23.461   4.590  51.112  1.00  0.00     0.151 A 
ENDROOT
BRANCH   1   9
HETATM    9  N2  UNL     1      25.787   5.869  50.097  1.00  0.00    -0.321 N 
HETATM   10  C8  UNL     1      26.601   5.022  49.333  1.00  0.00     0.300 C 
HETATM   11  O1  UNL     1      26.248   3.842  49.184  1.00  0.00    -0.258 OA
HETATM   12  H13 UNL     1      26.111   6.854  50.203  1.00  0.00     0.169 HD
BRANCH  10  13
HETATM   13  C7  UNL     1      27.830   5.370  48.687  1.00  0.00    -0.004 C 
HETATM   14  C6  UNL     1      28.877   5.678  48.147  1.00  0.00    -0.077 C 
BRANCH  14  15
HETATM   15  C5  UNL     1      30.144   6.036  47.520  1.00  0.00     0.212 C 
BRANCH  15  16
HETATM   16  N1  UNL     1      31.201   5.321  48.145  1.00  0.00    -0.403 N 
BRANCH  16  17
HETATM   17  C2  UNL     1      31.620   5.834  49.405  1.00  0.00     0.113 C 
HETATM   18  C1  UNL     1      31.826   7.331  49.400  1.00  0.00     0.026 C 
ENDBRANCH  16  17
BRANCH  16  19
HETATM   19  C3  UNL     1      32.196   4.812  47.279  1.00  0.00     0.113 C 
HETATM   20  C4  UNL     1      31.917   3.421  46.764  1.00  0.00     0.026 C 
ENDBRANCH  16  19
ENDBRANCH  15  16
ENDBRANCH  14  15
ENDBRANCH  10  13
ENDBRANCH   1   9
BRANCH   7  21
HETATM   21  N5  UNL     1      23.739   2.219  50.323  1.00  0.00    -0.343 N 
HETATM   22  H15 UNL     1      24.275   1.824  49.516  1.00  0.00     0.167 HD
BRANCH  21  23
HETATM   23  C14 UNL     1      23.748   1.395  51.507  1.00  0.00     0.035 A 
HETATM   24  C15 UNL     1      22.466   0.978  51.831  1.00  0.00     0.032 A 
HETATM   25  C16 UNL     1      22.246   0.165  52.938  1.00  0.00     0.046 A 
HETATM   26  C17 UNL     1      23.306  -0.239  53.732  1.00  0.00     0.138 A 
HETATM   27  F1  UNL     1      23.163  -1.029  54.823  1.00  0.00    -0.204 F 
HETATM   28  C18 UNL     1      24.563   0.192  53.382  1.00  0.00     0.074 A 
HETATM   29 CL1  UNL     1      25.954  -0.274  54.335  1.00  0.00    -0.081 Cl
HETATM   30  C19 UNL     1      24.813   1.003  52.286  1.00  0.00     0.056 A 
ENDBRANCH  21  23
ENDBRANCH   7  21
TORSDOF 8
ENDMDL
