MODEL 1
REMARK VINA RESULT:      -8.2      0.000      0.000
REMARK  2 active torsions:
REMARK  status: ('A' for Active; 'I' for Inactive)
REMARK    1  A    between atoms: C4_4  and  O1_5 
REMARK    2  A    between atoms: C6_8  and  C7_9 
ROOT
HETATM    1  C1  UNL     1      25.368   5.386  49.301  1.00  0.00     0.010 C 
HETATM    2  C2  UNL     1      23.902   5.564  49.436  1.00  0.00    -0.008 C 
HETATM    3  C3  UNL     1      23.253   4.958  50.633  1.00  0.00     0.070 C 
HETATM    4  C4  UNL     1      23.770   5.324  51.949  1.00  0.00     0.058 C 
HETATM    5  C5  UNL     1      23.796   4.450  52.943  1.00  0.00     0.116 C 
HETATM    6  N1  UNL     1      23.401   3.089  53.083  1.00  0.00    -0.377 N 
HETATM    7  C6  UNL     1      22.668   2.164  52.269  1.00  0.00     0.185 C 
HETATM    8  N2  UNL     1      21.441   2.783  51.823  1.00  0.00    -0.292 NA
HETATM    9  C13 UNL     1      20.908   2.456  50.649  1.00  0.00     0.210 C 
HETATM   10  C14 UNL     1      21.544   1.470  49.789  1.00  0.00     0.025 C 
HETATM   11  C15 UNL     1      22.293   1.916  48.790  1.00  0.00    -0.024 C 
HETATM   12  C16 UNL     1      21.552   2.643  47.961  1.00  0.00     0.024 C 
HETATM   13  C17 UNL     1      20.950   3.895  48.397  1.00  0.00    -0.029 A 
HETATM   14  C18 UNL     1      19.581   4.049  48.682  1.00  0.00     0.012 A 
HETATM   15  C19 UNL     1      18.942   5.220  49.051  1.00  0.00     0.001 A 
HETATM   16  C20 UNL     1      19.736   6.343  49.148  1.00  0.00     0.001 A 
HETATM   17  C21 UNL     1      21.084   6.240  48.877  1.00  0.00     0.008 A 
HETATM   18  C22 UNL     1      21.726   5.077  48.509  1.00  0.00    -0.048 A 
HETATM   19  C23 UNL     1      23.162   4.962  48.216  1.00  0.00     0.044 C 
HETATM   20  H9  UNL     1      23.747   2.698  54.014  1.00  0.00     0.160 HD
ENDROOT
BRANCH   7  21
HETATM   21  C7  UNL     1      22.311   0.963  53.069  1.00  0.00    -0.022 A 
HETATM   22  C8  UNL     1      23.466   0.275  53.445  1.00  0.00     0.010 A 
HETATM   23  C9  UNL     1      23.392  -0.892  54.206  1.00  0.00     0.001 A 
HETATM   24  C10 UNL     1      22.150  -1.358  54.584  1.00  0.00     0.000 A 
HETATM   25  C11 UNL     1      21.016  -0.669  54.208  1.00  0.00     0.001 A 
HETATM   26  C12 UNL     1      21.082   0.480  53.457  1.00  0.00     0.010 A 
ENDBRANCH   7  21
BRANCH   4  27
HETATM   27  O1  UNL     1      24.179   6.619  51.950  1.00  0.00    -0.364 OA
HETATM   28  H7  UNL     1      24.247   7.191  51.116  1.00  0.00     0.217 HD
ENDBRANCH   4  27
TORSDOF 2
ENDMDL
MODEL 2
REMARK VINA RESULT:      -8.2     10.042     13.912
REMARK  2 active torsions:
REMARK  status: ('A' for Active; 'I' for Inactive)
REMARK    1  A    between atoms: C4_4  and  O1_5 
REMARK    2  A    between atoms: C6_8  and  C7_9 
ROOT
HETATM    1  C1  UNL     1      35.997   6.256  49.033  1.00  0.00     0.010 C 
HETATM    2  C2  UNL     1      34.550   6.058  48.775  1.00  0.00    -0.008 C 
HETATM    3  C3  UNL     1      34.178   5.304  47.544  1.00  0.00     0.070 C 
HETATM    4  C4  UNL     1      34.749   3.972  47.361  1.00  0.00     0.058 C 
HETATM    5  C5  UNL     1      35.066   3.522  46.157  1.00  0.00     0.116 C 
HETATM    6  N1  UNL     1      34.982   4.056  44.840  1.00  0.00    -0.377 N 
HETATM    7  C6  UNL     1      34.374   5.218  44.261  1.00  0.00     0.185 C 
HETATM    8  N2  UNL     1      33.003   5.316  44.707  1.00  0.00    -0.292 NA
HETATM    9  C13 UNL     1      32.424   6.504  44.853  1.00  0.00     0.210 C 
HETATM   10  C14 UNL     1      33.153   7.730  44.567  1.00  0.00     0.025 C 
HETATM   11  C15 UNL     1      33.677   8.388  45.591  1.00  0.00    -0.024 C 
HETATM   12  C16 UNL     1      32.714   8.767  46.424  1.00  0.00     0.024 C 
HETATM   13  C17 UNL     1      31.916   7.785  47.144  1.00  0.00    -0.029 A 
HETATM   14  C18 UNL     1      30.585   7.467  46.818  1.00  0.00     0.012 A 
HETATM   15  C19 UNL     1      29.760   6.582  47.491  1.00  0.00     0.001 A 
HETATM   16  C20 UNL     1      30.307   5.953  48.589  1.00  0.00     0.001 A 
HETATM   17  C21 UNL     1      31.609   6.234  48.946  1.00  0.00     0.008 A 
HETATM   18  C22 UNL     1      32.436   7.115  48.280  1.00  0.00    -0.048 A 
HETATM   19  C23 UNL     1      33.822   7.421  48.659  1.00  0.00     0.044 C 
HETATM   20  H9  UNL     1      35.503   3.427  44.153  1.00  0.00     0.160 HD
ENDROOT
BRANCH   7  21
HETATM   21  C7  UNL     1      34.366   5.096  42.780  1.00  0.00    -0.022 A 
HETATM   22  C8  UNL     1      35.358   5.906  42.225  1.00  0.00     0.010 A 
HETATM   23  C9  UNL     1      35.550   5.964  40.844  1.00  0.00     0.001 A 
HETATM   24  C10 UNL     1      34.739   5.203  40.031  1.00  0.00     0.000 A 
HETATM   25  C11 UNL     1      33.762   4.405  40.589  1.00  0.00     0.001 A 
HETATM   26  C12 UNL     1      33.567   4.344  41.949  1.00  0.00     0.010 A 
ENDBRANCH   7  21
BRANCH   4  27
HETATM   27  O1  UNL     1      34.877   3.346  48.559  1.00  0.00    -0.364 OA
HETATM   28  H7  UNL     1      35.547   3.617  49.269  1.00  0.00     0.217 HD
ENDBRANCH   4  27
TORSDOF 2
ENDMDL
MODEL 3
REMARK VINA RESULT:      -8.1      2.119      3.109
REMARK  2 active torsions:
REMARK  status: ('A' for Active; 'I' for Inactive)
REMARK    1  A    between atoms: C4_4  and  O1_5 
REMARK    2  A    between atoms: C6_8  and  C7_9 
ROOT
HETATM    1  C1  UNL     1      26.575   2.197  50.416  1.00  0.00     0.010 C 
HETATM    2  C2  UNL     1      25.684   3.356  50.666  1.00  0.00    -0.008 C 
HETATM    3  C3  UNL     1      24.425   3.093  51.421  1.00  0.00     0.070 C 
HETATM    4  C4  UNL     1      24.534   2.451  52.728  1.00  0.00     0.058 C 
HETATM    5  C5  UNL     1      23.613   1.599  53.153  1.00  0.00     0.116 C 
HETATM    6  N1  UNL     1      22.400   1.091  52.607  1.00  0.00    -0.377 N 
HETATM    7  C6  UNL     1      21.598   1.411  51.463  1.00  0.00     0.185 C 
HETATM    8  N2  UNL     1      21.365   2.837  51.422  1.00  0.00    -0.292 NA
HETATM    9  C13 UNL     1      21.220   3.464  50.259  1.00  0.00     0.210 C 
HETATM   10  C14 UNL     1      21.291   2.733  49.003  1.00  0.00     0.025 C 
HETATM   11  C15 UNL     1      22.437   2.763  48.337  1.00  0.00    -0.024 C 
HETATM   12  C16 UNL     1      22.732   4.014  48.004  1.00  0.00     0.024 C 
HETATM   13  C17 UNL     1      23.014   5.015  49.024  1.00  0.00    -0.029 A 
HETATM   14  C18 UNL     1      22.116   6.035  49.389  1.00  0.00     0.012 A 
HETATM   15  C19 UNL     1      22.343   7.041  50.312  1.00  0.00     0.001 A 
HETATM   16  C20 UNL     1      23.575   7.034  50.931  1.00  0.00     0.001 A 
HETATM   17  C21 UNL     1      24.487   6.053  50.605  1.00  0.00     0.008 A 
HETATM   18  C22 UNL     1      24.267   5.048  49.686  1.00  0.00    -0.048 A 
HETATM   19  C23 UNL     1      25.237   4.002  49.332  1.00  0.00     0.044 C 
HETATM   20  H9  UNL     1      22.032   0.289  53.208  1.00  0.00     0.160 HD
ENDROOT
BRANCH   7  21
HETATM   21  C7  UNL     1      20.279   0.735  51.569  1.00  0.00    -0.022 A 
HETATM   22  C8  UNL     1      20.198   0.023  52.767  1.00  0.00     0.010 A 
HETATM   23  C9  UNL     1      19.051  -0.700  53.097  1.00  0.00     0.001 A 
HETATM   24  C10 UNL     1      17.991  -0.699  52.216  1.00  0.00     0.000 A 
HETATM   25  C11 UNL     1      18.081   0.008  51.035  1.00  0.00     0.001 A 
HETATM   26  C12 UNL     1      19.208   0.721  50.703  1.00  0.00     0.010 A 
ENDBRANCH   7  21
BRANCH   4  27
HETATM   27  O1  UNL     1      25.662   2.862  53.362  1.00  0.00    -0.364 OA
HETATM   28  H7  UNL     1      25.745   3.744  53.853  1.00  0.00     0.217 HD
ENDBRANCH   4  27
TORSDOF 2
ENDMDL
MODEL 4
REMARK VINA RESULT:      -8.1      6.450      9.674
REMARK  2 active torsions:
REMARK  status: ('A' for Active; 'I' for Inactive)
REMARK    1  A    between atoms: C4_4  and  O1_5 
REMARK    2  A    between atoms: C6_8  and  C7_9 
ROOT
HETATM    1  C1  UNL     1      32.791   7.738  45.682  1.00  0.00     0.010 C 
HETATM    2  C2  UNL     1      32.199   8.724  46.619  1.00  0.00    -0.008 C 
HETATM    3  C3  UNL     1      31.273   8.198  47.661  1.00  0.00     0.070 C 
HETATM    4  C4  UNL     1      31.763   7.137  48.538  1.00  0.00     0.058 C 
HETATM    5  C5  UNL     1      30.956   6.180  48.972  1.00  0.00     0.116 C 
HETATM    6  N1  UNL     1      29.575   5.883  48.792  1.00  0.00    -0.377 N 
HETATM    7  C6  UNL     1      28.463   6.577  48.214  1.00  0.00     0.185 C 
HETATM    8  N2  UNL     1      28.409   7.923  48.738  1.00  0.00    -0.292 NA
HETATM    9  C13 UNL     1      27.936   8.918  47.994  1.00  0.00     0.210 C 
HETATM   10  C14 UNL     1      27.461   8.679  46.641  1.00  0.00     0.025 C 
HETATM   11  C15 UNL     1      28.287   8.954  45.640  1.00  0.00    -0.024 C 
HETATM   12  C16 UNL     1      28.596  10.246  45.654  1.00  0.00     0.024 C 
HETATM   13  C17 UNL     1      29.346  10.825  46.760  1.00  0.00    -0.029 A 
HETATM   14  C18 UNL     1      28.772  11.641  47.752  1.00  0.00     0.012 A 
HETATM   15  C19 UNL     1      29.437  12.259  48.797  1.00  0.00     0.001 A 
HETATM   16  C20 UNL     1      30.798  12.048  48.864  1.00  0.00     0.001 A 
HETATM   17  C21 UNL     1      31.404  11.256  47.911  1.00  0.00     0.008 A 
HETATM   18  C22 UNL     1      30.747  10.637  46.868  1.00  0.00    -0.048 A 
HETATM   19  C23 UNL     1      31.388   9.795  45.849  1.00  0.00     0.044 C 
HETATM   20  H9  UNL     1      29.352   4.916  49.186  1.00  0.00     0.160 HD
ENDROOT
BRANCH   7  21
HETATM   21  C7  UNL     1      27.196   5.892  48.581  1.00  0.00    -0.022 A 
HETATM   22  C8  UNL     1      27.455   4.574  48.962  1.00  0.00     0.010 A 
HETATM   23  C9  UNL     1      26.422   3.722  49.353  1.00  0.00     0.001 A 
HETATM   24  C10 UNL     1      25.131   4.207  49.358  1.00  0.00     0.000 A 
HETATM   25  C11 UNL     1      24.886   5.511  48.981  1.00  0.00     0.001 A 
HETATM   26  C12 UNL     1      25.900   6.355  48.593  1.00  0.00     0.010 A 
ENDBRANCH   7  21
BRANCH   4  27
HETATM   27  O1  UNL     1      33.084   7.310  48.794  1.00  0.00    -0.364 OA
HETATM   28  H7  UNL     1      33.670   7.982  48.311  1.00  0.00     0.217 HD
ENDBRANCH   4  27
TORSDOF 2
ENDMDL
MODEL 5
REMARK VINA RESULT:      -8.0      1.719      2.480
REMARK  2 active torsions:
REMARK  status: ('A' for Active; 'I' for Inactive)
REMARK    1  A    between atoms: C4_4  and  O1_5 
REMARK    2  A    between atoms: C6_8  and  C7_9 
ROOT
HETATM    1  C1  UNL     1      22.365   6.227  48.512  1.00  0.00     0.010 C 
HETATM    2  C2  UNL     1      21.285   5.617  49.325  1.00  0.00    -0.008 C 
HETATM    3  C3  UNL     1      21.695   4.882  50.555  1.00  0.00     0.070 C 
HETATM    4  C4  UNL     1      22.508   5.595  51.538  1.00  0.00     0.058 C 
HETATM    5  C5  UNL     1      23.442   4.969  52.237  1.00  0.00     0.116 C 
HETATM    6  N1  UNL     1      23.913   3.627  52.293  1.00  0.00    -0.377 N 
HETATM    7  C6  UNL     1      23.466   2.379  51.747  1.00  0.00     0.185 C 
HETATM    8  N2  UNL     1      22.058   2.209  52.024  1.00  0.00    -0.292 NA
HETATM    9  C13 UNL     1      21.281   1.536  51.181  1.00  0.00     0.210 C 
HETATM   10  C14 UNL     1      21.827   0.953  49.965  1.00  0.00     0.025 C 
HETATM   11  C15 UNL     1      21.665   1.625  48.833  1.00  0.00    -0.024 C 
HETATM   12  C16 UNL     1      20.370   1.766  48.575  1.00  0.00     0.024 C 
HETATM   13  C17 UNL     1      19.511   2.549  49.452  1.00  0.00    -0.029 A 
HETATM   14  C18 UNL     1      18.584   1.985  50.348  1.00  0.00     0.012 A 
HETATM   15  C19 UNL     1      17.708   2.673  51.170  1.00  0.00     0.001 A 
HETATM   16  C20 UNL     1      17.757   4.049  51.097  1.00  0.00     0.001 A 
HETATM   17  C21 UNL     1      18.650   4.646  50.233  1.00  0.00     0.008 A 
HETATM   18  C22 UNL     1      19.525   3.966  49.411  1.00  0.00    -0.048 A 
HETATM   19  C23 UNL     1      20.476   4.597  48.486  1.00  0.00     0.044 C 
HETATM   20  H9  UNL     1      24.803   3.572  52.880  1.00  0.00     0.160 HD
ENDROOT
BRANCH   7  21
HETATM   21  C7  UNL     1      24.198   1.257  52.392  1.00  0.00    -0.022 A 
HETATM   22  C8  UNL     1      25.477   1.141  51.848  1.00  0.00     0.010 A 
HETATM   23  C9  UNL     1      26.361   0.156  52.291  1.00  0.00     0.001 A 
HETATM   24  C10 UNL     1      25.947  -0.706  53.284  1.00  0.00     0.000 A 
HETATM   25  C11 UNL     1      24.680  -0.582  53.815  1.00  0.00     0.001 A 
HETATM   26  C12 UNL     1      23.804   0.385  53.382  1.00  0.00     0.010 A 
ENDBRANCH   7  21
BRANCH   4  27
HETATM   27  O1  UNL     1      22.149   6.903  51.586  1.00  0.00    -0.364 OA
HETATM   28  H7  UNL     1      21.226   7.245  51.343  1.00  0.00     0.217 HD
ENDBRANCH   4  27
TORSDOF 2
ENDMDL
MODEL 6
REMARK VINA RESULT:      -7.9      2.024      4.200
REMARK  2 active torsions:
REMARK  status: ('A' for Active; 'I' for Inactive)
REMARK    1  A    between atoms: C4_4  and  O1_5 
REMARK    2  A    between atoms: C6_8  and  C7_9 
ROOT
HETATM    1  C1  UNL     1      20.134   5.239  47.278  1.00  0.00     0.010 C 
HETATM    2  C2  UNL     1      21.578   5.432  47.557  1.00  0.00    -0.008 C 
HETATM    3  C3  UNL     1      22.319   4.272  48.129  1.00  0.00     0.070 C 
HETATM    4  C4  UNL     1      22.271   3.006  47.402  1.00  0.00     0.058 C 
HETATM    5  C5  UNL     1      22.261   1.847  48.043  1.00  0.00     0.116 C 
HETATM    6  N1  UNL     1      22.293   1.467  49.415  1.00  0.00    -0.377 N 
HETATM    7  C6  UNL     1      22.515   2.164  50.648  1.00  0.00     0.185 C 
HETATM    8  N2  UNL     1      23.711   2.969  50.537  1.00  0.00    -0.292 NA
HETATM    9  C13 UNL     1      23.820   4.111  51.209  1.00  0.00     0.210 C 
HETATM   10  C14 UNL     1      22.744   4.576  52.070  1.00  0.00     0.025 C 
HETATM   11  C15 UNL     1      21.917   5.491  51.582  1.00  0.00    -0.024 C 
HETATM   12  C16 UNL     1      22.593   6.594  51.279  1.00  0.00     0.024 C 
HETATM   13  C17 UNL     1      23.602   6.589  50.230  1.00  0.00    -0.029 A 
HETATM   14  C18 UNL     1      24.987   6.615  50.475  1.00  0.00     0.012 A 
HETATM   15  C19 UNL     1      25.992   6.661  49.525  1.00  0.00     0.001 A 
HETATM   16  C20 UNL     1      25.586   6.684  48.207  1.00  0.00     0.001 A 
HETATM   17  C21 UNL     1      24.237   6.660  47.919  1.00  0.00     0.008 A 
HETATM   18  C22 UNL     1      23.231   6.614  48.861  1.00  0.00    -0.048 A 
HETATM   19  C23 UNL     1      21.793   6.593  48.560  1.00  0.00     0.044 C 
HETATM   20  H9  UNL     1      22.100   0.422  49.513  1.00  0.00     0.160 HD
ENDROOT
BRANCH   7  21
HETATM   21  C7  UNL     1      22.723   1.186  51.747  1.00  0.00    -0.022 A 
HETATM   22  C8  UNL     1      21.523   0.538  52.048  1.00  0.00     0.010 A 
HETATM   23  C9  UNL     1      21.460  -0.430  53.051  1.00  0.00     0.001 A 
HETATM   24  C10 UNL     1      22.611  -0.740  53.745  1.00  0.00     0.000 A 
HETATM   25  C11 UNL     1      23.791  -0.094  53.439  1.00  0.00     0.001 A 
HETATM   26  C12 UNL     1      23.859   0.861  52.453  1.00  0.00     0.010 A 
ENDBRANCH   7  21
BRANCH   4  27
HETATM   27  O1  UNL     1      22.243   3.232  46.064  1.00  0.00    -0.364 OA
HETATM   28  H7  UNL     1      22.528   2.552  45.369  1.00  0.00     0.217 HD
ENDBRANCH   4  27
TORSDOF 2
ENDMDL
MODEL 7
REMARK VINA RESULT:      -7.5      7.529     11.104
REMARK  2 active torsions:
REMARK  status: ('A' for Active; 'I' for Inactive)
REMARK    1  A    between atoms: C4_4  and  O1_5 
REMARK    2  A    between atoms: C6_8  and  C7_9 
ROOT
HETATM    1  C1  UNL     1      34.084   5.172  46.078  1.00  0.00     0.010 C 
HETATM    2  C2  UNL     1      33.899   6.569  46.542  1.00  0.00    -0.008 C 
HETATM    3  C3  UNL     1      32.803   6.819  47.521  1.00  0.00     0.070 C 
HETATM    4  C4  UNL     1      32.801   6.039  48.757  1.00  0.00     0.058 C 
HETATM    5  C5  UNL     1      31.666   5.659  49.324  1.00  0.00     0.116 C 
HETATM    6  N1  UNL     1      30.288   5.835  49.012  1.00  0.00    -0.377 N 
HETATM    7  C6  UNL     1      29.564   6.627  48.062  1.00  0.00     0.185 C 
HETATM    8  N2  UNL     1      30.030   7.994  48.120  1.00  0.00    -0.292 NA
HETATM    9  C13 UNL     1      30.018   8.758  47.032  1.00  0.00     0.210 C 
HETATM   10  C14 UNL     1      29.535   8.240  45.762  1.00  0.00     0.025 C 
HETATM   11  C15 UNL     1      30.437   7.825  44.883  1.00  0.00    -0.024 C 
HETATM   12  C16 UNL     1      31.232   8.833  44.543  1.00  0.00     0.024 C 
HETATM   13  C17 UNL     1      32.111   9.457  45.523  1.00  0.00    -0.029 A 
HETATM   14  C18 UNL     1      31.873  10.720  46.096  1.00  0.00     0.012 A 
HETATM   15  C19 UNL     1      32.691  11.386  46.992  1.00  0.00     0.001 A 
HETATM   16  C20 UNL     1      33.854  10.738  47.354  1.00  0.00     0.001 A 
HETATM   17  C21 UNL     1      34.128   9.498  46.817  1.00  0.00     0.008 A 
HETATM   18  C22 UNL     1      33.317   8.829  45.925  1.00  0.00    -0.048 A 
HETATM   19  C23 UNL     1      33.607   7.509  45.347  1.00  0.00     0.044 C 
HETATM   20  H9  UNL     1      29.685   5.221  49.644  1.00  0.00     0.160 HD
ENDROOT
BRANCH   7  21
HETATM   21  C7  UNL     1      28.117   6.622  48.403  1.00  0.00    -0.022 A 
HETATM   22  C8  UNL     1      27.673   5.313  48.596  1.00  0.00     0.010 A 
HETATM   23  C9  UNL     1      26.344   5.046  48.926  1.00  0.00     0.001 A 
HETATM   24  C10 UNL     1      25.470   6.104  49.061  1.00  0.00     0.000 A 
HETATM   25  C11 UNL     1      25.919   7.394  48.867  1.00  0.00     0.001 A 
HETATM   26  C12 UNL     1      27.227   7.663  48.541  1.00  0.00     0.010 A 
ENDBRANCH   7  21
BRANCH   4  27
HETATM   27  O1  UNL     1      34.073   5.805  49.169  1.00  0.00    -0.364 OA
HETATM   28  H7  UNL     1      34.895   6.142  48.681  1.00  0.00     0.217 HD
ENDBRANCH   4  27
TORSDOF 2
ENDMDL
MODEL 8
REMARK VINA RESULT:      -7.5      2.302      4.209
REMARK  2 active torsions:
REMARK  status: ('A' for Active; 'I' for Inactive)
REMARK    1  A    between atoms: C4_4  and  O1_5 
REMARK    2  A    between atoms: C6_8  and  C7_9 
ROOT
HETATM    1  C1  UNL     1      18.078   3.278  51.208  1.00  0.00     0.010 C 
HETATM    2  C2  UNL     1      19.138   3.513  50.198  1.00  0.00    -0.008 C 
HETATM    3  C3  UNL     1      20.365   2.673  50.295  1.00  0.00     0.070 C 
HETATM    4  C4  UNL     1      20.201   1.221  50.294  1.00  0.00     0.058 C 
HETATM    5  C5  UNL     1      20.998   0.441  51.007  1.00  0.00     0.116 C 
HETATM    6  N1  UNL     1      22.106   0.673  51.872  1.00  0.00    -0.377 N 
HETATM    7  C6  UNL     1      22.913   1.814  52.192  1.00  0.00     0.185 C 
HETATM    8  N2  UNL     1      23.353   2.450  50.971  1.00  0.00    -0.292 NA
HETATM    9  C13 UNL     1      23.554   3.764  50.929  1.00  0.00     0.210 C 
HETATM   10  C14 UNL     1      23.339   4.590  52.107  1.00  0.00     0.025 C 
HETATM   11  C15 UNL     1      22.191   5.246  52.197  1.00  0.00    -0.024 C 
HETATM   12  C16 UNL     1      22.074   6.092  51.179  1.00  0.00     0.024 C 
HETATM   13  C17 UNL     1      21.974   5.607  49.810  1.00  0.00    -0.029 A 
HETATM   14  C18 UNL     1      23.023   5.679  48.875  1.00  0.00     0.012 A 
HETATM   15  C19 UNL     1      22.976   5.281  47.550  1.00  0.00     0.001 A 
HETATM   16  C20 UNL     1      21.776   4.764  47.111  1.00  0.00     0.001 A 
HETATM   17  C21 UNL     1      20.719   4.675  47.993  1.00  0.00     0.008 A 
HETATM   18  C22 UNL     1      20.760   5.068  49.314  1.00  0.00    -0.048 A 
HETATM   19  C23 UNL     1      19.636   4.979  50.256  1.00  0.00     0.044 C 
HETATM   20  H9  UNL     1      22.368  -0.226  52.384  1.00  0.00     0.160 HD
ENDROOT
BRANCH   7  21
HETATM   21  C7  UNL     1      24.119   1.381  52.944  1.00  0.00    -0.022 A 
HETATM   22  C8  UNL     1      23.985   0.051  53.344  1.00  0.00     0.010 A 
HETATM   23  C9  UNL     1      24.993  -0.587  54.069  1.00  0.00     0.001 A 
HETATM   24  C10 UNL     1      26.132   0.123  54.385  1.00  0.00     0.000 A 
HETATM   25  C11 UNL     1      26.254   1.438  53.984  1.00  0.00     0.001 A 
HETATM   26  C12 UNL     1      25.264   2.072  53.271  1.00  0.00     0.010 A 
ENDBRANCH   7  21
BRANCH   4  27
HETATM   27  O1  UNL     1      19.166   0.865  49.491  1.00  0.00    -0.364 OA
HETATM   28  H7  UNL     1      19.236   0.178  48.750  1.00  0.00     0.217 HD
ENDBRANCH   4  27
TORSDOF 2
ENDMDL
MODEL 9
REMARK VINA RESULT:      -7.5      7.347     11.129
REMARK  2 active torsions:
REMARK  status: ('A' for Active; 'I' for Inactive)
REMARK    1  A    between atoms: C4_4  and  O1_5 
REMARK    2  A    between atoms: C6_8  and  C7_9 
ROOT
HETATM    1  C1  UNL     1      33.297   9.684  45.627  1.00  0.00     0.010 C 
HETATM    2  C2  UNL     1      33.119   8.215  45.524  1.00  0.00    -0.008 C 
HETATM    3  C3  UNL     1      31.733   7.688  45.674  1.00  0.00     0.070 C 
HETATM    4  C4  UNL     1      30.699   8.225  44.794  1.00  0.00     0.058 C 
HETATM    5  C5  UNL     1      29.454   8.386  45.217  1.00  0.00     0.116 C 
HETATM    6  N1  UNL     1      28.781   8.139  46.447  1.00  0.00    -0.377 N 
HETATM    7  C6  UNL     1      29.124   7.467  47.666  1.00  0.00     0.185 C 
HETATM    8  N2  UNL     1      29.668   6.163  47.360  1.00  0.00    -0.292 NA
HETATM    9  C13 UNL     1      30.585   5.612  48.151  1.00  0.00     0.210 C 
HETATM   10  C14 UNL     1      31.059   6.304  49.339  1.00  0.00     0.025 C 
HETATM   11  C15 UNL     1      32.210   6.957  49.254  1.00  0.00    -0.024 C 
HETATM   12  C16 UNL     1      33.188   6.108  48.958  1.00  0.00     0.024 C 
HETATM   13  C17 UNL     1      33.209   5.403  47.683  1.00  0.00    -0.029 A 
HETATM   14  C18 UNL     1      32.892   4.041  47.538  1.00  0.00     0.012 A 
HETATM   15  C19 UNL     1      32.939   3.304  46.367  1.00  0.00     0.001 A 
HETATM   16  C20 UNL     1      33.338   3.983  45.235  1.00  0.00     0.001 A 
HETATM   17  C21 UNL     1      33.659   5.320  45.330  1.00  0.00     0.008 A 
HETATM   18  C22 UNL     1      33.613   6.060  46.494  1.00  0.00    -0.048 A 
HETATM   19  C23 UNL     1      33.958   7.484  46.602  1.00  0.00     0.044 C 
HETATM   20  H9  UNL     1      27.803   8.566  46.425  1.00  0.00     0.160 HD
ENDROOT
BRANCH   7  21
HETATM   21  C7  UNL     1      27.904   7.271  48.493  1.00  0.00    -0.022 A 
HETATM   22  C8  UNL     1      27.651   8.413  49.254  1.00  0.00     0.010 A 
HETATM   23  C9  UNL     1      26.555   8.474  50.116  1.00  0.00     0.001 A 
HETATM   24  C10 UNL     1      25.720   7.382  50.203  1.00  0.00     0.000 A 
HETATM   25  C11 UNL     1      25.979   6.258  49.445  1.00  0.00     0.001 A 
HETATM   26  C12 UNL     1      27.058   6.191  48.595  1.00  0.00     0.010 A 
ENDBRANCH   7  21
BRANCH   4  27
HETATM   27  O1  UNL     1      31.219   8.501  43.570  1.00  0.00    -0.364 OA
HETATM   28  H7  UNL     1      32.203   8.668  43.399  1.00  0.00     0.217 HD
ENDBRANCH   4  27
TORSDOF 2
ENDMDL
