MODEL 1
REMARK VINA RESULT:      -7.9      0.000      0.000
REMARK  1 active torsions:
REMARK  status: ('A' for Active; 'I' for Inactive)
REMARK    1  A    between atoms: O1_2  and  C2_3 
ROOT
HETATM    1  C2  UNL     1      20.176   3.030  52.387  1.00  0.00     0.129 C 
HETATM    2  C3  UNL     1      20.733   4.129  51.954  1.00  0.00     0.061 C 
HETATM    3  C4  UNL     1      21.980   4.789  51.659  1.00  0.00    -0.001 C 
HETATM    4  C5  UNL     1      23.267   5.011  51.524  1.00  0.00     0.085 C 
HETATM    5  N1  UNL     1      24.631   4.652  51.603  1.00  0.00    -0.361 N 
HETATM    6  C6  UNL     1      25.226   4.095  50.461  1.00  0.00     0.206 C 
HETATM    7  N2  UNL     1      24.957   3.471  49.384  1.00  0.00    -0.255 NA
HETATM    8  C7  UNL     1      23.598   3.176  49.140  1.00  0.00     0.135 C 
HETATM    9  C8  UNL     1      22.665   2.294  48.888  1.00  0.00     0.109 C 
HETATM   10  N3  UNL     1      21.585   1.462  48.619  1.00  0.00    -0.351 N 
HETATM   11  C9  UNL     1      20.915   0.856  49.756  1.00  0.00     0.099 C 
HETATM   12  C10 UNL     1      21.596   0.472  50.831  1.00  0.00     0.027 C 
HETATM   13  C11 UNL     1      21.396  -0.138  52.129  1.00  0.00     0.025 C 
HETATM   14  C12 UNL     1      22.592  -0.788  52.745  1.00  0.00     0.036 C 
HETATM   15  C13 UNL     1      22.058  -0.944  54.165  1.00  0.00    -0.029 C 
HETATM   16  C14 UNL     1      21.228   0.102  54.417  1.00  0.00    -0.023 C 
HETATM   17  C15 UNL     1      21.176   0.967  53.225  1.00  0.00     0.048 C 
HETATM   18  C16 UNL     1      19.879   1.632  52.923  1.00  0.00     0.170 C 
HETATM   19  O2  UNL     1      19.240   0.977  51.910  1.00  0.00    -0.358 OA
HETATM   20  C17 UNL     1      17.892   0.791  51.966  1.00  0.00     0.340 C 
HETATM   21  O3  UNL     1      17.573   0.036  50.830  1.00  0.00    -0.348 OA
HETATM   22  C18 UNL     1      18.010   0.660  49.677  1.00  0.00     0.294 C 
HETATM   23  N4  UNL     1      19.482   0.704  49.655  1.00  0.00    -0.355 N 
HETATM   24  H7  UNL     1      25.238   4.756  52.420  1.00  0.00     0.166 HD
HETATM   25  H11 UNL     1      21.278   1.284  47.661  1.00  0.00     0.166 HD
HETATM   26  H24 UNL     1      19.727  -0.035  48.919  1.00  0.00     0.163 HD
ENDROOT
BRANCH   1  27
HETATM   27  O1  UNL     1      19.065   3.838  52.128  1.00  0.00    -0.378 OA
HETATM   28  C1  UNL     1      18.627   4.173  50.827  1.00  0.00     0.202 C 
ENDBRANCH   1  27
TORSDOF 1
ENDMDL
MODEL 2
REMARK VINA RESULT:      -7.5     10.479     13.844
REMARK  1 active torsions:
REMARK  status: ('A' for Active; 'I' for Inactive)
REMARK    1  A    between atoms: O1_2  and  C2_3 
ROOT
HETATM    1  C2  UNL     1      32.325   4.851  47.088  1.00  0.00     0.129 C 
HETATM    2  C3  UNL     1      31.047   4.759  47.345  1.00  0.00     0.061 C 
HETATM    3  C4  UNL     1      29.903   5.424  47.916  1.00  0.00    -0.001 C 
HETATM    4  C5  UNL     1      29.158   6.332  48.504  1.00  0.00     0.085 C 
HETATM    5  N1  UNL     1      28.935   7.581  49.124  1.00  0.00    -0.361 N 
HETATM    6  C6  UNL     1      28.528   8.650  48.310  1.00  0.00     0.206 C 
HETATM    7  N2  UNL     1      28.546   9.068  47.108  1.00  0.00    -0.255 NA
HETATM    8  C7  UNL     1      29.177   8.240  46.154  1.00  0.00     0.135 C 
HETATM    9  C8  UNL     1      30.081   8.084  45.220  1.00  0.00     0.109 C 
HETATM   10  N3  UNL     1      30.996   7.788  44.217  1.00  0.00    -0.351 N 
HETATM   11  C9  UNL     1      32.310   7.332  44.631  1.00  0.00     0.099 C 
HETATM   12  C10 UNL     1      32.894   7.816  45.724  1.00  0.00     0.027 C 
HETATM   13  C11 UNL     1      34.110   7.687  46.498  1.00  0.00     0.025 C 
HETATM   14  C12 UNL     1      34.454   8.841  47.386  1.00  0.00     0.036 C 
HETATM   15  C13 UNL     1      35.521   8.161  48.236  1.00  0.00    -0.029 C 
HETATM   16  C14 UNL     1      35.186   6.849  48.358  1.00  0.00    -0.023 C 
HETATM   17  C15 UNL     1      33.931   6.607  47.626  1.00  0.00     0.048 C 
HETATM   18  C16 UNL     1      33.780   5.290  46.950  1.00  0.00     0.170 C 
HETATM   19  O2  UNL     1      34.000   5.422  45.610  1.00  0.00    -0.358 OA
HETATM   20  C17 UNL     1      34.700   4.465  44.939  1.00  0.00     0.340 C 
HETATM   21  O3  UNL     1      34.805   4.934  43.623  1.00  0.00    -0.348 OA
HETATM   22  C18 UNL     1      33.560   5.202  43.087  1.00  0.00     0.294 C 
HETATM   23  N4  UNL     1      32.936   6.329  43.803  1.00  0.00    -0.355 N 
HETATM   24  H7  UNL     1      29.043   7.791  50.119  1.00  0.00     0.166 HD
HETATM   25  H11 UNL     1      30.752   7.890  43.230  1.00  0.00     0.166 HD
HETATM   26  H24 UNL     1      33.017   7.128  43.094  1.00  0.00     0.163 HD
ENDROOT
BRANCH   1  27
HETATM   27  O1  UNL     1      32.015   3.584  46.583  1.00  0.00    -0.378 OA
HETATM   28  C1  UNL     1      32.616   2.391  47.042  1.00  0.00     0.202 C 
ENDBRANCH   1  27
TORSDOF 1
ENDMDL
MODEL 3
REMARK VINA RESULT:      -7.3      3.700      6.371
REMARK  1 active torsions:
REMARK  status: ('A' for Active; 'I' for Inactive)
REMARK    1  A    between atoms: O1_2  and  C2_3 
ROOT
HETATM    1  C2  UNL     1      25.437   3.475  49.334  1.00  0.00     0.129 C 
HETATM    2  C3  UNL     1      26.564   4.128  49.243  1.00  0.00     0.061 C 
HETATM    3  C4  UNL     1      27.209   5.311  48.733  1.00  0.00    -0.001 C 
HETATM    4  C5  UNL     1      27.398   6.463  48.130  1.00  0.00     0.085 C 
HETATM    5  N1  UNL     1      26.977   7.591  47.392  1.00  0.00    -0.361 N 
HETATM    6  C6  UNL     1      26.567   8.725  48.110  1.00  0.00     0.206 C 
HETATM    7  N2  UNL     1      26.116   9.095  49.241  1.00  0.00    -0.255 NA
HETATM    8  C7  UNL     1      25.913   8.087  50.209  1.00  0.00     0.135 C 
HETATM    9  C8  UNL     1      25.114   7.470  51.041  1.00  0.00     0.109 C 
HETATM   10  N3  UNL     1      24.373   6.734  51.958  1.00  0.00    -0.351 N 
HETATM   11  C9  UNL     1      23.637   5.590  51.451  1.00  0.00     0.099 C 
HETATM   12  C10 UNL     1      23.075   5.612  50.246  1.00  0.00     0.027 C 
HETATM   13  C11 UNL     1      22.294   4.781  49.356  1.00  0.00     0.025 C 
HETATM   14  C12 UNL     1      21.514   5.495  48.298  1.00  0.00     0.036 C 
HETATM   15  C13 UNL     1      21.177   4.296  47.418  1.00  0.00    -0.029 C 
HETATM   16  C14 UNL     1      22.208   3.414  47.499  1.00  0.00    -0.023 C 
HETATM   17  C15 UNL     1      23.237   3.965  48.399  1.00  0.00     0.048 C 
HETATM   18  C16 UNL     1      23.989   2.999  49.244  1.00  0.00     0.170 C 
HETATM   19  O2  UNL     1      23.513   3.024  50.523  1.00  0.00    -0.358 OA
HETATM   20  C17 UNL     1      23.375   1.861  51.219  1.00  0.00     0.340 C 
HETATM   21  O3  UNL     1      22.804   2.226  52.445  1.00  0.00    -0.348 OA
HETATM   22  C18 UNL     1      23.571   3.181  53.087  1.00  0.00     0.294 C 
HETATM   23  N4  UNL     1      23.559   4.437  52.317  1.00  0.00    -0.355 N 
HETATM   24  H7  UNL     1      26.938   7.668  46.372  1.00  0.00     0.166 HD
HETATM   25  H11 UNL     1      24.348   6.990  52.947  1.00  0.00     0.166 HD
HETATM   26  H24 UNL     1      22.924   5.066  52.908  1.00  0.00     0.163 HD
ENDROOT
BRANCH   1  27
HETATM   27  O1  UNL     1      26.317   2.636  50.025  1.00  0.00    -0.378 OA
HETATM   28  C1  UNL     1      26.754   2.879  51.346  1.00  0.00     0.202 C 
ENDBRANCH   1  27
TORSDOF 1
ENDMDL
MODEL 4
REMARK VINA RESULT:      -7.3      8.121     11.564
REMARK  1 active torsions:
REMARK  status: ('A' for Active; 'I' for Inactive)
REMARK    1  A    between atoms: O1_2  and  C2_3 
ROOT
HETATM    1  C2  UNL     1      28.217   6.478  47.934  1.00  0.00     0.129 C 
HETATM    2  C3  UNL     1      29.107   5.571  48.238  1.00  0.00     0.061 C 
HETATM    3  C4  UNL     1      30.428   5.068  47.959  1.00  0.00    -0.001 C 
HETATM    4  C5  UNL     1      31.622   4.938  47.429  1.00  0.00     0.085 C 
HETATM    5  N1  UNL     1      32.666   5.305  46.551  1.00  0.00    -0.361 N 
HETATM    6  C6  UNL     1      33.643   6.189  47.033  1.00  0.00     0.206 C 
HETATM    7  N2  UNL     1      33.846   7.090  47.910  1.00  0.00    -0.255 NA
HETATM    8  C7  UNL     1      32.769   7.397  48.770  1.00  0.00     0.135 C 
HETATM    9  C8  UNL     1      31.948   8.283  49.274  1.00  0.00     0.109 C 
HETATM   10  N3  UNL     1      31.020   9.120  49.883  1.00  0.00    -0.351 N 
HETATM   11  C9  UNL     1      29.770   9.346  49.181  1.00  0.00     0.099 C 
HETATM   12  C10 UNL     1      29.730   9.424  47.854  1.00  0.00     0.027 C 
HETATM   13  C11 UNL     1      28.794   9.623  46.768  1.00  0.00     0.025 C 
HETATM   14  C12 UNL     1      29.373  10.106  45.476  1.00  0.00     0.036 C 
HETATM   15  C13 UNL     1      28.176   9.825  44.574  1.00  0.00    -0.029 C 
HETATM   16  C14 UNL     1      27.541   8.723  45.053  1.00  0.00    -0.023 C 
HETATM   17  C15 UNL     1      28.257   8.241  46.247  1.00  0.00     0.048 C 
HETATM   18  C16 UNL     1      27.439   7.649  47.339  1.00  0.00     0.170 C 
HETATM   19  O2  UNL     1      27.291   8.548  48.355  1.00  0.00    -0.358 OA
HETATM   20  C17 UNL     1      26.093   8.664  48.991  1.00  0.00     0.340 C 
HETATM   21  O3  UNL     1      26.259   9.705  49.913  1.00  0.00    -0.348 OA
HETATM   22  C18 UNL     1      27.324   9.458  50.758  1.00  0.00     0.294 C 
HETATM   23  N4  UNL     1      28.585   9.472  49.996  1.00  0.00    -0.355 N 
HETATM   24  H7  UNL     1      32.785   4.988  45.585  1.00  0.00     0.166 HD
HETATM   25  H11 UNL     1      31.213   9.557  50.786  1.00  0.00     0.166 HD
HETATM   26  H24 UNL     1      29.028  10.401  50.294  1.00  0.00     0.163 HD
ENDROOT
BRANCH   1  27
HETATM   27  O1  UNL     1      27.558   5.743  48.924  1.00  0.00    -0.378 OA
HETATM   28  C1  UNL     1      26.295   5.137  48.739  1.00  0.00     0.202 C 
ENDBRANCH   1  27
TORSDOF 1
ENDMDL
MODEL 5
REMARK VINA RESULT:      -7.2      3.685      6.586
REMARK  1 active torsions:
REMARK  status: ('A' for Active; 'I' for Inactive)
REMARK    1  A    between atoms: O1_2  and  C2_3 
ROOT
HETATM    1  C2  UNL     1      24.486   3.882  49.234  1.00  0.00     0.129 C 
HETATM    2  C3  UNL     1      25.768   4.065  49.408  1.00  0.00     0.061 C 
HETATM    3  C4  UNL     1      26.910   4.861  49.039  1.00  0.00    -0.001 C 
HETATM    4  C5  UNL     1      27.652   5.782  48.466  1.00  0.00     0.085 C 
HETATM    5  N1  UNL     1      27.867   6.884  47.610  1.00  0.00    -0.361 N 
HETATM    6  C6  UNL     1      27.774   8.169  48.166  1.00  0.00     0.206 C 
HETATM    7  N2  UNL     1      27.262   8.816  49.136  1.00  0.00    -0.255 NA
HETATM    8  C7  UNL     1      26.482   8.078  50.054  1.00  0.00     0.135 C 
HETATM    9  C8  UNL     1      25.346   7.901  50.678  1.00  0.00     0.109 C 
HETATM   10  N3  UNL     1      24.198   7.603  51.403  1.00  0.00    -0.351 N 
HETATM   11  C9  UNL     1      23.213   6.751  50.764  1.00  0.00     0.099 C 
HETATM   12  C10 UNL     1      22.981   6.825  49.457  1.00  0.00     0.027 C 
HETATM   13  C11 UNL     1      22.158   6.230  48.426  1.00  0.00     0.025 C 
HETATM   14  C12 UNL     1      21.964   7.041  47.185  1.00  0.00     0.036 C 
HETATM   15  C13 UNL     1      21.397   5.947  46.287  1.00  0.00    -0.029 C 
HETATM   16  C14 UNL     1      21.968   4.768  46.651  1.00  0.00    -0.023 C 
HETATM   17  C15 UNL     1      22.904   5.016  47.762  1.00  0.00     0.048 C 
HETATM   18  C16 UNL     1      23.024   3.956  48.800  1.00  0.00     0.170 C 
HETATM   19  O2  UNL     1      22.325   4.310  49.917  1.00  0.00    -0.358 OA
HETATM   20  C17 UNL     1      21.604   3.373  50.592  1.00  0.00     0.340 C 
HETATM   21  O3  UNL     1      20.962   4.069  51.624  1.00  0.00    -0.348 OA
HETATM   22  C18 UNL     1      21.873   4.753  52.407  1.00  0.00     0.294 C 
HETATM   23  N4  UNL     1      22.511   5.822  51.619  1.00  0.00    -0.355 N 
HETATM   24  H7  UNL     1      28.086   6.842  46.612  1.00  0.00     0.166 HD
HETATM   25  H11 UNL     1      24.056   7.972  52.345  1.00  0.00     0.166 HD
HETATM   26  H24 UNL     1      22.052   6.707  52.012  1.00  0.00     0.163 HD
ENDROOT
BRANCH   1  27
HETATM   27  O1  UNL     1      24.804   2.873  50.150  1.00  0.00    -0.378 OA
HETATM   28  C1  UNL     1      25.123   3.119  51.504  1.00  0.00     0.202 C 
ENDBRANCH   1  27
TORSDOF 1
ENDMDL
MODEL 6
REMARK VINA RESULT:      -7.2      3.084      6.175
REMARK  1 active torsions:
REMARK  status: ('A' for Active; 'I' for Inactive)
REMARK    1  A    between atoms: O1_2  and  C2_3 
ROOT
HETATM    1  C2  UNL     1      23.711   3.640  49.059  1.00  0.00     0.129 C 
HETATM    2  C3  UNL     1      22.519   3.248  48.696  1.00  0.00     0.061 C 
HETATM    3  C4  UNL     1      21.455   2.308  48.943  1.00  0.00    -0.001 C 
HETATM    4  C5  UNL     1      20.764   1.322  49.467  1.00  0.00     0.085 C 
HETATM    5  N1  UNL     1      20.560   0.258  50.373  1.00  0.00    -0.361 N 
HETATM    6  C6  UNL     1      19.917   0.547  51.586  1.00  0.00     0.206 C 
HETATM    7  N2  UNL     1      19.669   1.497  52.396  1.00  0.00    -0.255 NA
HETATM    8  C7  UNL     1      20.171   2.773  52.057  1.00  0.00     0.135 C 
HETATM    9  C8  UNL     1      20.889   3.820  52.373  1.00  0.00     0.109 C 
HETATM   10  N3  UNL     1      21.616   4.986  52.586  1.00  0.00    -0.351 N 
HETATM   11  C9  UNL     1      23.018   4.970  52.212  1.00  0.00     0.099 C 
HETATM   12  C10 UNL     1      23.759   3.876  52.364  1.00  0.00     0.027 C 
HETATM   13  C11 UNL     1      25.108   3.395  52.153  1.00  0.00     0.025 C 
HETATM   14  C12 UNL     1      25.518   2.204  52.960  1.00  0.00     0.036 C 
HETATM   15  C13 UNL     1      26.782   1.835  52.191  1.00  0.00    -0.029 C 
HETATM   16  C14 UNL     1      26.587   2.159  50.885  1.00  0.00    -0.023 C 
HETATM   17  C15 UNL     1      25.239   2.734  50.733  1.00  0.00     0.048 C 
HETATM   18  C16 UNL     1      25.071   3.819  49.729  1.00  0.00     0.170 C 
HETATM   19  O2  UNL     1      25.018   5.032  50.352  1.00  0.00    -0.358 OA
HETATM   20  C17 UNL     1      25.653   6.105  49.805  1.00  0.00     0.340 C 
HETATM   21  O3  UNL     1      25.465   7.154  50.714  1.00  0.00    -0.348 OA
HETATM   22  C18 UNL     1      24.121   7.361  50.966  1.00  0.00     0.294 C 
HETATM   23  N4  UNL     1      23.555   6.195  51.667  1.00  0.00    -0.355 N 
HETATM   24  H7  UNL     1      20.840  -0.717  50.234  1.00  0.00     0.166 HD
HETATM   25  H11 UNL     1      21.179   5.817  52.989  1.00  0.00     0.166 HD
HETATM   26  H24 UNL     1      23.431   6.561  52.666  1.00  0.00     0.163 HD
ENDROOT
BRANCH   1  27
HETATM   27  O1  UNL     1      23.417   4.526  48.019  1.00  0.00    -0.378 OA
HETATM   28  C1  UNL     1      22.449   5.551  48.115  1.00  0.00     0.202 C 
ENDBRANCH   1  27
TORSDOF 1
ENDMDL
MODEL 7
REMARK VINA RESULT:      -6.9      2.362      5.116
REMARK  1 active torsions:
REMARK  status: ('A' for Active; 'I' for Inactive)
REMARK    1  A    between atoms: O1_2  and  C2_3 
ROOT
HETATM    1  C2  UNL     1      20.118   3.091  51.266  1.00  0.00     0.129 C 
HETATM    2  C3  UNL     1      20.227   2.436  52.391  1.00  0.00     0.061 C 
HETATM    3  C4  UNL     1      20.914   1.375  53.081  1.00  0.00    -0.001 C 
HETATM    4  C5  UNL     1      21.738   0.383  53.331  1.00  0.00     0.085 C 
HETATM    5  N1  UNL     1      22.758  -0.533  52.992  1.00  0.00    -0.361 N 
HETATM    6  C6  UNL     1      24.083  -0.165  53.268  1.00  0.00     0.206 C 
HETATM    7  N2  UNL     1      24.833   0.847  53.456  1.00  0.00    -0.255 NA
HETATM    8  C7  UNL     1      24.219   2.117  53.388  1.00  0.00     0.135 C 
HETATM    9  C8  UNL     1      24.165   3.314  52.863  1.00  0.00     0.109 C 
HETATM   10  N3  UNL     1      24.000   4.610  52.389  1.00  0.00    -0.351 N 
HETATM   11  C9  UNL     1      23.171   4.785  51.210  1.00  0.00     0.099 C 
HETATM   12  C10 UNL     1      23.165   3.883  50.233  1.00  0.00     0.027 C 
HETATM   13  C11 UNL     1      22.552   3.624  48.947  1.00  0.00     0.025 C 
HETATM   14  C12 UNL     1      23.281   2.680  48.046  1.00  0.00     0.036 C 
HETATM   15  C13 UNL     1      22.165   2.421  47.040  1.00  0.00    -0.029 C 
HETATM   16  C14 UNL     1      20.981   2.481  47.705  1.00  0.00    -0.023 C 
HETATM   17  C15 UNL     1      21.245   2.770  49.125  1.00  0.00     0.048 C 
HETATM   18  C16 UNL     1      20.259   3.623  49.842  1.00  0.00     0.170 C 
HETATM   19  O2  UNL     1      20.741   4.893  49.968  1.00  0.00    -0.358 OA
HETATM   20  C17 UNL     1      19.906   5.956  49.797  1.00  0.00     0.340 C 
HETATM   21  O3  UNL     1      20.718   7.091  49.921  1.00  0.00    -0.348 OA
HETATM   22  C18 UNL     1      21.395   7.092  51.126  1.00  0.00     0.294 C 
HETATM   23  N4  UNL     1      22.357   5.977  51.164  1.00  0.00    -0.355 N 
HETATM   24  H7  UNL     1      22.628  -1.451  52.558  1.00  0.00     0.166 HD
HETATM   25  H11 UNL     1      24.446   5.405  52.852  1.00  0.00     0.166 HD
HETATM   26  H24 UNL     1      23.297   6.477  51.046  1.00  0.00     0.163 HD
ENDROOT
BRANCH   1  27
HETATM   27  O1  UNL     1      19.160   3.723  52.065  1.00  0.00    -0.378 OA
HETATM   28  C1  UNL     1      17.778   3.726  51.774  1.00  0.00     0.202 C 
ENDBRANCH   1  27
TORSDOF 1
ENDMDL
MODEL 8
REMARK VINA RESULT:      -6.9      3.908      6.226
REMARK  1 active torsions:
REMARK  status: ('A' for Active; 'I' for Inactive)
REMARK    1  A    between atoms: O1_2  and  C2_3 
ROOT
HETATM    1  C2  UNL     1      24.765   4.714  49.105  1.00  0.00     0.129 C 
HETATM    2  C3  UNL     1      25.076   5.921  48.712  1.00  0.00     0.061 C 
HETATM    3  C4  UNL     1      24.638   7.074  47.968  1.00  0.00    -0.001 C 
HETATM    4  C5  UNL     1      23.896   7.872  47.235  1.00  0.00     0.085 C 
HETATM    5  N1  UNL     1      22.735   8.207  46.504  1.00  0.00    -0.361 N 
HETATM    6  C6  UNL     1      21.704   8.871  47.185  1.00  0.00     0.206 C 
HETATM    7  N2  UNL     1      21.224   9.067  48.348  1.00  0.00    -0.255 NA
HETATM    8  C7  UNL     1      21.885   8.438  49.426  1.00  0.00     0.135 C 
HETATM    9  C8  UNL     1      21.841   7.643  50.464  1.00  0.00     0.109 C 
HETATM   10  N3  UNL     1      21.929   6.823  51.583  1.00  0.00    -0.351 N 
HETATM   11  C9  UNL     1      22.188   5.414  51.355  1.00  0.00     0.099 C 
HETATM   12  C10 UNL     1      21.677   4.781  50.302  1.00  0.00     0.027 C 
HETATM   13  C11 UNL     1      21.648   3.474  49.682  1.00  0.00     0.025 C 
HETATM   14  C12 UNL     1      20.505   3.206  48.756  1.00  0.00     0.036 C 
HETATM   15  C13 UNL     1      21.048   1.950  48.084  1.00  0.00    -0.029 C 
HETATM   16  C14 UNL     1      22.401   2.061  48.022  1.00  0.00    -0.023 C 
HETATM   17  C15 UNL     1      22.803   3.344  48.624  1.00  0.00     0.048 C 
HETATM   18  C16 UNL     1      24.088   3.372  49.373  1.00  0.00     0.170 C 
HETATM   19  O2  UNL     1      23.850   3.341  50.716  1.00  0.00    -0.358 OA
HETATM   20  C17 UNL     1      24.642   2.590  51.530  1.00  0.00     0.340 C 
HETATM   21  O3  UNL     1      24.092   2.721  52.811  1.00  0.00    -0.348 OA
HETATM   22  C18 UNL     1      24.000   4.049  53.182  1.00  0.00     0.294 C 
HETATM   23  N4  UNL     1      23.030   4.747  52.320  1.00  0.00    -0.355 N 
HETATM   24  H7  UNL     1      22.565   8.012  45.514  1.00  0.00     0.166 HD
HETATM   25  H11 UNL     1      21.814   7.200  52.526  1.00  0.00     0.166 HD
HETATM   26  H24 UNL     1      22.191   4.879  52.973  1.00  0.00     0.163 HD
ENDROOT
BRANCH   1  27
HETATM   27  O1  UNL     1      26.035   4.884  49.663  1.00  0.00    -0.378 OA
HETATM   28  C1  UNL     1      27.234   4.533  49.002  1.00  0.00     0.202 C 
ENDBRANCH   1  27
TORSDOF 1
ENDMDL
MODEL 9
REMARK VINA RESULT:      -6.8      2.886      5.632
REMARK  1 active torsions:
REMARK  status: ('A' for Active; 'I' for Inactive)
REMARK    1  A    between atoms: O1_2  and  C2_3 
ROOT
HETATM    1  C2  UNL     1      23.197   2.910  49.242  1.00  0.00     0.129 C 
HETATM    2  C3  UNL     1      24.370   3.047  49.801  1.00  0.00     0.061 C 
HETATM    3  C4  UNL     1      25.604   3.790  49.797  1.00  0.00    -0.001 C 
HETATM    4  C5  UNL     1      26.525   4.670  49.474  1.00  0.00     0.085 C 
HETATM    5  N1  UNL     1      27.040   5.747  48.719  1.00  0.00    -0.361 N 
HETATM    6  C6  UNL     1      26.836   7.045  49.211  1.00  0.00     0.206 C 
HETATM    7  N2  UNL     1      26.078   7.730  49.970  1.00  0.00    -0.255 NA
HETATM    8  C7  UNL     1      25.023   7.041  50.608  1.00  0.00     0.135 C 
HETATM    9  C8  UNL     1      23.743   6.920  50.853  1.00  0.00     0.109 C 
HETATM   10  N3  UNL     1      22.416   6.682  51.190  1.00  0.00    -0.351 N 
HETATM   11  C9  UNL     1      21.639   5.855  50.285  1.00  0.00     0.099 C 
HETATM   12  C10 UNL     1      21.825   5.913  48.969  1.00  0.00     0.027 C 
HETATM   13  C11 UNL     1      21.335   5.330  47.739  1.00  0.00     0.025 C 
HETATM   14  C12 UNL     1      21.567   6.123  46.493  1.00  0.00     0.036 C 
HETATM   15  C13 UNL     1      21.257   5.034  45.471  1.00  0.00    -0.029 C 
HETATM   16  C14 UNL     1      21.638   3.842  46.002  1.00  0.00    -0.023 C 
HETATM   17  C15 UNL     1      22.195   4.075  47.346  1.00  0.00     0.048 C 
HETATM   18  C16 UNL     1      21.945   3.032  48.377  1.00  0.00     0.170 C 
HETATM   19  O2  UNL     1      20.952   3.435  49.222  1.00  0.00    -0.358 OA
HETATM   20  C17 UNL     1      20.018   2.540  49.648  1.00  0.00     0.340 C 
HETATM   21  O3  UNL     1      19.120   3.281  50.427  1.00  0.00    -0.348 OA
HETATM   22  C18 UNL     1      19.774   3.944  51.448  1.00  0.00     0.294 C 
HETATM   23  N4  UNL     1      20.670   4.972  50.888  1.00  0.00    -0.355 N 
HETATM   24  H7  UNL     1      27.554   5.676  47.837  1.00  0.00     0.166 HD
HETATM   25  H11 UNL     1      22.007   7.075  52.040  1.00  0.00     0.166 HD
HETATM   26  H24 UNL     1      20.150   5.881  51.114  1.00  0.00     0.163 HD
ENDROOT
BRANCH   1  27
HETATM   27  O1  UNL     1      23.175   1.908  50.218  1.00  0.00    -0.378 OA
HETATM   28  C1  UNL     1      23.097   2.169  51.604  1.00  0.00     0.202 C 
ENDBRANCH   1  27
TORSDOF 1
ENDMDL
