MODEL 1
REMARK VINA RESULT:      -7.7      0.000      0.000
REMARK  6 active torsions:
REMARK  status: ('A' for Active; 'I' for Inactive)
REMARK    1  A    between atoms: O1_2  and  C2_3 
REMARK    2  A    between atoms: C2_3  and  C3_4 
REMARK    3  A    between atoms: C3_4  and  O2_5 
REMARK    4  A    between atoms: O2_5  and  C4_6 
REMARK    5  A    between atoms: C8_12  and  N3_13 
REMARK    6  A    between atoms: N3_13  and  C9_14 
ROOT
HETATM    1  C9  UNL     1      26.384   4.770  49.295  1.00  0.00     0.031 A 
HETATM    2  C10 UNL     1      27.472   5.050  48.560  1.00  0.00     0.008 A 
HETATM    3  C11 UNL     1      27.718   6.538  48.566  1.00  0.00     0.079 A 
HETATM    4  C12 UNL     1      26.601   7.042  49.420  1.00  0.00     0.028 A 
HETATM    5  C13 UNL     1      26.322   8.400  49.786  1.00  0.00     0.095 C 
HETATM    6  N4  UNL     1      26.090   9.495  50.081  1.00  0.00    -0.192 NA
HETATM    7  C14 UNL     1      25.846   6.007  49.828  1.00  0.00     0.047 A 
ENDROOT
BRANCH   1   8
HETATM    8  N3  UNL     1      26.052   3.373  49.362  1.00  0.00    -0.340 N 
HETATM    9  H10 UNL     1      25.907   3.237  48.347  1.00  0.00     0.167 HD
BRANCH   8  10
HETATM   10  C8  UNL     1      26.051   2.795  50.646  1.00  0.00     0.144 A 
HETATM   11  N2  UNL     1      27.228   2.752  51.276  1.00  0.00    -0.223 NA
HETATM   12  C7  UNL     1      27.307   2.206  52.529  1.00  0.00     0.236 A 
HETATM   13  N1  UNL     1      26.195   1.720  53.105  1.00  0.00    -0.241 NA
HETATM   14  C6  UNL     1      24.999   1.748  52.501  1.00  0.00     0.077 A 
HETATM   15  C5  UNL     1      23.859   1.255  53.084  1.00  0.00     0.072 A 
HETATM   16  C15 UNL     1      24.916   2.296  51.242  1.00  0.00     0.075 A 
HETATM   17  C4  UNL     1      22.609   1.257  52.516  1.00  0.00     0.107 A 
HETATM   18  C17 UNL     1      22.581   1.827  51.232  1.00  0.00     0.136 A 
HETATM   19  C16 UNL     1      23.706   2.334  50.612  1.00  0.00     0.121 A 
HETATM   20  O3  UNL     1      21.423   1.932  50.477  1.00  0.00    -0.344 OA
HETATM   21  O4  UNL     1      23.568   2.875  49.344  1.00  0.00    -0.345 OA
HETATM   22  C19 UNL     1      22.398   3.574  48.961  1.00  0.00     0.202 C 
HETATM   23  C18 UNL     1      21.170   2.925  49.511  1.00  0.00     0.202 C 
BRANCH  17  24
HETATM   24  O2  UNL     1      21.427   0.811  52.977  1.00  0.00    -0.346 OA
BRANCH  24  25
HETATM   25  C3  UNL     1      21.010   0.256  54.160  1.00  0.00     0.201 C 
BRANCH  25  26
HETATM   26  C2  UNL     1      20.879  -1.233  54.130  1.00  0.00     0.193 C 
BRANCH  26  27
HETATM   27  O1  UNL     1      21.549  -1.816  55.202  1.00  0.00    -0.394 OA
HETATM   28  C1  UNL     1      22.856  -1.433  55.327  1.00  0.00     0.201 C 
ENDBRANCH  26  27
ENDBRANCH  25  26
ENDBRANCH  24  25
ENDBRANCH  17  24
ENDBRANCH   8  10
ENDBRANCH   1   8
TORSDOF 6
ENDMDL
MODEL 2
REMARK VINA RESULT:      -7.6      3.611      6.215
REMARK  6 active torsions:
REMARK  status: ('A' for Active; 'I' for Inactive)
REMARK    1  A    between atoms: O1_2  and  C2_3 
REMARK    2  A    between atoms: C2_3  and  C3_4 
REMARK    3  A    between atoms: C3_4  and  O2_5 
REMARK    4  A    between atoms: O2_5  and  C4_6 
REMARK    5  A    between atoms: C8_12  and  N3_13 
REMARK    6  A    between atoms: N3_13  and  C9_14 
ROOT
HETATM    1  C9  UNL     1      25.865   0.773  52.875  1.00  0.00     0.031 A 
HETATM    2  C10 UNL     1      26.416   1.399  53.927  1.00  0.00     0.008 A 
HETATM    3  C11 UNL     1      27.630   0.634  54.392  1.00  0.00     0.079 A 
HETATM    4  C12 UNL     1      27.670  -0.512  53.435  1.00  0.00     0.028 A 
HETATM    5  C13 UNL     1      28.623  -1.583  53.388  1.00  0.00     0.095 C 
HETATM    6  N4  UNL     1      29.387  -2.451  53.349  1.00  0.00    -0.192 NA
HETATM    7  C14 UNL     1      26.644  -0.411  52.571  1.00  0.00     0.047 A 
ENDROOT
BRANCH   1   8
HETATM    8  N3  UNL     1      24.695   1.417  52.344  1.00  0.00    -0.340 N 
HETATM    9  H10 UNL     1      25.191   2.182  51.855  1.00  0.00     0.167 HD
BRANCH   8  10
HETATM   10  C8  UNL     1      23.459   0.821  52.662  1.00  0.00     0.144 A 
HETATM   11  N2  UNL     1      23.508  -0.428  53.132  1.00  0.00    -0.223 NA
HETATM   12  C7  UNL     1      22.348  -1.073  53.465  1.00  0.00     0.236 A 
HETATM   13  N1  UNL     1      21.175  -0.437  53.312  1.00  0.00    -0.241 NA
HETATM   14  C6  UNL     1      21.090   0.816  52.843  1.00  0.00     0.077 A 
HETATM   15  C5  UNL     1      19.896   1.473  52.686  1.00  0.00     0.072 A 
HETATM   16  C15 UNL     1      22.254   1.468  52.509  1.00  0.00     0.075 A 
HETATM   17  C4  UNL     1      19.747   2.752  52.213  1.00  0.00     0.107 A 
HETATM   18  C17 UNL     1      20.965   3.371  51.886  1.00  0.00     0.136 A 
HETATM   19  C16 UNL     1      22.187   2.744  52.030  1.00  0.00     0.121 A 
HETATM   20  O3  UNL     1      21.047   4.663  51.391  1.00  0.00    -0.344 OA
HETATM   21  O4  UNL     1      23.329   3.445  51.678  1.00  0.00    -0.345 OA
HETATM   22  C19 UNL     1      23.431   4.843  51.876  1.00  0.00     0.202 C 
HETATM   23  C18 UNL     1      22.142   5.532  51.566  1.00  0.00     0.202 C 
BRANCH  17  24
HETATM   24  O2  UNL     1      18.647   3.500  52.015  1.00  0.00    -0.346 OA
BRANCH  24  25
HETATM   25  C3  UNL     1      17.661   3.518  51.062  1.00  0.00     0.201 C 
BRANCH  25  26
HETATM   26  C2  UNL     1      16.483   4.371  51.407  1.00  0.00     0.193 C 
BRANCH  26  27
HETATM   27  O1  UNL     1      16.297   4.435  52.784  1.00  0.00    -0.394 OA
HETATM   28  C1  UNL     1      15.047   4.073  53.203  1.00  0.00     0.201 C 
ENDBRANCH  26  27
ENDBRANCH  25  26
ENDBRANCH  24  25
ENDBRANCH  17  24
ENDBRANCH   8  10
ENDBRANCH   1   8
TORSDOF 6
ENDMDL
MODEL 3
REMARK VINA RESULT:      -7.4      4.122      6.004
REMARK  6 active torsions:
REMARK  status: ('A' for Active; 'I' for Inactive)
REMARK    1  A    between atoms: O1_2  and  C2_3 
REMARK    2  A    between atoms: C2_3  and  C3_4 
REMARK    3  A    between atoms: C3_4  and  O2_5 
REMARK    4  A    between atoms: O2_5  and  C4_6 
REMARK    5  A    between atoms: C8_12  and  N3_13 
REMARK    6  A    between atoms: N3_13  and  C9_14 
ROOT
HETATM    1  C9  UNL     1      25.475   0.485  52.789  1.00  0.00     0.031 A 
HETATM    2  C10 UNL     1      25.889   1.644  53.326  1.00  0.00     0.008 A 
HETATM    3  C11 UNL     1      27.332   1.521  53.746  1.00  0.00     0.079 A 
HETATM    4  C12 UNL     1      27.658   0.116  53.357  1.00  0.00     0.028 A 
HETATM    5  C13 UNL     1      28.908  -0.570  53.514  1.00  0.00     0.095 C 
HETATM    6  N4  UNL     1      29.913  -1.129  53.643  1.00  0.00    -0.192 NA
HETATM    7  C14 UNL     1      26.574  -0.461  52.809  1.00  0.00     0.047 A 
ENDROOT
BRANCH   1   8
HETATM    8  N3  UNL     1      24.107   0.486  52.350  1.00  0.00    -0.340 N 
HETATM    9  H10 UNL     1      24.266   0.997  51.465  1.00  0.00     0.167 HD
BRANCH   8  10
HETATM   10  C8  UNL     1      23.179  -0.141  53.205  1.00  0.00     0.144 A 
HETATM   11  N2  UNL     1      23.675  -0.688  54.317  1.00  0.00    -0.223 NA
HETATM   12  C7  UNL     1      22.836  -1.314  55.198  1.00  0.00     0.236 A 
HETATM   13  N1  UNL     1      21.522  -1.369  54.927  1.00  0.00    -0.241 NA
HETATM   14  C6  UNL     1      20.991  -0.831  53.820  1.00  0.00     0.077 A 
HETATM   15  C5  UNL     1      19.649  -0.881  53.537  1.00  0.00     0.072 A 
HETATM   16  C15 UNL     1      21.832  -0.200  52.933  1.00  0.00     0.075 A 
HETATM   17  C4  UNL     1      19.049  -0.349  52.423  1.00  0.00     0.107 A 
HETATM   18  C17 UNL     1      19.953   0.282  51.551  1.00  0.00     0.136 A 
HETATM   19  C16 UNL     1      21.309   0.354  51.801  1.00  0.00     0.121 A 
HETATM   20  O3  UNL     1      19.562   0.887  50.367  1.00  0.00    -0.344 OA
HETATM   21  O4  UNL     1      22.112   1.000  50.875  1.00  0.00    -0.345 OA
HETATM   22  C19 UNL     1      21.651   2.127  50.153  1.00  0.00     0.202 C 
HETATM   23  C18 UNL     1      20.220   1.970  49.752  1.00  0.00     0.202 C 
BRANCH  17  24
HETATM   24  O2  UNL     1      17.762  -0.331  52.035  1.00  0.00    -0.346 OA
BRANCH  24  25
HETATM   25  C3  UNL     1      16.580  -0.696  52.627  1.00  0.00     0.201 C 
BRANCH  25  26
HETATM   26  C2  UNL     1      15.429   0.207  52.315  1.00  0.00     0.193 C 
BRANCH  26  27
HETATM   27  O1  UNL     1      14.750   0.571  53.474  1.00  0.00    -0.394 OA
HETATM   28  C1  UNL     1      13.425   0.234  53.482  1.00  0.00     0.201 C 
ENDBRANCH  26  27
ENDBRANCH  25  26
ENDBRANCH  24  25
ENDBRANCH  17  24
ENDBRANCH   8  10
ENDBRANCH   1   8
TORSDOF 6
ENDMDL
MODEL 4
REMARK VINA RESULT:      -7.2      3.581      6.816
REMARK  6 active torsions:
REMARK  status: ('A' for Active; 'I' for Inactive)
REMARK    1  A    between atoms: O1_2  and  C2_3 
REMARK    2  A    between atoms: C2_3  and  C3_4 
REMARK    3  A    between atoms: C3_4  and  O2_5 
REMARK    4  A    between atoms: O2_5  and  C4_6 
REMARK    5  A    between atoms: C8_12  and  N3_13 
REMARK    6  A    between atoms: N3_13  and  C9_14 
ROOT
HETATM    1  C9  UNL     1      20.740   0.748  51.302  1.00  0.00     0.031 A 
HETATM    2  C10 UNL     1      19.952   1.045  52.347  1.00  0.00     0.008 A 
HETATM    3  C11 UNL     1      18.630   1.573  51.849  1.00  0.00     0.079 A 
HETATM    4  C12 UNL     1      18.804   1.521  50.366  1.00  0.00     0.028 A 
HETATM    5  C13 UNL     1      17.859   1.904  49.358  1.00  0.00     0.095 C 
HETATM    6  N4  UNL     1      17.101   2.216  48.540  1.00  0.00    -0.192 NA
HETATM    7  C14 UNL     1      20.027   1.043  50.075  1.00  0.00     0.047 A 
ENDROOT
BRANCH   1   8
HETATM    8  N3  UNL     1      22.033   0.232  51.659  1.00  0.00    -0.340 N 
HETATM    9  H10 UNL     1      21.709  -0.702  51.962  1.00  0.00     0.167 HD
BRANCH   8  10
HETATM   10  C8  UNL     1      23.123   1.105  51.478  1.00  0.00     0.144 A 
HETATM   11  N2  UNL     1      23.012   1.992  50.485  1.00  0.00    -0.223 NA
HETATM   12  C7  UNL     1      24.029   2.876  50.248  1.00  0.00     0.236 A 
HETATM   13  N1  UNL     1      25.128   2.836  51.020  1.00  0.00    -0.241 NA
HETATM   14  C6  UNL     1      25.272   1.959  52.023  1.00  0.00     0.077 A 
HETATM   15  C5  UNL     1      26.390   1.913  52.817  1.00  0.00     0.072 A 
HETATM   16  C15 UNL     1      24.251   1.070  52.265  1.00  0.00     0.075 A 
HETATM   17  C4  UNL     1      26.594   1.041  53.857  1.00  0.00     0.107 A 
HETATM   18  C17 UNL     1      25.522   0.155  54.060  1.00  0.00     0.136 A 
HETATM   19  C16 UNL     1      24.380   0.170  53.283  1.00  0.00     0.121 A 
HETATM   20  O3  UNL     1      25.516  -0.808  55.056  1.00  0.00    -0.344 OA
HETATM   21  O4  UNL     1      23.381  -0.747  53.568  1.00  0.00    -0.345 OA
HETATM   22  C19 UNL     1      23.107  -1.154  54.896  1.00  0.00     0.202 C 
HETATM   23  C18 UNL     1      24.365  -1.318  55.686  1.00  0.00     0.202 C 
BRANCH  17  24
HETATM   24  O2  UNL     1      27.631   0.896  54.700  1.00  0.00    -0.346 OA
BRANCH  24  25
HETATM   25  C3  UNL     1      28.715   0.058  54.748  1.00  0.00     0.201 C 
BRANCH  25  26
HETATM   26  C2  UNL     1      28.978  -0.685  53.477  1.00  0.00     0.193 C 
BRANCH  26  27
HETATM   27  O1  UNL     1      28.586  -2.016  53.586  1.00  0.00    -0.394 OA
HETATM   28  C1  UNL     1      27.646  -2.405  52.672  1.00  0.00     0.201 C 
ENDBRANCH  26  27
ENDBRANCH  25  26
ENDBRANCH  24  25
ENDBRANCH  17  24
ENDBRANCH   8  10
ENDBRANCH   1   8
TORSDOF 6
ENDMDL
MODEL 5
REMARK VINA RESULT:      -7.1      3.094      6.093
REMARK  6 active torsions:
REMARK  status: ('A' for Active; 'I' for Inactive)
REMARK    1  A    between atoms: O1_2  and  C2_3 
REMARK    2  A    between atoms: C2_3  and  C3_4 
REMARK    3  A    between atoms: C3_4  and  O2_5 
REMARK    4  A    between atoms: O2_5  and  C4_6 
REMARK    5  A    between atoms: C8_12  and  N3_13 
REMARK    6  A    between atoms: N3_13  and  C9_14 
ROOT
HETATM    1  C9  UNL     1      25.934   0.524  53.313  1.00  0.00     0.031 A 
HETATM    2  C10 UNL     1      25.715  -0.667  52.736  1.00  0.00     0.008 A 
HETATM    3  C11 UNL     1      26.996  -1.462  52.712  1.00  0.00     0.079 A 
HETATM    4  C12 UNL     1      27.961  -0.529  53.367  1.00  0.00     0.028 A 
HETATM    5  C13 UNL     1      29.354  -0.749  53.628  1.00  0.00     0.095 C 
HETATM    6  N4  UNL     1      30.480  -0.920  53.836  1.00  0.00    -0.192 NA
HETATM    7  C14 UNL     1      27.328   0.607  53.705  1.00  0.00     0.047 A 
ENDROOT
BRANCH   1   8
HETATM    8  N3  UNL     1      24.775   1.371  53.392  1.00  0.00    -0.340 N 
HETATM    9  H10 UNL     1      24.750   1.442  54.423  1.00  0.00     0.167 HD
BRANCH   8  10
HETATM   10  C8  UNL     1      24.187   1.735  52.165  1.00  0.00     0.144 A 
HETATM   11  N2  UNL     1      24.942   2.465  51.340  1.00  0.00    -0.223 NA
HETATM   12  C7  UNL     1      24.440   2.856  50.129  1.00  0.00     0.236 A 
HETATM   13  N1  UNL     1      23.191   2.498  49.789  1.00  0.00    -0.241 NA
HETATM   14  C6  UNL     1      22.407   1.767  50.593  1.00  0.00     0.077 A 
HETATM   15  C5  UNL     1      21.130   1.396  50.252  1.00  0.00     0.072 A 
HETATM   16  C15 UNL     1      22.908   1.372  51.811  1.00  0.00     0.075 A 
HETATM   17  C4  UNL     1      20.282   0.650  51.031  1.00  0.00     0.107 A 
HETATM   18  C17 UNL     1      20.844   0.273  52.263  1.00  0.00     0.136 A 
HETATM   19  C16 UNL     1      22.124   0.626  52.642  1.00  0.00     0.121 A 
HETATM   20  O3  UNL     1      20.163  -0.484  53.203  1.00  0.00    -0.344 OA
HETATM   21  O4  UNL     1      22.581   0.202  53.880  1.00  0.00    -0.345 OA
HETATM   22  C19 UNL     1      22.199  -1.048  54.422  1.00  0.00     0.202 C 
HETATM   23  C18 UNL     1      20.764  -1.350  54.138  1.00  0.00     0.202 C 
BRANCH  17  24
HETATM   24  O2  UNL     1      19.025   0.225  50.814  1.00  0.00    -0.346 OA
BRANCH  24  25
HETATM   25  C3  UNL     1      17.835   0.853  50.552  1.00  0.00     0.201 C 
BRANCH  25  26
HETATM   26  C2  UNL     1      17.424   1.852  51.586  1.00  0.00     0.193 C 
BRANCH  26  27
HETATM   27  O1  UNL     1      17.697   3.150  51.165  1.00  0.00    -0.394 OA
HETATM   28  C1  UNL     1      16.614   3.984  51.165  1.00  0.00     0.201 C 
ENDBRANCH  26  27
ENDBRANCH  25  26
ENDBRANCH  24  25
ENDBRANCH  17  24
ENDBRANCH   8  10
ENDBRANCH   1   8
TORSDOF 6
ENDMDL
MODEL 6
REMARK VINA RESULT:      -6.6      3.223      6.523
REMARK  6 active torsions:
REMARK  status: ('A' for Active; 'I' for Inactive)
REMARK    1  A    between atoms: O1_2  and  C2_3 
REMARK    2  A    between atoms: C2_3  and  C3_4 
REMARK    3  A    between atoms: C3_4  and  O2_5 
REMARK    4  A    between atoms: O2_5  and  C4_6 
REMARK    5  A    between atoms: C8_12  and  N3_13 
REMARK    6  A    between atoms: N3_13  and  C9_14 
ROOT
HETATM    1  C9  UNL     1      25.569   0.940  53.260  1.00  0.00     0.031 A 
HETATM    2  C10 UNL     1      26.597   1.489  53.925  1.00  0.00     0.008 A 
HETATM    3  C11 UNL     1      27.735   0.502  54.003  1.00  0.00     0.079 A 
HETATM    4  C12 UNL     1      27.182  -0.680  53.276  1.00  0.00     0.028 A 
HETATM    5  C13 UNL     1      27.825  -1.937  53.028  1.00  0.00     0.095 C 
HETATM    6  N4  UNL     1      28.340  -2.955  52.828  1.00  0.00    -0.192 NA
HETATM    7  C14 UNL     1      25.934  -0.405  52.858  1.00  0.00     0.047 A 
ENDROOT
BRANCH   1   8
HETATM    8  N3  UNL     1      24.422   1.795  53.123  1.00  0.00    -0.340 N 
HETATM    9  H10 UNL     1      24.884   2.665  53.440  1.00  0.00     0.167 HD
BRANCH   8  10
HETATM   10  C8  UNL     1      23.242   1.183  52.660  1.00  0.00     0.144 A 
HETATM   11  N2  UNL     1      22.672   0.297  53.482  1.00  0.00    -0.223 NA
HETATM   12  C7  UNL     1      21.522  -0.339  53.103  1.00  0.00     0.236 A 
HETATM   13  N1  UNL     1      20.983  -0.061  51.904  1.00  0.00    -0.241 NA
HETATM   14  C6  UNL     1      21.527   0.821  51.055  1.00  0.00     0.077 A 
HETATM   15  C5  UNL     1      20.981   1.111  49.831  1.00  0.00     0.072 A 
HETATM   16  C15 UNL     1      22.684   1.463  51.434  1.00  0.00     0.075 A 
HETATM   17  C4  UNL     1      21.492   2.004  48.921  1.00  0.00     0.107 A 
HETATM   18  C17 UNL     1      22.672   2.629  49.357  1.00  0.00     0.136 A 
HETATM   19  C16 UNL     1      23.253   2.365  50.583  1.00  0.00     0.121 A 
HETATM   20  O3  UNL     1      23.356   3.566  48.598  1.00  0.00    -0.344 OA
HETATM   21  O4  UNL     1      24.417   3.038  50.915  1.00  0.00    -0.345 OA
HETATM   22  C19 UNL     1      24.643   4.374  50.505  1.00  0.00     0.202 C 
HETATM   23  C18 UNL     1      24.149   4.609  49.115  1.00  0.00     0.202 C 
BRANCH  17  24
HETATM   24  O2  UNL     1      21.057   2.373  47.704  1.00  0.00    -0.346 OA
BRANCH  24  25
HETATM   25  C3  UNL     1      19.953   3.044  47.246  1.00  0.00     0.201 C 
BRANCH  25  26
HETATM   26  C2  UNL     1      19.455   4.114  48.165  1.00  0.00     0.193 C 
BRANCH  26  27
HETATM   27  O1  UNL     1      18.162   4.502  47.828  1.00  0.00    -0.394 OA
HETATM   28  C1  UNL     1      17.319   4.644  48.895  1.00  0.00     0.201 C 
ENDBRANCH  26  27
ENDBRANCH  25  26
ENDBRANCH  24  25
ENDBRANCH  17  24
ENDBRANCH   8  10
ENDBRANCH   1   8
TORSDOF 6
ENDMDL
MODEL 7
REMARK VINA RESULT:      -6.6      2.976      6.652
REMARK  6 active torsions:
REMARK  status: ('A' for Active; 'I' for Inactive)
REMARK    1  A    between atoms: O1_2  and  C2_3 
REMARK    2  A    between atoms: C2_3  and  C3_4 
REMARK    3  A    between atoms: C3_4  and  O2_5 
REMARK    4  A    between atoms: O2_5  and  C4_6 
REMARK    5  A    between atoms: C8_12  and  N3_13 
REMARK    6  A    between atoms: N3_13  and  C9_14 
ROOT
HETATM    1  C9  UNL     1      25.934   1.407  51.873  1.00  0.00     0.031 A 
HETATM    2  C10 UNL     1      26.082   2.022  53.058  1.00  0.00     0.008 A 
HETATM    3  C11 UNL     1      27.064   1.254  53.907  1.00  0.00     0.079 A 
HETATM    4  C12 UNL     1      27.441   0.120  53.011  1.00  0.00     0.028 A 
HETATM    5  C13 UNL     1      28.357  -0.948  53.287  1.00  0.00     0.095 C 
HETATM    6  N4  UNL     1      29.094  -1.814  53.507  1.00  0.00    -0.192 NA
HETATM    7  C14 UNL     1      26.778   0.229  51.847  1.00  0.00     0.047 A 
ENDROOT
BRANCH   1   8
HETATM    8  N3  UNL     1      25.016   2.055  50.976  1.00  0.00    -0.340 N 
HETATM    9  H10 UNL     1      24.241   1.381  51.093  1.00  0.00     0.167 HD
BRANCH   8  10
HETATM   10  C8  UNL     1      25.481   3.229  50.353  1.00  0.00     0.144 A 
HETATM   11  N2  UNL     1      26.682   3.157  49.773  1.00  0.00    -0.223 NA
HETATM   12  C7  UNL     1      27.200   4.257  49.146  1.00  0.00     0.236 A 
HETATM   13  N1  UNL     1      26.489   5.397  49.125  1.00  0.00    -0.241 NA
HETATM   14  C6  UNL     1      25.283   5.504  49.698  1.00  0.00     0.077 A 
HETATM   15  C5  UNL     1      24.550   6.664  49.680  1.00  0.00     0.072 A 
HETATM   16  C15 UNL     1      24.758   4.400  50.328  1.00  0.00     0.075 A 
HETATM   17  C4  UNL     1      23.312   6.834  50.246  1.00  0.00     0.107 A 
HETATM   18  C17 UNL     1      22.824   5.677  50.877  1.00  0.00     0.136 A 
HETATM   19  C16 UNL     1      23.531   4.491  50.916  1.00  0.00     0.121 A 
HETATM   20  O3  UNL     1      21.594   5.625  51.513  1.00  0.00    -0.344 OA
HETATM   21  O4  UNL     1      22.957   3.408  51.565  1.00  0.00    -0.345 OA
HETATM   22  C19 UNL     1      21.560   3.186  51.541  1.00  0.00     0.202 C 
HETATM   23  C18 UNL     1      20.802   4.469  51.656  1.00  0.00     0.202 C 
BRANCH  17  24
HETATM   24  O2  UNL     1      22.501   7.906  50.296  1.00  0.00    -0.346 OA
BRANCH  24  25
HETATM   25  C3  UNL     1      21.889   8.687  49.350  1.00  0.00     0.201 C 
BRANCH  25  26
HETATM   26  C2  UNL     1      20.954   7.946  48.449  1.00  0.00     0.193 C 
BRANCH  26  27
HETATM   27  O1  UNL     1      19.965   7.295  49.180  1.00  0.00    -0.394 OA
HETATM   28  C1  UNL     1      18.960   6.761  48.421  1.00  0.00     0.201 C 
ENDBRANCH  26  27
ENDBRANCH  25  26
ENDBRANCH  24  25
ENDBRANCH  17  24
ENDBRANCH   8  10
ENDBRANCH   1   8
TORSDOF 6
ENDMDL
MODEL 8
REMARK VINA RESULT:      -6.5      4.348      8.167
REMARK  6 active torsions:
REMARK  status: ('A' for Active; 'I' for Inactive)
REMARK    1  A    between atoms: O1_2  and  C2_3 
REMARK    2  A    between atoms: C2_3  and  C3_4 
REMARK    3  A    between atoms: C3_4  and  O2_5 
REMARK    4  A    between atoms: O2_5  and  C4_6 
REMARK    5  A    between atoms: C8_12  and  N3_13 
REMARK    6  A    between atoms: N3_13  and  C9_14 
ROOT
HETATM    1  C9  UNL     1      18.286  -0.039  51.950  1.00  0.00     0.031 A 
HETATM    2  C10 UNL     1      17.340  -0.716  52.618  1.00  0.00     0.008 A 
HETATM    3  C11 UNL     1      16.220  -1.084  51.676  1.00  0.00     0.079 A 
HETATM    4  C12 UNL     1      16.692  -0.509  50.381  1.00  0.00     0.028 A 
HETATM    5  C13 UNL     1      16.030  -0.552  49.110  1.00  0.00     0.095 C 
HETATM    6  N4  UNL     1      15.497  -0.580  48.082  1.00  0.00    -0.192 NA
HETATM    7  C14 UNL     1      17.883   0.088  50.563  1.00  0.00     0.047 A 
ENDROOT
BRANCH   1   8
HETATM    8  N3  UNL     1      19.409   0.365  52.751  1.00  0.00    -0.340 N 
HETATM    9  H10 UNL     1      19.420  -0.466  53.367  1.00  0.00     0.167 HD
BRANCH   8  10
HETATM   10  C8  UNL     1      19.994   1.603  52.422  1.00  0.00     0.144 A 
HETATM   11  N2  UNL     1      19.163   2.556  51.993  1.00  0.00    -0.223 NA
HETATM   12  C7  UNL     1      19.657   3.786  51.656  1.00  0.00     0.236 A 
HETATM   13  N1  UNL     1      20.976   4.016  51.762  1.00  0.00    -0.241 NA
HETATM   14  C6  UNL     1      21.838   3.083  52.188  1.00  0.00     0.077 A 
HETATM   15  C5  UNL     1      23.186   3.310  52.301  1.00  0.00     0.072 A 
HETATM   16  C15 UNL     1      21.345   1.845  52.529  1.00  0.00     0.075 A 
HETATM   17  C4  UNL     1      24.116   2.396  52.731  1.00  0.00     0.107 A 
HETATM   18  C17 UNL     1      23.559   1.150  53.065  1.00  0.00     0.136 A 
HETATM   19  C16 UNL     1      22.207   0.882  52.966  1.00  0.00     0.121 A 
HETATM   20  O3  UNL     1      24.316   0.083  53.522  1.00  0.00    -0.344 OA
HETATM   21  O4  UNL     1      21.762  -0.381  53.321  1.00  0.00    -0.345 OA
HETATM   22  C19 UNL     1      22.366  -1.110  54.373  1.00  0.00     0.202 C 
HETATM   23  C18 UNL     1      23.850  -0.936  54.376  1.00  0.00     0.202 C 
BRANCH  17  24
HETATM   24  O2  UNL     1      25.448   2.495  52.884  1.00  0.00    -0.346 OA
BRANCH  24  25
HETATM   25  C3  UNL     1      26.523   2.295  52.057  1.00  0.00     0.201 C 
BRANCH  25  26
HETATM   26  C2  UNL     1      27.461   1.222  52.511  1.00  0.00     0.193 C 
BRANCH  26  27
HETATM   27  O1  UNL     1      28.625   1.768  53.043  1.00  0.00    -0.394 OA
HETATM   28  C1  UNL     1      29.382   0.888  53.768  1.00  0.00     0.201 C 
ENDBRANCH  26  27
ENDBRANCH  25  26
ENDBRANCH  24  25
ENDBRANCH  17  24
ENDBRANCH   8  10
ENDBRANCH   1   8
TORSDOF 6
ENDMDL
MODEL 9
REMARK VINA RESULT:      -6.4      2.421      5.701
REMARK  6 active torsions:
REMARK  status: ('A' for Active; 'I' for Inactive)
REMARK    1  A    between atoms: O1_2  and  C2_3 
REMARK    2  A    between atoms: C2_3  and  C3_4 
REMARK    3  A    between atoms: C3_4  and  O2_5 
REMARK    4  A    between atoms: O2_5  and  C4_6 
REMARK    5  A    between atoms: C8_12  and  N3_13 
REMARK    6  A    between atoms: N3_13  and  C9_14 
ROOT
HETATM    1  C9  UNL     1      26.152   1.486  52.798  1.00  0.00     0.031 A 
HETATM    2  C10 UNL     1      25.709   0.344  52.247  1.00  0.00     0.008 A 
HETATM    3  C11 UNL     1      26.758  -0.730  52.397  1.00  0.00     0.079 A 
HETATM    4  C12 UNL     1      27.850  -0.010  53.119  1.00  0.00     0.028 A 
HETATM    5  C13 UNL     1      29.116  -0.535  53.540  1.00  0.00     0.095 C 
HETATM    6  N4  UNL     1      30.141  -0.952  53.879  1.00  0.00    -0.192 NA
HETATM    7  C14 UNL     1      27.479   1.264  53.338  1.00  0.00     0.047 A 
ENDROOT
BRANCH   1   8
HETATM    8  N3  UNL     1      25.230   2.585  52.714  1.00  0.00    -0.340 N 
HETATM    9  H10 UNL     1      25.066   2.681  53.730  1.00  0.00     0.167 HD
BRANCH   8  10
HETATM   10  C8  UNL     1      24.938   3.054  51.418  1.00  0.00     0.144 A 
HETATM   11  N2  UNL     1      25.950   3.611  50.748  1.00  0.00    -0.223 NA
HETATM   12  C7  UNL     1      25.745   4.089  49.482  1.00  0.00     0.236 A 
HETATM   13  N1  UNL     1      24.523   3.990  48.933  1.00  0.00    -0.241 NA
HETATM   14  C6  UNL     1      23.486   3.437  49.577  1.00  0.00     0.077 A 
HETATM   15  C5  UNL     1      22.236   3.330  49.022  1.00  0.00     0.072 A 
HETATM   16  C15 UNL     1      23.689   2.955  50.849  1.00  0.00     0.075 A 
HETATM   17  C4  UNL     1      21.138   2.775  49.631  1.00  0.00     0.107 A 
HETATM   18  C17 UNL     1      21.401   2.300  50.927  1.00  0.00     0.136 A 
HETATM   19  C16 UNL     1      22.645   2.388  51.520  1.00  0.00     0.121 A 
HETATM   20  O3  UNL     1      20.435   1.702  51.722  1.00  0.00    -0.344 OA
HETATM   21  O4  UNL     1      22.796   1.888  52.803  1.00  0.00    -0.345 OA
HETATM   22  C19 UNL     1      22.086   0.744  53.240  1.00  0.00     0.202 C 
HETATM   23  C18 UNL     1      20.687   0.737  52.717  1.00  0.00     0.202 C 
BRANCH  17  24
HETATM   24  O2  UNL     1      19.875   2.612  49.199  1.00  0.00    -0.346 OA
BRANCH  24  25
HETATM   25  C3  UNL     1      18.741   3.382  49.248  1.00  0.00     0.201 C 
BRANCH  25  26
HETATM   26  C2  UNL     1      17.492   2.623  49.559  1.00  0.00     0.193 C 
BRANCH  26  27
HETATM   27  O1  UNL     1      17.235   2.620  50.926  1.00  0.00    -0.394 OA
HETATM   28  C1  UNL     1      17.582   3.776  51.569  1.00  0.00     0.201 C 
ENDBRANCH  26  27
ENDBRANCH  25  26
ENDBRANCH  24  25
ENDBRANCH  17  24
ENDBRANCH   8  10
ENDBRANCH   1   8
TORSDOF 6
ENDMDL
