MODEL 1
REMARK VINA RESULT:      -9.2      0.000      0.000
REMARK  3 active torsions:
REMARK  status: ('A' for Active; 'I' for Inactive)
REMARK    1  A    between atoms: C3_4  and  N2_5 
REMARK    2  A    between atoms: N2_5  and  C4_6 
REMARK    3  A    between atoms: C12_16  and  C13_17 
ROOT
HETATM    1  C1  UNL     1      28.737   2.082  53.861  1.00  0.00     0.093 C 
HETATM    2  C2  UNL     1      27.529   2.058  52.988  1.00  0.00     0.125 A 
HETATM    3  N1  UNL     1      27.547   2.594  51.766  1.00  0.00    -0.215 NA
HETATM    4  C3  UNL     1      26.529   2.621  50.922  1.00  0.00     0.142 A 
HETATM    5  C10 UNL     1      25.386   2.019  51.433  1.00  0.00     0.041 A 
HETATM    6  C11 UNL     1      25.275   1.450  52.659  1.00  0.00     0.084 A 
HETATM    7  N3  UNL     1      26.378   1.482  53.432  1.00  0.00    -0.232 NA
HETATM    8  C12 UNL     1      23.880   1.073  52.460  1.00  0.00     0.005 A 
HETATM    9  C19 UNL     1      23.973   1.624  51.260  1.00  0.00     0.032 A 
ENDROOT
BRANCH   4  10
HETATM   10  N2  UNL     1      26.480   3.168  49.625  1.00  0.00    -0.340 N 
HETATM   11  H4  UNL     1      26.231   2.526  48.824  1.00  0.00     0.167 HD
BRANCH  10  12
HETATM   12  C4  UNL     1      26.731   4.511  49.254  1.00  0.00     0.035 A 
HETATM   13  C5  UNL     1      27.836   4.958  48.565  1.00  0.00     0.029 A 
HETATM   14  C6  UNL     1      28.072   6.268  48.210  1.00  0.00     0.004 A 
HETATM   15  C7  UNL     1      27.149   7.227  48.555  1.00  0.00     0.019 A 
HETATM   16  C8  UNL     1      26.021   6.836  49.247  1.00  0.00     0.013 A 
HETATM   17 BR1  UNL     1      24.725   8.137  49.741  1.00  0.00    -0.051 Br
HETATM   18  C9  UNL     1      25.843   5.517  49.572  1.00  0.00     0.048 A 
ENDBRANCH  10  12
ENDBRANCH   4  10
BRANCH   8  19
HETATM   19  C13 UNL     1      22.839   0.394  53.224  1.00  0.00    -0.024 A 
HETATM   20  C14 UNL     1      21.599   0.969  53.336  1.00  0.00     0.012 A 
HETATM   21  C15 UNL     1      20.622   0.323  54.059  1.00  0.00     0.001 A 
HETATM   22  C16 UNL     1      20.882  -0.900  54.673  1.00  0.00     0.000 A 
HETATM   23  C17 UNL     1      22.135  -1.465  54.552  1.00  0.00     0.001 A 
HETATM   24  C18 UNL     1      23.112  -0.812  53.825  1.00  0.00     0.012 A 
ENDBRANCH   8  19
TORSDOF 3
ENDMDL
MODEL 2
REMARK VINA RESULT:      -9.0      1.979      7.028
REMARK  3 active torsions:
REMARK  status: ('A' for Active; 'I' for Inactive)
REMARK    1  A    between atoms: C3_4  and  N2_5 
REMARK    2  A    between atoms: N2_5  and  C4_6 
REMARK    3  A    between atoms: C12_16  and  C13_17 
ROOT
HETATM    1  C1  UNL     1      29.169   1.139  54.287  1.00  0.00     0.093 C 
HETATM    2  C2  UNL     1      27.974   1.266  53.406  1.00  0.00     0.125 A 
HETATM    3  N1  UNL     1      26.977   0.380  53.457  1.00  0.00    -0.215 NA
HETATM    4  C3  UNL     1      25.882   0.410  52.718  1.00  0.00     0.142 A 
HETATM    5  C10 UNL     1      25.848   1.488  51.842  1.00  0.00     0.041 A 
HETATM    6  C11 UNL     1      26.810   2.435  51.721  1.00  0.00     0.084 A 
HETATM    7  N3  UNL     1      27.882   2.301  52.527  1.00  0.00    -0.232 NA
HETATM    8  C12 UNL     1      26.094   3.161  50.678  1.00  0.00     0.005 A 
HETATM    9  C19 UNL     1      25.146   2.244  50.785  1.00  0.00     0.032 A 
ENDROOT
BRANCH   4  10
HETATM   10  N2  UNL     1      24.796  -0.490  52.721  1.00  0.00    -0.340 N 
HETATM   11  H4  UNL     1      24.925  -1.424  52.247  1.00  0.00     0.167 HD
BRANCH  10  12
HETATM   12  C4  UNL     1      23.520  -0.285  53.299  1.00  0.00     0.035 A 
HETATM   13  C5  UNL     1      23.026  -0.944  54.402  1.00  0.00     0.029 A 
HETATM   14  C6  UNL     1      21.782  -0.738  54.956  1.00  0.00     0.004 A 
HETATM   15  C7  UNL     1      20.946   0.194  54.386  1.00  0.00     0.019 A 
HETATM   16  C8  UNL     1      21.389   0.885  53.278  1.00  0.00     0.013 A 
HETATM   17 BR1  UNL     1      20.258   2.180  52.466  1.00  0.00    -0.051 Br
HETATM   18  C9  UNL     1      22.638   0.636  52.772  1.00  0.00     0.048 A 
ENDBRANCH  10  12
ENDBRANCH   4  10
BRANCH   8  19
HETATM   19  C13 UNL     1      26.309   4.357  49.872  1.00  0.00    -0.024 A 
HETATM   20  C14 UNL     1      25.405   5.387  49.935  1.00  0.00     0.012 A 
HETATM   21  C15 UNL     1      25.614   6.512  49.171  1.00  0.00     0.001 A 
HETATM   22  C16 UNL     1      26.728   6.612  48.341  1.00  0.00     0.000 A 
HETATM   23  C17 UNL     1      27.629   5.568  48.287  1.00  0.00     0.001 A 
HETATM   24  C18 UNL     1      27.413   4.441  49.056  1.00  0.00     0.012 A 
ENDBRANCH   8  19
TORSDOF 3
ENDMDL
MODEL 3
REMARK VINA RESULT:      -9.0      2.530      4.882
REMARK  3 active torsions:
REMARK  status: ('A' for Active; 'I' for Inactive)
REMARK    1  A    between atoms: C3_4  and  N2_5 
REMARK    2  A    between atoms: N2_5  and  C4_6 
REMARK    3  A    between atoms: C12_16  and  C13_17 
ROOT
HETATM    1  C1  UNL     1      21.506   0.055  54.161  1.00  0.00     0.093 C 
HETATM    2  C2  UNL     1      22.633   0.552  53.321  1.00  0.00     0.125 A 
HETATM    3  N1  UNL     1      22.446   1.498  52.399  1.00  0.00    -0.215 NA
HETATM    4  C3  UNL     1      23.380   2.001  51.611  1.00  0.00     0.142 A 
HETATM    5  C10 UNL     1      24.632   1.438  51.827  1.00  0.00     0.041 A 
HETATM    6  C11 UNL     1      24.916   0.475  52.739  1.00  0.00     0.084 A 
HETATM    7  N3  UNL     1      23.883   0.040  53.487  1.00  0.00    -0.232 NA
HETATM    8  C12 UNL     1      26.329   0.424  52.381  1.00  0.00     0.005 A 
HETATM    9  C19 UNL     1      26.067   1.364  51.487  1.00  0.00     0.032 A 
ENDROOT
BRANCH   4  10
HETATM   10  N2  UNL     1      23.251   2.996  50.621  1.00  0.00    -0.340 N 
HETATM   11  H4  UNL     1      22.608   2.805  49.806  1.00  0.00     0.167 HD
BRANCH  10  12
HETATM   12  C4  UNL     1      23.898   4.255  50.587  1.00  0.00     0.035 A 
HETATM   13  C5  UNL     1      23.517   5.369  51.301  1.00  0.00     0.029 A 
HETATM   14  C6  UNL     1      24.153   6.590  51.261  1.00  0.00     0.004 A 
HETATM   15  C7  UNL     1      25.258   6.738  50.456  1.00  0.00     0.019 A 
HETATM   16  C8  UNL     1      25.685   5.655  49.717  1.00  0.00     0.013 A 
HETATM   17 BR1  UNL     1      27.208   5.826  48.593  1.00  0.00    -0.051 Br
HETATM   18  C9  UNL     1      25.010   4.465  49.799  1.00  0.00     0.048 A 
ENDBRANCH  10  12
ENDBRANCH   4  10
BRANCH   8  19
HETATM   19  C13 UNL     1      27.510  -0.319  52.805  1.00  0.00    -0.024 A 
HETATM   20  C14 UNL     1      27.538  -1.683  52.666  1.00  0.00     0.012 A 
HETATM   21  C15 UNL     1      28.656  -2.377  53.069  1.00  0.00     0.001 A 
HETATM   22  C16 UNL     1      29.750  -1.709  53.614  1.00  0.00     0.000 A 
HETATM   23  C17 UNL     1      29.708  -0.337  53.748  1.00  0.00     0.001 A 
HETATM   24  C18 UNL     1      28.583   0.354  53.342  1.00  0.00     0.012 A 
ENDBRANCH   8  19
TORSDOF 3
ENDMDL
MODEL 4
REMARK VINA RESULT:      -9.0      3.323      5.625
REMARK  3 active torsions:
REMARK  status: ('A' for Active; 'I' for Inactive)
REMARK    1  A    between atoms: C3_4  and  N2_5 
REMARK    2  A    between atoms: N2_5  and  C4_6 
REMARK    3  A    between atoms: C12_16  and  C13_17 
ROOT
HETATM    1  C1  UNL     1      21.451  -1.641  54.598  1.00  0.00     0.093 C 
HETATM    2  C2  UNL     1      22.341  -0.699  53.863  1.00  0.00     0.125 A 
HETATM    3  N1  UNL     1      21.844   0.326  53.167  1.00  0.00    -0.215 NA
HETATM    4  C3  UNL     1      22.552   1.211  52.487  1.00  0.00     0.142 A 
HETATM    5  C10 UNL     1      23.920   0.979  52.555  1.00  0.00     0.041 A 
HETATM    6  C11 UNL     1      24.515  -0.033  53.236  1.00  0.00     0.084 A 
HETATM    7  N3  UNL     1      23.691  -0.873  53.893  1.00  0.00    -0.232 NA
HETATM    8  C12 UNL     1      25.861   0.375  52.849  1.00  0.00     0.005 A 
HETATM    9  C19 UNL     1      25.295   1.367  52.181  1.00  0.00     0.032 A 
ENDROOT
BRANCH   4  10
HETATM   10  N2  UNL     1      22.093   2.310  51.734  1.00  0.00    -0.340 N 
HETATM   11  H4  UNL     1      21.639   3.111  52.251  1.00  0.00     0.167 HD
BRANCH  10  12
HETATM   12  C4  UNL     1      22.167   2.474  50.330  1.00  0.00     0.035 A 
HETATM   13  C5  UNL     1      21.979   1.479  49.397  1.00  0.00     0.029 A 
HETATM   14  C6  UNL     1      22.054   1.649  48.032  1.00  0.00     0.004 A 
HETATM   15  C7  UNL     1      22.337   2.899  47.532  1.00  0.00     0.019 A 
HETATM   16  C8  UNL     1      22.535   3.934  48.421  1.00  0.00     0.013 A 
HETATM   17 BR1  UNL     1      22.928   5.674  47.763  1.00  0.00    -0.051 Br
HETATM   18  C9  UNL     1      22.447   3.703  49.769  1.00  0.00     0.048 A 
ENDBRANCH  10  12
ENDBRANCH   4  10
BRANCH   8  19
HETATM   19  C13 UNL     1      27.224  -0.088  53.084  1.00  0.00    -0.024 A 
HETATM   20  C14 UNL     1      28.172   0.797  53.531  1.00  0.00     0.012 A 
HETATM   21  C15 UNL     1      29.455   0.354  53.750  1.00  0.00     0.001 A 
HETATM   22  C16 UNL     1      29.797  -0.977  53.522  1.00  0.00     0.000 A 
HETATM   23  C17 UNL     1      28.834  -1.856  53.072  1.00  0.00     0.001 A 
HETATM   24  C18 UNL     1      27.547  -1.404  52.854  1.00  0.00     0.012 A 
ENDBRANCH   8  19
TORSDOF 3
ENDMDL
MODEL 5
REMARK VINA RESULT:      -8.8      3.329      6.590
REMARK  3 active torsions:
REMARK  status: ('A' for Active; 'I' for Inactive)
REMARK    1  A    between atoms: C3_4  and  N2_5 
REMARK    2  A    between atoms: N2_5  and  C4_6 
REMARK    3  A    between atoms: C12_16  and  C13_17 
ROOT
HETATM    1  C1  UNL     1      26.464   4.497  49.297  1.00  0.00     0.093 C 
HETATM    2  C2  UNL     1      25.946   3.574  50.347  1.00  0.00     0.125 A 
HETATM    3  N1  UNL     1      24.717   3.715  50.849  1.00  0.00    -0.215 NA
HETATM    4  C3  UNL     1      24.173   2.949  51.778  1.00  0.00     0.142 A 
HETATM    5  C10 UNL     1      25.021   1.937  52.212  1.00  0.00     0.041 A 
HETATM    6  C11 UNL     1      26.280   1.717  51.761  1.00  0.00     0.084 A 
HETATM    7  N3  UNL     1      26.729   2.563  50.812  1.00  0.00    -0.232 NA
HETATM    8  C12 UNL     1      26.492   0.569  52.634  1.00  0.00     0.005 A 
HETATM    9  C19 UNL     1      25.264   0.770  53.084  1.00  0.00     0.032 A 
ENDROOT
BRANCH   4  10
HETATM   10  N2  UNL     1      22.888   3.041  52.350  1.00  0.00    -0.340 N 
HETATM   11  H4  UNL     1      22.658   3.902  52.917  1.00  0.00     0.167 HD
BRANCH  10  12
HETATM   12  C4  UNL     1      21.840   2.094  52.253  1.00  0.00     0.035 A 
HETATM   13  C5  UNL     1      20.791   2.149  51.364  1.00  0.00     0.029 A 
HETATM   14  C6  UNL     1      19.776   1.222  51.279  1.00  0.00     0.004 A 
HETATM   15  C7  UNL     1      19.785   0.145  52.134  1.00  0.00     0.019 A 
HETATM   16  C8  UNL     1      20.813   0.038  53.047  1.00  0.00     0.013 A 
HETATM   17 BR1  UNL     1      20.856  -1.438  54.244  1.00  0.00    -0.051 Br
HETATM   18  C9  UNL     1      21.795   0.993  53.084  1.00  0.00     0.048 A 
ENDBRANCH  10  12
ENDBRANCH   4  10
BRANCH   8  19
HETATM   19  C13 UNL     1      27.564  -0.383  52.903  1.00  0.00    -0.024 A 
HETATM   20  C14 UNL     1      27.366  -1.716  52.646  1.00  0.00     0.012 A 
HETATM   21  C15 UNL     1      28.381  -2.608  52.902  1.00  0.00     0.001 A 
HETATM   22  C16 UNL     1      29.599  -2.172  53.419  1.00  0.00     0.000 A 
HETATM   23  C17 UNL     1      29.784  -0.828  53.674  1.00  0.00     0.001 A 
HETATM   24  C18 UNL     1      28.760   0.063  53.414  1.00  0.00     0.012 A 
ENDBRANCH   8  19
TORSDOF 3
ENDMDL
MODEL 6
REMARK VINA RESULT:      -8.8      4.012      7.615
REMARK  3 active torsions:
REMARK  status: ('A' for Active; 'I' for Inactive)
REMARK    1  A    between atoms: C3_4  and  N2_5 
REMARK    2  A    between atoms: N2_5  and  C4_6 
REMARK    3  A    between atoms: C12_16  and  C13_17 
ROOT
HETATM    1  C1  UNL     1      23.835   3.634  50.103  1.00  0.00     0.093 C 
HETATM    2  C2  UNL     1      23.778   2.547  51.121  1.00  0.00     0.125 A 
HETATM    3  N1  UNL     1      22.643   2.255  51.761  1.00  0.00    -0.215 NA
HETATM    4  C3  UNL     1      22.496   1.313  52.676  1.00  0.00     0.142 A 
HETATM    5  C10 UNL     1      23.671   0.617  52.932  1.00  0.00     0.041 A 
HETATM    6  C11 UNL     1      24.866   0.842  52.333  1.00  0.00     0.084 A 
HETATM    7  N3  UNL     1      24.896   1.829  51.415  1.00  0.00    -0.232 NA
HETATM    8  C12 UNL     1      25.544  -0.210  53.081  1.00  0.00     0.005 A 
HETATM    9  C19 UNL     1      24.384  -0.442  53.674  1.00  0.00     0.032 A 
ENDROOT
BRANCH   4  10
HETATM   10  N2  UNL     1      21.333   0.955  53.387  1.00  0.00    -0.340 N 
HETATM   11  H4  UNL     1      21.341   1.060  54.438  1.00  0.00     0.167 HD
BRANCH  10  12
HETATM   12  C4  UNL     1      20.122   0.458  52.848  1.00  0.00     0.035 A 
HETATM   13  C5  UNL     1      19.416   1.023  51.810  1.00  0.00     0.029 A 
HETATM   14  C6  UNL     1      18.239   0.532  51.292  1.00  0.00     0.004 A 
HETATM   15  C7  UNL     1      17.701  -0.613  51.833  1.00  0.00     0.019 A 
HETATM   16  C8  UNL     1      18.366  -1.223  52.876  1.00  0.00     0.013 A 
HETATM   17 BR1  UNL     1      17.650  -2.807  53.647  1.00  0.00    -0.051 Br
HETATM   18  C9  UNL     1      19.534  -0.686  53.348  1.00  0.00     0.048 A 
ENDBRANCH  10  12
ENDBRANCH   4  10
BRANCH   8  19
HETATM   19  C13 UNL     1      26.889  -0.770  53.155  1.00  0.00    -0.024 A 
HETATM   20  C14 UNL     1      27.927   0.017  53.583  1.00  0.00     0.012 A 
HETATM   21  C15 UNL     1      29.193  -0.517  53.649  1.00  0.00     0.001 A 
HETATM   22  C16 UNL     1      29.426  -1.841  53.287  1.00  0.00     0.000 A 
HETATM   23  C17 UNL     1      28.372  -2.622  52.857  1.00  0.00     0.001 A 
HETATM   24  C18 UNL     1      27.104  -2.079  52.792  1.00  0.00     0.012 A 
ENDBRANCH   8  19
TORSDOF 3
ENDMDL
MODEL 7
REMARK VINA RESULT:      -8.6      3.622      7.578
REMARK  3 active torsions:
REMARK  status: ('A' for Active; 'I' for Inactive)
REMARK    1  A    between atoms: C3_4  and  N2_5 
REMARK    2  A    between atoms: N2_5  and  C4_6 
REMARK    3  A    between atoms: C12_16  and  C13_17 
ROOT
HETATM    1  C1  UNL     1      23.491   3.351  49.911  1.00  0.00     0.093 C 
HETATM    2  C2  UNL     1      23.489   2.348  51.013  1.00  0.00     0.125 A 
HETATM    3  N1  UNL     1      22.383   2.088  51.712  1.00  0.00    -0.215 NA
HETATM    4  C3  UNL     1      22.285   1.219  52.703  1.00  0.00     0.142 A 
HETATM    5  C10 UNL     1      23.481   0.566  52.973  1.00  0.00     0.041 A 
HETATM    6  C11 UNL     1      24.652   0.764  52.317  1.00  0.00     0.084 A 
HETATM    7  N3  UNL     1      24.631   1.675  51.324  1.00  0.00    -0.232 NA
HETATM    8  C12 UNL     1      25.375  -0.214  53.121  1.00  0.00     0.005 A 
HETATM    9  C19 UNL     1      24.240  -0.419  53.770  1.00  0.00     0.032 A 
ENDROOT
BRANCH   4  10
HETATM   10  N2  UNL     1      21.153   0.897  53.480  1.00  0.00    -0.340 N 
HETATM   11  H4  UNL     1      21.153   1.180  54.497  1.00  0.00     0.167 HD
BRANCH  10  12
HETATM   12  C4  UNL     1      19.986   0.223  53.048  1.00  0.00     0.035 A 
HETATM   13  C5  UNL     1      19.427  -0.879  53.657  1.00  0.00     0.029 A 
HETATM   14  C6  UNL     1      18.290  -1.528  53.229  1.00  0.00     0.004 A 
HETATM   15  C7  UNL     1      17.640  -1.064  52.110  1.00  0.00     0.019 A 
HETATM   16  C8  UNL     1      18.155   0.038  51.459  1.00  0.00     0.013 A 
HETATM   17 BR1  UNL     1      17.281   0.705  49.908  1.00  0.00    -0.051 Br
HETATM   18  C9  UNL     1      19.290   0.641  51.933  1.00  0.00     0.048 A 
ENDBRANCH  10  12
ENDBRANCH   4  10
BRANCH   8  19
HETATM   19  C13 UNL     1      26.733  -0.742  53.192  1.00  0.00    -0.024 A 
HETATM   20  C14 UNL     1      26.996  -2.000  52.714  1.00  0.00     0.012 A 
HETATM   21  C15 UNL     1      28.279  -2.492  52.784  1.00  0.00     0.001 A 
HETATM   22  C16 UNL     1      29.304  -1.727  53.335  1.00  0.00     0.000 A 
HETATM   23  C17 UNL     1      29.025  -0.463  53.813  1.00  0.00     0.001 A 
HETATM   24  C18 UNL     1      27.735   0.025  53.739  1.00  0.00     0.012 A 
ENDBRANCH   8  19
TORSDOF 3
ENDMDL
MODEL 8
REMARK VINA RESULT:      -8.5      2.725      7.791
REMARK  3 active torsions:
REMARK  status: ('A' for Active; 'I' for Inactive)
REMARK    1  A    between atoms: C3_4  and  N2_5 
REMARK    2  A    between atoms: N2_5  and  C4_6 
REMARK    3  A    between atoms: C12_16  and  C13_17 
ROOT
HETATM    1  C1  UNL     1      27.332   0.476  52.729  1.00  0.00     0.093 C 
HETATM    2  C2  UNL     1      26.422   1.351  51.938  1.00  0.00     0.125 A 
HETATM    3  N1  UNL     1      25.101   1.158  51.938  1.00  0.00    -0.215 NA
HETATM    4  C3  UNL     1      24.217   1.879  51.270  1.00  0.00     0.142 A 
HETATM    5  C10 UNL     1      24.799   2.903  50.533  1.00  0.00     0.041 A 
HETATM    6  C11 UNL     1      26.126   3.175  50.473  1.00  0.00     0.084 A 
HETATM    7  N3  UNL     1      26.932   2.372  51.196  1.00  0.00    -0.232 NA
HETATM    8  C12 UNL     1      25.949   4.303  49.567  1.00  0.00     0.005 A 
HETATM    9  C19 UNL     1      24.651   4.051  49.615  1.00  0.00     0.032 A 
ENDROOT
BRANCH   4  10
HETATM   10  N2  UNL     1      22.817   1.730  51.226  1.00  0.00    -0.340 N 
HETATM   11  H4  UNL     1      22.291   2.205  50.443  1.00  0.00     0.167 HD
BRANCH  10  12
HETATM   12  C4  UNL     1      22.007   1.000  52.129  1.00  0.00     0.035 A 
HETATM   13  C5  UNL     1      22.394   0.560  53.375  1.00  0.00     0.029 A 
HETATM   14  C6  UNL     1      21.599  -0.150  54.247  1.00  0.00     0.004 A 
HETATM   15  C7  UNL     1      20.312  -0.459  53.872  1.00  0.00     0.019 A 
HETATM   16  C8  UNL     1      19.870  -0.044  52.634  1.00  0.00     0.013 A 
HETATM   17 BR1  UNL     1      18.096  -0.454  52.084  1.00  0.00    -0.051 Br
HETATM   18  C9  UNL     1      20.709   0.660  51.810  1.00  0.00     0.048 A 
ENDBRANCH  10  12
ENDBRANCH   4  10
BRANCH   8  19
HETATM   19  C13 UNL     1      26.802   5.280  48.899  1.00  0.00    -0.024 A 
HETATM   20  C14 UNL     1      26.292   6.509  48.567  1.00  0.00     0.012 A 
HETATM   21  C15 UNL     1      27.103   7.425  47.937  1.00  0.00     0.001 A 
HETATM   22  C16 UNL     1      28.427   7.115  47.636  1.00  0.00     0.000 A 
HETATM   23  C17 UNL     1      28.926   5.874  47.976  1.00  0.00     0.001 A 
HETATM   24  C18 UNL     1      28.107   4.959  48.608  1.00  0.00     0.012 A 
ENDBRANCH   8  19
TORSDOF 3
ENDMDL
MODEL 9
REMARK VINA RESULT:      -8.3      3.083      8.049
REMARK  3 active torsions:
REMARK  status: ('A' for Active; 'I' for Inactive)
REMARK    1  A    between atoms: C3_4  and  N2_5 
REMARK    2  A    between atoms: N2_5  and  C4_6 
REMARK    3  A    between atoms: C12_16  and  C13_17 
ROOT
HETATM    1  C1  UNL     1      21.885   6.732  50.988  1.00  0.00     0.093 C 
HETATM    2  C2  UNL     1      22.913   5.729  50.591  1.00  0.00     0.125 A 
HETATM    3  N1  UNL     1      22.716   4.422  50.777  1.00  0.00    -0.215 NA
HETATM    4  C3  UNL     1      23.565   3.461  50.458  1.00  0.00     0.142 A 
HETATM    5  C10 UNL     1      24.738   3.942  49.887  1.00  0.00     0.041 A 
HETATM    6  C11 UNL     1      25.025   5.247  49.659  1.00  0.00     0.084 A 
HETATM    7  N3  UNL     1      24.082   6.138  50.025  1.00  0.00    -0.232 NA
HETATM    8  C12 UNL     1      26.333   4.954  49.083  1.00  0.00     0.005 A 
HETATM    9  C19 UNL     1      26.066   3.676  49.299  1.00  0.00     0.032 A 
ENDROOT
BRANCH   4  10
HETATM   10  N2  UNL     1      23.420   2.070  50.627  1.00  0.00    -0.340 N 
HETATM   11  H4  UNL     1      22.904   1.530  49.880  1.00  0.00     0.167 HD
BRANCH  10  12
HETATM   12  C4  UNL     1      23.895   1.287  51.707  1.00  0.00     0.035 A 
HETATM   13  C5  UNL     1      25.219   1.100  52.038  1.00  0.00     0.029 A 
HETATM   14  C6  UNL     1      25.671   0.336  53.091  1.00  0.00     0.004 A 
HETATM   15  C7  UNL     1      24.753  -0.302  53.892  1.00  0.00     0.019 A 
HETATM   16  C8  UNL     1      23.412  -0.150  53.607  1.00  0.00     0.013 A 
HETATM   17 BR1  UNL     1      22.117  -1.019  54.695  1.00  0.00    -0.051 Br
HETATM   18  C9  UNL     1      23.024   0.623  52.545  1.00  0.00     0.048 A 
ENDBRANCH  10  12
ENDBRANCH   4  10
BRANCH   8  19
HETATM   19  C13 UNL     1      27.444   5.712  48.518  1.00  0.00    -0.024 A 
HETATM   20  C14 UNL     1      27.234   6.993  48.076  1.00  0.00     0.012 A 
HETATM   21  C15 UNL     1      28.286   7.702  47.544  1.00  0.00     0.001 A 
HETATM   22  C16 UNL     1      29.553   7.132  47.452  1.00  0.00     0.000 A 
HETATM   23  C17 UNL     1      29.750   5.841  47.900  1.00  0.00     0.001 A 
HETATM   24  C18 UNL     1      28.689   5.135  48.433  1.00  0.00     0.012 A 
ENDBRANCH   8  19
TORSDOF 3
ENDMDL
