MODEL 1
REMARK VINA RESULT:      -8.1      0.000      0.000
REMARK  2 active torsions:
REMARK  status: ('A' for Active; 'I' for Inactive)
REMARK    1  A    between atoms: C7_7  and  C8_8 
REMARK    2  A    between atoms: C8_8  and  N1_9 
ROOT
HETATM    1  N1  UNL     1      25.115   0.344  52.987  1.00  0.00    -0.382 N 
HETATM    2  C9  UNL     1      24.947  -0.372  54.201  1.00  0.00     0.087 C 
HETATM    3  C10 UNL     1      23.654  -0.528  54.391  1.00  0.00     0.027 C 
HETATM    4  C11 UNL     1      22.877   0.087  53.291  1.00  0.00    -0.015 C 
HETATM    5  C12 UNL     1      21.667  -0.315  52.976  1.00  0.00     0.032 C 
HETATM    6  N2  UNL     1      21.079  -1.397  53.732  1.00  0.00    -0.368 N 
HETATM    7  C13 UNL     1      19.692  -1.668  53.844  1.00  0.00     0.084 C 
HETATM    8  C14 UNL     1      18.848  -0.874  53.212  1.00  0.00    -0.008 C 
HETATM    9  C15 UNL     1      19.323   0.265  52.410  1.00  0.00     0.050 C 
HETATM   10  C16 UNL     1      20.740   0.154  51.928  1.00  0.00     0.111 C 
HETATM   11 BR1  UNL     1      21.290   1.880  51.203  1.00  0.00    -0.084 Br
HETATM   12  C17 UNL     1      23.857   1.099  52.834  1.00  0.00     0.163 C 
HETATM   13  H12 UNL     1      21.675  -2.075  54.267  1.00  0.00     0.165 HD
ENDROOT
BRANCH   1  14
HETATM   14  C8  UNL     1      26.250   0.322  52.120  1.00  0.00     0.161 C 
BRANCH  14  15
HETATM   15  C7  UNL     1      27.517  -0.098  52.718  1.00  0.00    -0.034 A 
HETATM   16  C2  UNL     1      28.463   0.720  53.301  1.00  0.00    -0.054 A 
HETATM   17  C1  UNL     1      28.163   2.176  53.326  1.00  0.00     0.049 C 
HETATM   18  C3  UNL     1      29.641   0.248  53.845  1.00  0.00     0.007 A 
HETATM   19  C4  UNL     1      29.940  -1.102  53.834  1.00  0.00     0.001 A 
HETATM   20  C5  UNL     1      29.026  -1.972  53.261  1.00  0.00     0.001 A 
HETATM   21  C6  UNL     1      27.863  -1.453  52.730  1.00  0.00     0.009 A 
ENDBRANCH  14  15
ENDBRANCH   1  14
TORSDOF 2
ENDMDL
MODEL 2
REMARK VINA RESULT:      -8.0      1.674      2.145
REMARK  2 active torsions:
REMARK  status: ('A' for Active; 'I' for Inactive)
REMARK    1  A    between atoms: C7_7  and  C8_8 
REMARK    2  A    between atoms: C8_8  and  N1_9 
ROOT
HETATM    1  N1  UNL     1      25.162   0.810  53.012  1.00  0.00    -0.382 N 
HETATM    2  C9  UNL     1      24.968   1.529  51.804  1.00  0.00     0.087 C 
HETATM    3  C10 UNL     1      23.697   1.422  51.481  1.00  0.00     0.027 C 
HETATM    4  C11 UNL     1      22.961   0.611  52.478  1.00  0.00    -0.015 C 
HETATM    5  C12 UNL     1      21.669   0.739  52.671  1.00  0.00     0.032 C 
HETATM    6  N2  UNL     1      20.944   1.708  51.882  1.00  0.00    -0.368 N 
HETATM    7  C13 UNL     1      19.549   1.692  51.629  1.00  0.00     0.084 C 
HETATM    8  C14 UNL     1      18.833   0.712  52.148  1.00  0.00    -0.008 C 
HETATM    9  C15 UNL     1      19.455  -0.338  52.969  1.00  0.00     0.050 C 
HETATM   10  C16 UNL     1      20.762   0.042  53.602  1.00  0.00     0.111 C 
HETATM   11 BR1  UNL     1      21.588  -1.564  54.342  1.00  0.00    -0.084 Br
HETATM   12  C17 UNL     1      24.082  -0.196  53.013  1.00  0.00     0.163 C 
HETATM   13  H12 UNL     1      21.434   2.519  51.429  1.00  0.00     0.165 HD
ENDROOT
BRANCH   1  14
HETATM   14  C8  UNL     1      26.175   1.026  53.995  1.00  0.00     0.161 C 
BRANCH  14  15
HETATM   15  C7  UNL     1      27.463   0.378  53.755  1.00  0.00    -0.034 A 
HETATM   16  C2  UNL     1      28.693   0.997  53.672  1.00  0.00    -0.054 A 
HETATM   17  C1  UNL     1      28.711   2.474  53.844  1.00  0.00     0.049 C 
HETATM   18  C3  UNL     1      29.871   0.314  53.440  1.00  0.00     0.007 A 
HETATM   19  C4  UNL     1      29.878  -1.059  53.277  1.00  0.00     0.001 A 
HETATM   20  C5  UNL     1      28.671  -1.735  53.352  1.00  0.00     0.001 A 
HETATM   21  C6  UNL     1      27.521  -1.010  53.584  1.00  0.00     0.009 A 
ENDBRANCH  14  15
ENDBRANCH   1  14
TORSDOF 2
ENDMDL
MODEL 3
REMARK VINA RESULT:      -8.0      3.122      4.817
REMARK  2 active torsions:
REMARK  status: ('A' for Active; 'I' for Inactive)
REMARK    1  A    between atoms: C7_7  and  C8_8 
REMARK    2  A    between atoms: C8_8  and  N1_9 
ROOT
HETATM    1  N1  UNL     1      25.461   1.245  52.073  1.00  0.00    -0.382 N 
HETATM    2  C9  UNL     1      26.428   1.885  51.255  1.00  0.00     0.087 C 
HETATM    3  C10 UNL     1      25.902   3.016  50.835  1.00  0.00     0.027 C 
HETATM    4  C11 UNL     1      24.530   3.193  51.362  1.00  0.00    -0.015 C 
HETATM    5  C12 UNL     1      23.981   4.378  51.507  1.00  0.00     0.032 C 
HETATM    6  N2  UNL     1      24.747   5.545  51.138  1.00  0.00    -0.368 N 
HETATM    7  C13 UNL     1      24.211   6.816  50.811  1.00  0.00     0.084 C 
HETATM    8  C14 UNL     1      22.900   6.966  50.837  1.00  0.00    -0.008 C 
HETATM    9  C15 UNL     1      22.010   5.850  51.195  1.00  0.00     0.050 C 
HETATM   10  C16 UNL     1      22.650   4.765  52.011  1.00  0.00     0.111 C 
HETATM   11 BR1  UNL     1      21.435   3.238  52.081  1.00  0.00    -0.084 Br
HETATM   12  C17 UNL     1      24.171   1.775  51.592  1.00  0.00     0.163 C 
HETATM   13  H12 UNL     1      25.795   5.517  51.089  1.00  0.00     0.165 HD
ENDROOT
BRANCH   1  14
HETATM   14  C8  UNL     1      25.701   0.306  53.122  1.00  0.00     0.161 C 
BRANCH  14  15
HETATM   15  C7  UNL     1      27.094  -0.074  53.348  1.00  0.00    -0.034 A 
HETATM   16  C2  UNL     1      27.699  -1.253  52.960  1.00  0.00    -0.054 A 
HETATM   17  C1  UNL     1      26.847  -2.234  52.237  1.00  0.00     0.049 C 
HETATM   18  C3  UNL     1      29.025  -1.542  53.211  1.00  0.00     0.007 A 
HETATM   19  C4  UNL     1      29.836  -0.645  53.881  1.00  0.00     0.001 A 
HETATM   20  C5  UNL     1      29.283   0.557  54.295  1.00  0.00     0.001 A 
HETATM   21  C6  UNL     1      27.953   0.801  54.022  1.00  0.00     0.009 A 
ENDBRANCH  14  15
ENDBRANCH   1  14
TORSDOF 2
ENDMDL
MODEL 4
REMARK VINA RESULT:      -7.9      2.030      2.528
REMARK  2 active torsions:
REMARK  status: ('A' for Active; 'I' for Inactive)
REMARK    1  A    between atoms: C7_7  and  C8_8 
REMARK    2  A    between atoms: C8_8  and  N1_9 
ROOT
HETATM    1  N1  UNL     1      25.262   2.616  51.869  1.00  0.00    -0.382 N 
HETATM    2  C9  UNL     1      24.587   2.592  53.117  1.00  0.00     0.087 C 
HETATM    3  C10 UNL     1      23.317   2.349  52.873  1.00  0.00     0.027 C 
HETATM    4  C11 UNL     1      23.074   2.193  51.421  1.00  0.00    -0.015 C 
HETATM    5  C12 UNL     1      22.063   1.500  50.948  1.00  0.00     0.032 C 
HETATM    6  N2  UNL     1      21.161   0.868  51.882  1.00  0.00    -0.368 N 
HETATM    7  C13 UNL     1      19.828   0.473  51.605  1.00  0.00     0.084 C 
HETATM    8  C14 UNL     1      19.350   0.694  50.394  1.00  0.00    -0.008 C 
HETATM    9  C15 UNL     1      20.171   1.333  49.354  1.00  0.00     0.050 C 
HETATM   10  C16 UNL     1      21.654   1.223  49.558  1.00  0.00     0.111 C 
HETATM   11 BR1  UNL     1      22.548   2.411  48.295  1.00  0.00    -0.084 Br
HETATM   12  C17 UNL     1      24.214   2.979  50.896  1.00  0.00     0.163 C 
HETATM   13  H12 UNL     1      21.455   0.657  52.868  1.00  0.00     0.165 HD
ENDROOT
BRANCH   1  14
HETATM   14  C8  UNL     1      26.643   2.342  51.627  1.00  0.00     0.161 C 
BRANCH  14  15
HETATM   15  C7  UNL     1      27.200   1.167  52.295  1.00  0.00    -0.034 A 
HETATM   16  C2  UNL     1      28.199   1.158  53.247  1.00  0.00    -0.054 A 
HETATM   17  C1  UNL     1      28.765   2.476  53.634  1.00  0.00     0.049 C 
HETATM   18  C3  UNL     1      28.675   0.002  53.834  1.00  0.00     0.007 A 
HETATM   19  C4  UNL     1      28.162  -1.236  53.491  1.00  0.00     0.001 A 
HETATM   20  C5  UNL     1      27.155  -1.287  52.539  1.00  0.00     0.001 A 
HETATM   21  C6  UNL     1      26.713  -0.107  51.980  1.00  0.00     0.009 A 
ENDBRANCH  14  15
ENDBRANCH   1  14
TORSDOF 2
ENDMDL
MODEL 5
REMARK VINA RESULT:      -7.9      4.410      6.431
REMARK  2 active torsions:
REMARK  status: ('A' for Active; 'I' for Inactive)
REMARK    1  A    between atoms: C7_7  and  C8_8 
REMARK    2  A    between atoms: C8_8  and  N1_9 
ROOT
HETATM    1  N1  UNL     1      25.515   2.482  50.892  1.00  0.00    -0.382 N 
HETATM    2  C9  UNL     1      26.563   2.732  49.968  1.00  0.00     0.087 C 
HETATM    3  C10 UNL     1      26.454   3.983  49.576  1.00  0.00     0.027 C 
HETATM    4  C11 UNL     1      25.305   4.648  50.231  1.00  0.00    -0.015 C 
HETATM    5  C12 UNL     1      25.251   5.949  50.402  1.00  0.00     0.032 C 
HETATM    6  N2  UNL     1      26.354   6.755  49.933  1.00  0.00    -0.368 N 
HETATM    7  C13 UNL     1      26.296   8.139  49.631  1.00  0.00     0.084 C 
HETATM    8  C14 UNL     1      25.143   8.763  49.783  1.00  0.00    -0.008 C 
HETATM    9  C15 UNL     1      23.944   8.051  50.252  1.00  0.00     0.050 C 
HETATM   10  C16 UNL     1      24.215   6.794  51.026  1.00  0.00     0.111 C 
HETATM   11 BR1  UNL     1      22.535   5.825  51.250  1.00  0.00    -0.084 Br
HETATM   12  C17 UNL     1      24.471   3.461  50.528  1.00  0.00     0.163 C 
HETATM   13  H12 UNL     1      27.306   6.341  49.782  1.00  0.00     0.165 HD
ENDROOT
BRANCH   1  14
HETATM   14  C8  UNL     1      25.494   1.506  51.933  1.00  0.00     0.161 C 
BRANCH  14  15
HETATM   15  C7  UNL     1      26.766   1.246  52.606  1.00  0.00    -0.034 A 
HETATM   16  C2  UNL     1      27.346   0.012  52.819  1.00  0.00    -0.054 A 
HETATM   17  C1  UNL     1      26.605  -1.172  52.311  1.00  0.00     0.049 C 
HETATM   18  C3  UNL     1      28.555  -0.154  53.467  1.00  0.00     0.007 A 
HETATM   19  C4  UNL     1      29.262   0.933  53.948  1.00  0.00     0.001 A 
HETATM   20  C5  UNL     1      28.726   2.198  53.762  1.00  0.00     0.001 A 
HETATM   21  C6  UNL     1      27.516   2.314  53.109  1.00  0.00     0.009 A 
ENDBRANCH  14  15
ENDBRANCH   1  14
TORSDOF 2
ENDMDL
MODEL 6
REMARK VINA RESULT:      -7.8      3.920      5.213
REMARK  2 active torsions:
REMARK  status: ('A' for Active; 'I' for Inactive)
REMARK    1  A    between atoms: C7_7  and  C8_8 
REMARK    2  A    between atoms: C8_8  and  N1_9 
ROOT
HETATM    1  N1  UNL     1      24.752   3.023  50.847  1.00  0.00    -0.382 N 
HETATM    2  C9  UNL     1      25.774   2.477  51.665  1.00  0.00     0.087 C 
HETATM    3  C10 UNL     1      25.189   1.800  52.629  1.00  0.00     0.027 C 
HETATM    4  C11 UNL     1      23.714   1.859  52.501  1.00  0.00    -0.015 C 
HETATM    5  C12 UNL     1      22.929   0.930  52.996  1.00  0.00     0.032 C 
HETATM    6  N2  UNL     1      23.529  -0.186  53.689  1.00  0.00    -0.368 N 
HETATM    7  C13 UNL     1      22.879  -1.018  54.635  1.00  0.00     0.084 C 
HETATM    8  C14 UNL     1      21.615  -0.766  54.924  1.00  0.00    -0.008 C 
HETATM    9  C15 UNL     1      20.893   0.346  54.287  1.00  0.00     0.050 C 
HETATM   10  C16 UNL     1      21.459   0.802  52.973  1.00  0.00     0.111 C 
HETATM   11 BR1  UNL     1      20.598   2.479  52.470  1.00  0.00    -0.084 Br
HETATM   12  C17 UNL     1      23.584   3.125  51.744  1.00  0.00     0.163 C 
HETATM   13  H12 UNL     1      24.529  -0.458  53.523  1.00  0.00     0.165 HD
ENDROOT
BRANCH   1  14
HETATM   14  C8  UNL     1      24.846   3.383  49.468  1.00  0.00     0.161 C 
BRANCH  14  15
HETATM   15  C7  UNL     1      25.745   4.490  49.145  1.00  0.00    -0.034 A 
HETATM   16  C2  UNL     1      25.400   5.821  49.023  1.00  0.00    -0.054 A 
HETATM   17  C1  UNL     1      23.970   6.163  49.244  1.00  0.00     0.049 C 
HETATM   18  C3  UNL     1      26.309   6.814  48.713  1.00  0.00     0.007 A 
HETATM   19  C4  UNL     1      27.643   6.518  48.504  1.00  0.00     0.001 A 
HETATM   20  C5  UNL     1      28.048   5.197  48.614  1.00  0.00     0.001 A 
HETATM   21  C6  UNL     1      27.104   4.240  48.925  1.00  0.00     0.009 A 
ENDBRANCH  14  15
ENDBRANCH   1  14
TORSDOF 2
ENDMDL
MODEL 7
REMARK VINA RESULT:      -7.8      2.242      7.584
REMARK  2 active torsions:
REMARK  status: ('A' for Active; 'I' for Inactive)
REMARK    1  A    between atoms: C7_7  and  C8_8 
REMARK    2  A    between atoms: C8_8  and  N1_9 
ROOT
HETATM    1  N1  UNL     1      23.369   1.537  51.931  1.00  0.00    -0.382 N 
HETATM    2  C9  UNL     1      23.546   2.751  52.644  1.00  0.00     0.087 C 
HETATM    3  C10 UNL     1      24.720   2.695  53.235  1.00  0.00     0.027 C 
HETATM    4  C11 UNL     1      25.403   1.414  52.940  1.00  0.00    -0.015 C 
HETATM    5  C12 UNL     1      26.710   1.289  52.982  1.00  0.00     0.032 C 
HETATM    6  N2  UNL     1      27.504   2.444  53.329  1.00  0.00    -0.368 N 
HETATM    7  C13 UNL     1      28.826   2.415  53.842  1.00  0.00     0.084 C 
HETATM    8  C14 UNL     1      29.397   1.239  54.029  1.00  0.00    -0.008 C 
HETATM    9  C15 UNL     1      28.689  -0.013  53.716  1.00  0.00     0.050 C 
HETATM   10  C16 UNL     1      27.572   0.121  52.722  1.00  0.00     0.111 C 
HETATM   11 BR1  UNL     1      26.548  -1.541  52.707  1.00  0.00    -0.084 Br
HETATM   12  C17 UNL     1      24.223   0.569  52.647  1.00  0.00     0.163 C 
HETATM   13  H12 UNL     1      27.130   3.418  53.215  1.00  0.00     0.165 HD
ENDROOT
BRANCH   1  14
HETATM   14  C8  UNL     1      22.551   1.321  50.781  1.00  0.00     0.161 C 
BRANCH  14  15
HETATM   15  C7  UNL     1      21.175   0.896  51.033  1.00  0.00    -0.034 A 
HETATM   16  C2  UNL     1      20.098   1.050  50.184  1.00  0.00    -0.054 A 
HETATM   17  C1  UNL     1      20.364   1.712  48.880  1.00  0.00     0.049 C 
HETATM   18  C3  UNL     1      18.822   0.622  50.495  1.00  0.00     0.007 A 
HETATM   19  C4  UNL     1      18.551   0.004  51.701  1.00  0.00     0.001 A 
HETATM   20  C5  UNL     1      19.595  -0.178  52.594  1.00  0.00     0.001 A 
HETATM   21  C6  UNL     1      20.852   0.266  52.240  1.00  0.00     0.009 A 
ENDBRANCH  14  15
ENDBRANCH   1  14
TORSDOF 2
ENDMDL
MODEL 8
REMARK VINA RESULT:      -7.6      4.628      7.621
REMARK  2 active torsions:
REMARK  status: ('A' for Active; 'I' for Inactive)
REMARK    1  A    between atoms: C7_7  and  C8_8 
REMARK    2  A    between atoms: C8_8  and  N1_9 
ROOT
HETATM    1  N1  UNL     1      25.034   3.068  51.263  1.00  0.00    -0.382 N 
HETATM    2  C9  UNL     1      26.269   2.535  50.810  1.00  0.00     0.087 C 
HETATM    3  C10 UNL     1      26.740   3.355  49.895  1.00  0.00     0.027 C 
HETATM    4  C11 UNL     1      25.827   4.502  49.686  1.00  0.00    -0.015 C 
HETATM    5  C12 UNL     1      26.245   5.658  49.226  1.00  0.00     0.032 C 
HETATM    6  N2  UNL     1      27.647   5.812  48.915  1.00  0.00    -0.368 N 
HETATM    7  C13 UNL     1      28.197   6.778  48.033  1.00  0.00     0.084 C 
HETATM    8  C14 UNL     1      27.372   7.616  47.433  1.00  0.00    -0.008 C 
HETATM    9  C15 UNL     1      25.921   7.559  47.666  1.00  0.00     0.050 C 
HETATM   10  C16 UNL     1      25.510   6.908  48.955  1.00  0.00     0.111 C 
HETATM   11 BR1  UNL     1      23.581   6.614  48.919  1.00  0.00    -0.084 Br
HETATM   12  C17 UNL     1      24.555   3.887  50.132  1.00  0.00     0.163 C 
HETATM   13  H12 UNL     1      28.374   5.188  49.343  1.00  0.00     0.165 HD
ENDROOT
BRANCH   1  14
HETATM   14  C8  UNL     1      24.412   2.854  52.531  1.00  0.00     0.161 C 
BRANCH  14  15
HETATM   15  C7  UNL     1      23.711   1.583  52.704  1.00  0.00    -0.034 A 
HETATM   16  C2  UNL     1      24.202   0.450  53.319  1.00  0.00    -0.054 A 
HETATM   17  C1  UNL     1      25.584   0.529  53.860  1.00  0.00     0.049 C 
HETATM   18  C3  UNL     1      23.476  -0.719  53.444  1.00  0.00     0.007 A 
HETATM   19  C4  UNL     1      22.189  -0.815  52.948  1.00  0.00     0.001 A 
HETATM   20  C5  UNL     1      21.643   0.294  52.321  1.00  0.00     0.001 A 
HETATM   21  C6  UNL     1      22.406   1.438  52.220  1.00  0.00     0.009 A 
ENDBRANCH  14  15
ENDBRANCH   1  14
TORSDOF 2
ENDMDL
MODEL 9
REMARK VINA RESULT:      -7.4      3.727      4.732
REMARK  2 active torsions:
REMARK  status: ('A' for Active; 'I' for Inactive)
REMARK    1  A    between atoms: C7_7  and  C8_8 
REMARK    2  A    between atoms: C8_8  and  N1_9 
ROOT
HETATM    1  N1  UNL     1      23.328   1.848  51.466  1.00  0.00    -0.382 N 
HETATM    2  C9  UNL     1      22.662   1.809  50.213  1.00  0.00     0.087 C 
HETATM    3  C10 UNL     1      21.593   1.055  50.358  1.00  0.00     0.027 C 
HETATM    4  C11 UNL     1      21.487   0.543  51.743  1.00  0.00    -0.015 C 
HETATM    5  C12 UNL     1      20.338   0.195  52.277  1.00  0.00     0.032 C 
HETATM    6  N2  UNL     1      19.140   0.320  51.481  1.00  0.00    -0.368 N 
HETATM    7  C13 UNL     1      17.927  -0.382  51.697  1.00  0.00     0.084 C 
HETATM    8  C14 UNL     1      17.869  -1.230  52.707  1.00  0.00    -0.008 C 
HETATM    9  C15 UNL     1      19.025  -1.448  53.590  1.00  0.00     0.050 C 
HETATM   10  C16 UNL     1      20.021  -0.326  53.620  1.00  0.00     0.111 C 
HETATM   11 BR1  UNL     1      21.624  -0.938  54.551  1.00  0.00    -0.084 Br
HETATM   12  C17 UNL     1      22.914   0.600  52.136  1.00  0.00     0.163 C 
HETATM   13  H12 UNL     1      19.097   0.969  50.657  1.00  0.00     0.165 HD
ENDROOT
BRANCH   1  14
HETATM   14  C8  UNL     1      24.195   2.873  51.954  1.00  0.00     0.161 C 
BRANCH  14  15
HETATM   15  C7  UNL     1      24.925   3.641  50.946  1.00  0.00    -0.034 A 
HETATM   16  C2  UNL     1      24.647   4.927  50.531  1.00  0.00    -0.054 A 
HETATM   17  C1  UNL     1      23.488   5.601  51.174  1.00  0.00     0.049 C 
HETATM   18  C3  UNL     1      25.384   5.588  49.569  1.00  0.00     0.007 A 
HETATM   19  C4  UNL     1      26.466   4.981  48.957  1.00  0.00     0.001 A 
HETATM   20  C5  UNL     1      26.793   3.688  49.336  1.00  0.00     0.001 A 
HETATM   21  C6  UNL     1      26.026   3.068  50.300  1.00  0.00     0.009 A 
ENDBRANCH  14  15
ENDBRANCH   1  14
TORSDOF 2
ENDMDL
