MODEL 1
REMARK VINA RESULT:      -8.0      0.000      0.000
REMARK  3 active torsions:
REMARK  status: ('A' for Active; 'I' for Inactive)
REMARK    1  A    between atoms: C2_2  and  N1_3 
REMARK    2  A    between atoms: N1_3  and  C3_4 
REMARK    3  A    between atoms: C8_10  and  N3_11 
ROOT
HETATM    1  C3  UNL     1      23.937   0.114  53.018  1.00  0.00     0.056 A 
HETATM    2  C4  UNL     1      24.800  -0.395  53.963  1.00  0.00     0.146 A 
HETATM    3  N2  UNL     1      26.064   0.046  54.068  1.00  0.00    -0.270 NA
HETATM    4  C5  UNL     1      26.500   1.003  53.236  1.00  0.00     0.125 A 
HETATM    5  C6  UNL     1      25.671   1.515  52.304  1.00  0.00    -0.014 A 
HETATM    6  C7  UNL     1      24.323   1.097  52.135  1.00  0.00     0.033 A 
HETATM    7  C8  UNL     1      23.313   1.598  51.150  1.00  0.00     0.379 C 
HETATM    8  N4  UNL     1      23.673   2.641  50.314  1.00  0.00    -0.261 NA
HETATM    9  C11 UNL     1      23.630   2.946  49.081  1.00  0.00     0.127 C 
HETATM   10  C12 UNL     1      24.277   4.260  49.315  1.00  0.00     0.009 A 
HETATM   11  C13 UNL     1      23.316   5.228  49.084  1.00  0.00     0.017 A 
HETATM   12  C14 UNL     1      23.537   6.603  49.201  1.00  0.00     0.025 A 
HETATM   13  C15 UNL     1      24.790   7.036  49.571  1.00  0.00     0.036 A 
HETATM   14 CL1  UNL     1      25.101   8.748  49.727  1.00  0.00    -0.084 Cl
HETATM   15  C16 UNL     1      25.719   6.026  49.791  1.00  0.00     0.055 A 
HETATM   16  C17 UNL     1      25.521   4.658  49.680  1.00  0.00     0.056 A 
HETATM   17  N5  UNL     1      26.730   4.003  49.997  1.00  0.00    -0.320 N 
HETATM   18  N6  UNL     1      27.196   3.224  51.125  1.00  0.00    -0.236 NA
HETATM   19  C18 UNL     1      26.028   2.520  51.363  1.00  0.00     0.151 C 
HETATM   20  H20 UNL     1      27.402   4.159  49.191  1.00  0.00     0.181 HD
HETATM   21  H21 UNL     1      27.931   2.615  50.761  1.00  0.00     0.146 HD
ENDROOT
BRANCH   1  22
HETATM   22  N1  UNL     1      22.614  -0.456  53.003  1.00  0.00    -0.389 N 
HETATM   23  H6  UNL     1      22.044  -0.614  52.143  1.00  0.00     0.159 HD
BRANCH  22  24
HETATM   24  C2  UNL     1      21.950  -0.875  54.221  1.00  0.00     0.115 C 
HETATM   25  C1  UNL     1      20.893   0.098  54.691  1.00  0.00     0.026 C 
ENDBRANCH  22  24
ENDBRANCH   1  22
BRANCH   7  26
HETATM   26  N3  UNL     1      22.214   2.106  52.001  1.00  0.00     0.109 N 
HETATM   27  C9  UNL     1      20.953   2.092  51.321  1.00  0.00     0.312 C 
HETATM   28  C10 UNL     1      22.505   3.473  52.410  1.00  0.00     0.312 C 
ENDBRANCH   7  26
TORSDOF 3
ENDMDL
MODEL 2
REMARK VINA RESULT:      -7.5      2.957      5.988
REMARK  3 active torsions:
REMARK  status: ('A' for Active; 'I' for Inactive)
REMARK    1  A    between atoms: C2_2  and  N1_3 
REMARK    2  A    between atoms: N1_3  and  C3_4 
REMARK    3  A    between atoms: C8_10  and  N3_11 
ROOT
HETATM    1  C3  UNL     1      25.736   2.390  51.599  1.00  0.00     0.056 A 
HETATM    2  C4  UNL     1      26.770   1.506  51.821  1.00  0.00     0.146 A 
HETATM    3  N2  UNL     1      26.571   0.339  52.453  1.00  0.00    -0.270 NA
HETATM    4  C5  UNL     1      25.340   0.021  52.880  1.00  0.00     0.125 A 
HETATM    5  C6  UNL     1      24.315   0.872  52.674  1.00  0.00    -0.014 A 
HETATM    6  C7  UNL     1      24.451   2.122  52.013  1.00  0.00     0.033 A 
HETATM    7  C8  UNL     1      23.389   3.136  51.718  1.00  0.00     0.379 C 
HETATM    8  N4  UNL     1      22.082   2.837  52.062  1.00  0.00    -0.261 NA
HETATM    9  C11 UNL     1      21.097   3.371  52.662  1.00  0.00     0.127 C 
HETATM   10  C12 UNL     1      20.235   2.183  52.446  1.00  0.00     0.009 A 
HETATM   11  C13 UNL     1      19.257   2.555  51.541  1.00  0.00     0.017 A 
HETATM   12  C14 UNL     1      18.247   1.708  51.079  1.00  0.00     0.025 A 
HETATM   13  C15 UNL     1      18.211   0.414  51.547  1.00  0.00     0.036 A 
HETATM   14 CL1  UNL     1      16.962  -0.673  50.989  1.00  0.00    -0.084 Cl
HETATM   15  C16 UNL     1      19.215   0.089  52.452  1.00  0.00     0.055 A 
HETATM   16  C17 UNL     1      20.225   0.913  52.923  1.00  0.00     0.056 A 
HETATM   17  N5  UNL     1      21.024   0.176  53.823  1.00  0.00    -0.320 N 
HETATM   18  N6  UNL     1      22.354  -0.393  53.765  1.00  0.00    -0.236 NA
HETATM   19  C18 UNL     1      22.975   0.646  53.094  1.00  0.00     0.151 C 
HETATM   20  H20 UNL     1      20.464   0.040  54.714  1.00  0.00     0.181 HD
HETATM   21  H21 UNL     1      22.674  -0.456  54.734  1.00  0.00     0.146 HD
ENDROOT
BRANCH   1  22
HETATM   22  N1  UNL     1      26.087   3.612  50.922  1.00  0.00    -0.389 N 
HETATM   23  H6  UNL     1      25.857   4.570  51.267  1.00  0.00     0.159 HD
BRANCH  22  24
HETATM   24  C2  UNL     1      26.817   3.607  49.670  1.00  0.00     0.115 C 
HETATM   25  C1  UNL     1      26.791   4.939  48.957  1.00  0.00     0.026 C 
ENDBRANCH  22  24
ENDBRANCH   1  22
BRANCH   7  26
HETATM   26  N3  UNL     1      23.415   3.254  50.243  1.00  0.00     0.109 N 
HETATM   27  C9  UNL     1      22.897   4.510  49.792  1.00  0.00     0.312 C 
HETATM   28  C10 UNL     1      22.621   2.185  49.654  1.00  0.00     0.312 C 
ENDBRANCH   7  26
TORSDOF 3
ENDMDL
MODEL 3
REMARK VINA RESULT:      -7.1      1.393      1.755
REMARK  3 active torsions:
REMARK  status: ('A' for Active; 'I' for Inactive)
REMARK    1  A    between atoms: C2_2  and  N1_3 
REMARK    2  A    between atoms: N1_3  and  C3_4 
REMARK    3  A    between atoms: C8_10  and  N3_11 
ROOT
HETATM    1  C3  UNL     1      24.137   1.557  52.136  1.00  0.00     0.056 A 
HETATM    2  C4  UNL     1      25.098   0.834  52.809  1.00  0.00     0.146 A 
HETATM    3  N2  UNL     1      26.407   1.051  52.608  1.00  0.00    -0.270 NA
HETATM    4  C5  UNL     1      26.794   1.991  51.733  1.00  0.00     0.125 A 
HETATM    5  C6  UNL     1      25.870   2.709  51.064  1.00  0.00    -0.014 A 
HETATM    6  C7  UNL     1      24.469   2.535  51.226  1.00  0.00     0.033 A 
HETATM    7  C8  UNL     1      23.357   3.278  50.551  1.00  0.00     0.379 C 
HETATM    8  N4  UNL     1      23.685   4.315  49.696  1.00  0.00    -0.261 NA
HETATM    9  C11 UNL     1      23.401   4.727  48.528  1.00  0.00     0.127 C 
HETATM   10  C12 UNL     1      24.311   5.892  48.644  1.00  0.00     0.009 A 
HETATM   11  C13 UNL     1      23.515   7.021  48.706  1.00  0.00     0.017 A 
HETATM   12  C14 UNL     1      24.002   8.325  48.820  1.00  0.00     0.025 A 
HETATM   13  C15 UNL     1      25.364   8.514  48.876  1.00  0.00     0.036 A 
HETATM   14 CL1  UNL     1      26.008  10.131  49.020  1.00  0.00    -0.084 Cl
HETATM   15  C16 UNL     1      26.121   7.349  48.811  1.00  0.00     0.055 A 
HETATM   16  C17 UNL     1      25.658   6.047  48.698  1.00  0.00     0.056 A 
HETATM   17  N5  UNL     1      26.768   5.177  48.669  1.00  0.00    -0.320 N 
HETATM   18  N6  UNL     1      27.346   4.239  49.609  1.00  0.00    -0.236 NA
HETATM   19  C18 UNL     1      26.163   3.719  50.106  1.00  0.00     0.151 C 
HETATM   20  H20 UNL     1      27.242   5.289  47.726  1.00  0.00     0.181 HD
HETATM   21  H21 UNL     1      27.848   3.551  49.045  1.00  0.00     0.146 HD
ENDROOT
BRANCH   1  22
HETATM   22  N1  UNL     1      22.770   1.216  52.434  1.00  0.00    -0.389 N 
HETATM   23  H6  UNL     1      21.943   1.799  52.179  1.00  0.00     0.159 HD
BRANCH  22  24
HETATM   24  C2  UNL     1      22.422  -0.008  53.130  1.00  0.00     0.115 C 
HETATM   25  C1  UNL     1      21.160   0.109  53.951  1.00  0.00     0.026 C 
ENDBRANCH  22  24
ENDBRANCH   1  22
BRANCH   7  26
HETATM   26  N3  UNL     1      22.608   3.885  51.674  1.00  0.00     0.109 N 
HETATM   27  C9  UNL     1      21.276   4.252  51.299  1.00  0.00     0.312 C 
HETATM   28  C10 UNL     1      23.305   5.077  52.138  1.00  0.00     0.312 C 
ENDBRANCH   7  26
TORSDOF 3
ENDMDL
MODEL 4
REMARK VINA RESULT:      -6.9      2.735      5.107
REMARK  3 active torsions:
REMARK  status: ('A' for Active; 'I' for Inactive)
REMARK    1  A    between atoms: C2_2  and  N1_3 
REMARK    2  A    between atoms: N1_3  and  C3_4 
REMARK    3  A    between atoms: C8_10  and  N3_11 
ROOT
HETATM    1  C3  UNL     1      25.178   1.599  53.127  1.00  0.00     0.056 A 
HETATM    2  C4  UNL     1      25.470   0.342  53.608  1.00  0.00     0.146 A 
HETATM    3  N2  UNL     1      24.510  -0.577  53.797  1.00  0.00    -0.270 NA
HETATM    4  C5  UNL     1      23.236  -0.269  53.513  1.00  0.00     0.125 A 
HETATM    5  C6  UNL     1      22.929   0.957  53.041  1.00  0.00    -0.014 A 
HETATM    6  C7  UNL     1      23.891   1.978  52.816  1.00  0.00     0.033 A 
HETATM    7  C8  UNL     1      23.670   3.361  52.288  1.00  0.00     0.379 C 
HETATM    8  N4  UNL     1      22.391   3.719  51.899  1.00  0.00    -0.261 NA
HETATM    9  C11 UNL     1      21.564   4.670  52.066  1.00  0.00     0.127 C 
HETATM   10  C12 UNL     1      20.540   4.018  51.214  1.00  0.00     0.009 A 
HETATM   11  C13 UNL     1      20.431   4.777  50.062  1.00  0.00     0.017 A 
HETATM   12  C14 UNL     1      19.565   4.488  49.005  1.00  0.00     0.025 A 
HETATM   13  C15 UNL     1      18.761   3.375  49.103  1.00  0.00     0.036 A 
HETATM   14 CL1  UNL     1      17.665   2.983  47.799  1.00  0.00    -0.084 Cl
HETATM   15  C16 UNL     1      18.906   2.646  50.277  1.00  0.00     0.055 A 
HETATM   16  C17 UNL     1      19.759   2.915  51.337  1.00  0.00     0.056 A 
HETATM   17  N5  UNL     1      19.583   1.917  52.319  1.00  0.00    -0.320 N 
HETATM   18  N6  UNL     1      20.372   0.790  52.771  1.00  0.00    -0.236 NA
HETATM   19  C18 UNL     1      21.615   1.397  52.719  1.00  0.00     0.151 C 
HETATM   20  H20 UNL     1      18.646   2.086  52.787  1.00  0.00     0.181 HD
HETATM   21  H21 UNL     1      20.083   0.614  53.735  1.00  0.00     0.146 HD
ENDROOT
BRANCH   1  22
HETATM   22  N1  UNL     1      26.298   2.494  52.983  1.00  0.00    -0.389 N 
HETATM   23  H6  UNL     1      26.248   3.531  53.088  1.00  0.00     0.159 HD
BRANCH  22  24
HETATM   24  C2  UNL     1      27.629   2.007  52.676  1.00  0.00     0.115 C 
HETATM   25  C1  UNL     1      28.676   2.471  53.661  1.00  0.00     0.026 C 
ENDBRANCH  22  24
ENDBRANCH   1  22
BRANCH   7  26
HETATM   26  N3  UNL     1      24.505   3.408  51.066  1.00  0.00     0.109 N 
HETATM   27  C9  UNL     1      24.827   4.750  50.683  1.00  0.00     0.312 C 
HETATM   28  C10 UNL     1      23.796   2.769  49.966  1.00  0.00     0.312 C 
ENDBRANCH   7  26
TORSDOF 3
ENDMDL
MODEL 5
REMARK VINA RESULT:      -6.7      7.793     10.923
REMARK  3 active torsions:
REMARK  status: ('A' for Active; 'I' for Inactive)
REMARK    1  A    between atoms: C2_2  and  N1_3 
REMARK    2  A    between atoms: N1_3  and  C3_4 
REMARK    3  A    between atoms: C8_10  and  N3_11 
ROOT
HETATM    1  C3  UNL     1      30.044   9.872  49.146  1.00  0.00     0.056 A 
HETATM    2  C4  UNL     1      30.020  11.244  49.021  1.00  0.00     0.146 A 
HETATM    3  N2  UNL     1      30.938  11.898  48.291  1.00  0.00    -0.270 NA
HETATM    4  C5  UNL     1      31.902  11.204  47.668  1.00  0.00     0.125 A 
HETATM    5  C6  UNL     1      31.944   9.861  47.778  1.00  0.00    -0.014 A 
HETATM    6  C7  UNL     1      31.007   9.103  48.531  1.00  0.00     0.033 A 
HETATM    7  C8  UNL     1      30.948   7.618  48.714  1.00  0.00     0.379 C 
HETATM    8  N4  UNL     1      31.866   6.836  48.034  1.00  0.00    -0.261 NA
HETATM    9  C11 UNL     1      32.674   5.882  48.261  1.00  0.00     0.127 C 
HETATM   10  C12 UNL     1      33.129   5.842  46.850  1.00  0.00     0.009 A 
HETATM   11  C13 UNL     1      32.655   4.662  46.307  1.00  0.00     0.017 A 
HETATM   12  C14 UNL     1      32.874   4.256  44.988  1.00  0.00     0.025 A 
HETATM   13  C15 UNL     1      33.609   5.076  44.163  1.00  0.00     0.036 A 
HETATM   14 CL1  UNL     1      33.902   4.600  42.508  1.00  0.00    -0.084 Cl
HETATM   15  C16 UNL     1      34.063   6.249  44.755  1.00  0.00     0.055 A 
HETATM   16  C17 UNL     1      33.857   6.671  46.060  1.00  0.00     0.056 A 
HETATM   17  N5  UNL     1      34.490   7.920  46.233  1.00  0.00    -0.320 N 
HETATM   18  N6  UNL     1      34.021   9.284  46.369  1.00  0.00    -0.236 NA
HETATM   19  C18 UNL     1      32.925   9.027  47.173  1.00  0.00     0.151 C 
HETATM   20  H20 UNL     1      35.537   7.751  46.256  1.00  0.00     0.181 HD
HETATM   21  H21 UNL     1      34.753   9.781  46.881  1.00  0.00     0.146 HD
ENDROOT
BRANCH   1  22
HETATM   22  N1  UNL     1      29.011   9.296  49.968  1.00  0.00    -0.389 N 
HETATM   23  H6  UNL     1      29.176   8.613  50.740  1.00  0.00     0.159 HD
BRANCH  22  24
HETATM   24  C2  UNL     1      27.614   9.637  49.786  1.00  0.00     0.115 C 
HETATM   25  C1  UNL     1      26.678   8.479  50.045  1.00  0.00     0.026 C 
ENDBRANCH  22  24
ENDBRANCH   1  22
BRANCH   7  26
HETATM   26  N3  UNL     1      29.615   7.252  48.183  1.00  0.00     0.109 N 
HETATM   27  C9  UNL     1      29.273   5.893  48.475  1.00  0.00     0.312 C 
HETATM   28  C10 UNL     1      29.597   7.437  46.739  1.00  0.00     0.312 C 
ENDBRANCH   7  26
TORSDOF 3
ENDMDL
MODEL 6
REMARK VINA RESULT:      -6.7      3.051      6.356
REMARK  3 active torsions:
REMARK  status: ('A' for Active; 'I' for Inactive)
REMARK    1  A    between atoms: C2_2  and  N1_3 
REMARK    2  A    between atoms: N1_3  and  C3_4 
REMARK    3  A    between atoms: C8_10  and  N3_11 
ROOT
HETATM    1  C3  UNL     1      25.882   5.754  49.197  1.00  0.00     0.056 A 
HETATM    2  C4  UNL     1      27.062   5.257  48.689  1.00  0.00     0.146 A 
HETATM    3  N2  UNL     1      27.470   4.007  48.961  1.00  0.00    -0.270 NA
HETATM    4  C5  UNL     1      26.717   3.222  49.745  1.00  0.00     0.125 A 
HETATM    5  C6  UNL     1      25.559   3.690  50.253  1.00  0.00    -0.014 A 
HETATM    6  C7  UNL     1      25.063   4.999  50.007  1.00  0.00     0.033 A 
HETATM    7  C8  UNL     1      23.794   5.620  50.503  1.00  0.00     0.379 C 
HETATM    8  N4  UNL     1      22.931   4.839  51.252  1.00  0.00    -0.261 NA
HETATM    9  C11 UNL     1      22.274   4.900  52.338  1.00  0.00     0.127 C 
HETATM   10  C12 UNL     1      21.714   3.539  52.154  1.00  0.00     0.009 A 
HETATM   11  C13 UNL     1      20.363   3.690  51.899  1.00  0.00     0.017 A 
HETATM   12  C14 UNL     1      19.480   2.633  51.668  1.00  0.00     0.025 A 
HETATM   13  C15 UNL     1      19.975   1.349  51.693  1.00  0.00     0.036 A 
HETATM   14 CL1  UNL     1      18.899   0.002  51.408  1.00  0.00    -0.084 Cl
HETATM   15  C16 UNL     1      21.337   1.249  51.953  1.00  0.00     0.055 A 
HETATM   16  C17 UNL     1      22.230   2.284  52.184  1.00  0.00     0.056 A 
HETATM   17  N5  UNL     1      23.510   1.733  52.400  1.00  0.00    -0.320 N 
HETATM   18  N6  UNL     1      24.732   1.672  51.624  1.00  0.00    -0.236 NA
HETATM   19  C18 UNL     1      24.688   2.954  51.104  1.00  0.00     0.151 C 
HETATM   20  H20 UNL     1      23.507   1.273  53.356  1.00  0.00     0.181 HD
HETATM   21  H21 UNL     1      25.490   1.570  52.302  1.00  0.00     0.146 HD
ENDROOT
BRANCH   1  22
HETATM   22  N1  UNL     1      25.567   7.114  48.839  1.00  0.00    -0.389 N 
HETATM   23  H6  UNL     1      24.615   7.454  48.578  1.00  0.00     0.159 HD
BRANCH  22  24
HETATM   24  C2  UNL     1      26.578   8.151  48.818  1.00  0.00     0.115 C 
HETATM   25  C1  UNL     1      26.792   8.805  50.163  1.00  0.00     0.026 C 
ENDBRANCH  22  24
ENDBRANCH   1  22
BRANCH   7  26
HETATM   26  N3  UNL     1      23.067   5.972  49.263  1.00  0.00     0.109 N 
HETATM   27  C9  UNL     1      22.083   6.988  49.484  1.00  0.00     0.312 C 
HETATM   28  C10 UNL     1      22.404   4.789  48.733  1.00  0.00     0.312 C 
ENDBRANCH   7  26
TORSDOF 3
ENDMDL
MODEL 7
REMARK VINA RESULT:      -6.7      2.366      4.528
REMARK  3 active torsions:
REMARK  status: ('A' for Active; 'I' for Inactive)
REMARK    1  A    between atoms: C2_2  and  N1_3 
REMARK    2  A    between atoms: N1_3  and  C3_4 
REMARK    3  A    between atoms: C8_10  and  N3_11 
ROOT
HETATM    1  C3  UNL     1      23.570   0.342  53.416  1.00  0.00     0.056 A 
HETATM    2  C4  UNL     1      23.018  -0.866  53.783  1.00  0.00     0.146 A 
HETATM    3  N2  UNL     1      21.695  -1.083  53.709  1.00  0.00    -0.270 NA
HETATM    4  C5  UNL     1      20.889  -0.105  53.270  1.00  0.00     0.125 A 
HETATM    5  C6  UNL     1      21.409   1.085  52.907  1.00  0.00    -0.014 A 
HETATM    6  C7  UNL     1      22.797   1.386  52.958  1.00  0.00     0.033 A 
HETATM    7  C8  UNL     1      23.486   2.658  52.572  1.00  0.00     0.379 C 
HETATM    8  N4  UNL     1      22.722   3.681  52.036  1.00  0.00    -0.261 NA
HETATM    9  C11 UNL     1      22.545   4.930  52.185  1.00  0.00     0.127 C 
HETATM   10  C12 UNL     1      21.522   4.982  51.113  1.00  0.00     0.009 A 
HETATM   11  C13 UNL     1      22.078   5.682  50.058  1.00  0.00     0.017 A 
HETATM   12  C14 UNL     1      21.424   5.946  48.852  1.00  0.00     0.025 A 
HETATM   13  C15 UNL     1      20.138   5.482  48.690  1.00  0.00     0.036 A 
HETATM   14 CL1  UNL     1      19.289   5.793  47.195  1.00  0.00    -0.084 Cl
HETATM   15  C16 UNL     1      19.623   4.785  49.777  1.00  0.00     0.055 A 
HETATM   16  C17 UNL     1      20.256   4.512  50.981  1.00  0.00     0.056 A 
HETATM   17  N5  UNL     1      19.370   3.777  51.797  1.00  0.00    -0.320 N 
HETATM   18  N6  UNL     1      19.299   2.396  52.227  1.00  0.00    -0.236 NA
HETATM   19  C18 UNL     1      20.651   2.195  52.441  1.00  0.00     0.151 C 
HETATM   20  H20 UNL     1      18.613   4.440  52.131  1.00  0.00     0.181 HD
HETATM   21  H21 UNL     1      18.778   2.403  53.106  1.00  0.00     0.146 HD
ENDROOT
BRANCH   1  22
HETATM   22  N1  UNL     1      25.000   0.449  53.556  1.00  0.00    -0.389 N 
HETATM   23  H6  UNL     1      25.520   1.345  53.682  1.00  0.00     0.159 HD
BRANCH  22  24
HETATM   24  C2  UNL     1      25.857  -0.720  53.537  1.00  0.00     0.115 C 
HETATM   25  C1  UNL     1      26.689  -0.831  52.281  1.00  0.00     0.026 C 
ENDBRANCH  22  24
ENDBRANCH   1  22
BRANCH   7  26
HETATM   26  N3  UNL     1      24.426   2.239  51.508  1.00  0.00     0.109 N 
HETATM   27  C9  UNL     1      25.567   3.100  51.426  1.00  0.00     0.312 C 
HETATM   28  C10 UNL     1      23.744   2.248  50.222  1.00  0.00     0.312 C 
ENDBRANCH   7  26
TORSDOF 3
ENDMDL
MODEL 8
REMARK VINA RESULT:      -6.6      7.038     10.021
REMARK  3 active torsions:
REMARK  status: ('A' for Active; 'I' for Inactive)
REMARK    1  A    between atoms: C2_2  and  N1_3 
REMARK    2  A    between atoms: N1_3  and  C3_4 
REMARK    3  A    between atoms: C8_10  and  N3_11 
ROOT
HETATM    1  C3  UNL     1      33.447   6.192  47.152  1.00  0.00     0.056 A 
HETATM    2  C4  UNL     1      33.829   4.913  46.813  1.00  0.00     0.146 A 
HETATM    3  N2  UNL     1      32.972   3.882  46.890  1.00  0.00    -0.270 NA
HETATM    4  C5  UNL     1      31.716   4.097  47.307  1.00  0.00     0.125 A 
HETATM    5  C6  UNL     1      31.322   5.341  47.644  1.00  0.00    -0.014 A 
HETATM    6  C7  UNL     1      32.172   6.479  47.587  1.00  0.00     0.033 A 
HETATM    7  C8  UNL     1      31.844   7.900  47.923  1.00  0.00     0.379 C 
HETATM    8  N4  UNL     1      30.543   8.206  48.285  1.00  0.00    -0.261 NA
HETATM    9  C11 UNL     1      29.919   8.839  49.193  1.00  0.00     0.127 C 
HETATM   10  C12 UNL     1      28.597   8.514  48.605  1.00  0.00     0.009 A 
HETATM   11  C13 UNL     1      28.077   9.695  48.106  1.00  0.00     0.017 A 
HETATM   12  C14 UNL     1      26.838   9.806  47.470  1.00  0.00     0.025 A 
HETATM   13  C15 UNL     1      26.074   8.670  47.322  1.00  0.00     0.036 A 
HETATM   14 CL1  UNL     1      24.520   8.772  46.530  1.00  0.00    -0.084 Cl
HETATM   15  C16 UNL     1      26.639   7.510  47.838  1.00  0.00     0.055 A 
HETATM   16  C17 UNL     1      27.865   7.379  48.472  1.00  0.00     0.056 A 
HETATM   17  N5  UNL     1      28.042   6.026  48.832  1.00  0.00    -0.320 N 
HETATM   18  N6  UNL     1      28.873   4.947  48.340  1.00  0.00    -0.236 NA
HETATM   19  C18 UNL     1      30.023   5.683  48.111  1.00  0.00     0.151 C 
HETATM   20  H20 UNL     1      27.391   5.820  49.643  1.00  0.00     0.181 HD
HETATM   21  H21 UNL     1      28.992   4.304  49.125  1.00  0.00     0.146 HD
ENDROOT
BRANCH   1  22
HETATM   22  N1  UNL     1      34.465   7.204  47.037  1.00  0.00    -0.389 N 
HETATM   23  H6  UNL     1      34.689   7.726  46.161  1.00  0.00     0.159 HD
BRANCH  22  24
HETATM   24  C2  UNL     1      35.283   7.596  48.168  1.00  0.00     0.115 C 
HETATM   25  C1  UNL     1      35.838   6.421  48.940  1.00  0.00     0.026 C 
ENDBRANCH  22  24
ENDBRANCH   1  22
BRANCH   7  26
HETATM   26  N3  UNL     1      32.108   8.629  46.662  1.00  0.00     0.109 N 
HETATM   27  C9  UNL     1      32.346  10.024  46.884  1.00  0.00     0.312 C 
HETATM   28  C10 UNL     1      30.967   8.489  45.769  1.00  0.00     0.312 C 
ENDBRANCH   7  26
TORSDOF 3
ENDMDL
MODEL 9
REMARK VINA RESULT:      -6.6      9.059     11.191
REMARK  3 active torsions:
REMARK  status: ('A' for Active; 'I' for Inactive)
REMARK    1  A    between atoms: C2_2  and  N1_3 
REMARK    2  A    between atoms: N1_3  and  C3_4 
REMARK    3  A    between atoms: C8_10  and  N3_11 
ROOT
HETATM    1  C3  UNL     1      33.937   5.078  45.717  1.00  0.00     0.056 A 
HETATM    2  C4  UNL     1      33.870   3.728  45.984  1.00  0.00     0.146 A 
HETATM    3  N2  UNL     1      33.235   3.259  47.070  1.00  0.00    -0.270 NA
HETATM    4  C5  UNL     1      32.651   4.120  47.916  1.00  0.00     0.125 A 
HETATM    5  C6  UNL     1      32.705   5.445  47.673  1.00  0.00    -0.014 A 
HETATM    6  C7  UNL     1      33.358   6.013  46.545  1.00  0.00     0.033 A 
HETATM    7  C8  UNL     1      33.472   7.457  46.168  1.00  0.00     0.379 C 
HETATM    8  N4  UNL     1      32.825   8.394  46.955  1.00  0.00    -0.261 NA
HETATM    9  C11 UNL     1      33.066   9.501  47.530  1.00  0.00     0.127 C 
HETATM   10  C12 UNL     1      31.690   9.596  48.074  1.00  0.00     0.009 A 
HETATM   11  C13 UNL     1      31.064  10.636  47.411  1.00  0.00     0.017 A 
HETATM   12  C14 UNL     1      29.748  11.043  47.642  1.00  0.00     0.025 A 
HETATM   13  C15 UNL     1      29.012  10.370  48.592  1.00  0.00     0.036 A 
HETATM   14 CL1  UNL     1      27.363  10.852  48.907  1.00  0.00    -0.084 Cl
HETATM   15  C16 UNL     1      29.684   9.334  49.230  1.00  0.00     0.055 A 
HETATM   16  C17 UNL     1      30.988   8.915  49.016  1.00  0.00     0.056 A 
HETATM   17  N5  UNL     1      31.259   7.831  49.876  1.00  0.00    -0.320 N 
HETATM   18  N6  UNL     1      31.420   6.404  49.689  1.00  0.00    -0.236 NA
HETATM   19  C18 UNL     1      32.135   6.448  48.505  1.00  0.00     0.151 C 
HETATM   20  H20 UNL     1      31.347   8.215  50.861  1.00  0.00     0.181 HD
HETATM   21  H21 UNL     1      32.003   6.084  50.466  1.00  0.00     0.146 HD
ENDROOT
BRANCH   1  22
HETATM   22  N1  UNL     1      34.660   5.448  44.527  1.00  0.00    -0.389 N 
HETATM   23  H6  UNL     1      35.313   6.258  44.456  1.00  0.00     0.159 HD
BRANCH  22  24
HETATM   24  C2  UNL     1      34.536   4.695  43.294  1.00  0.00     0.115 C 
HETATM   25  C1  UNL     1      33.228   4.933  42.576  1.00  0.00     0.026 C 
ENDBRANCH  22  24
ENDBRANCH   1  22
BRANCH   7  26
HETATM   26  N3  UNL     1      32.835   7.523  44.833  1.00  0.00     0.109 N 
HETATM   27  C9  UNL     1      33.305   8.636  44.065  1.00  0.00     0.312 C 
HETATM   28  C10 UNL     1      31.392   7.640  44.987  1.00  0.00     0.312 C 
ENDBRANCH   7  26
TORSDOF 3
ENDMDL
