MODEL 1
REMARK VINA RESULT:      -7.1      0.000      0.000
REMARK  7 active torsions:
REMARK  status: ('A' for Active; 'I' for Inactive)
REMARK    1  A    between atoms: C2_2  and  C3_3 
REMARK    2  A    between atoms: C5_7  and  C6_8 
REMARK    3  A    between atoms: C9_11  and  C10_12 
REMARK    4  A    between atoms: C10_12  and  C11_13 
REMARK    5  A    between atoms: C11_13  and  C12_14 
REMARK    6  A    between atoms: C12_14  and  C13_15 
REMARK    7  A    between atoms: C16_19  and  C17_20 
ROOT
HETATM    1  C6  UNL     1      24.593   0.416  53.099  1.00  0.00    -0.007 A 
HETATM    2  C7  UNL     1      25.471   0.429  52.007  1.00  0.00     0.014 A 
HETATM    3  C8  UNL     1      26.772  -0.028  52.034  1.00  0.00     0.008 A 
HETATM    4  C9  UNL     1      27.255  -0.538  53.220  1.00  0.00    -0.055 A 
HETATM    5  C14 UNL     1      26.429  -0.570  54.322  1.00  0.00     0.008 A 
HETATM    6  C15 UNL     1      25.137  -0.103  54.252  1.00  0.00     0.014 A 
ENDROOT
BRANCH   1   7
HETATM    7  C5  UNL     1      23.269   0.958  52.832  1.00  0.00     0.076 A 
HETATM    8  N2  UNL     1      23.281   2.286  52.512  1.00  0.00    -0.241 NA
HETATM    9  C4  UNL     1      22.147   2.966  52.219  1.00  0.00     0.234 A 
HETATM   10  N1  UNL     1      20.969   2.310  52.246  1.00  0.00    -0.246 NA
HETATM   11  C3  UNL     1      20.926   0.982  52.562  1.00  0.00     0.044 A 
HETATM   12  C16 UNL     1      22.071   0.277  52.862  1.00  0.00    -0.004 A 
BRANCH  11  13
HETATM   13  C2  UNL     1      19.599   0.315  52.565  1.00  0.00     0.055 C 
HETATM   14  C1  UNL     1      18.931   0.289  51.226  1.00  0.00     0.011 C 
ENDBRANCH  11  13
BRANCH  12  15
HETATM   15  C17 UNL     1      22.067  -1.153  53.201  1.00  0.00     0.039 C 
HETATM   16  C18 UNL     1      21.774  -1.369  54.686  1.00  0.00     0.010 C 
ENDBRANCH  12  15
ENDBRANCH   1   7
BRANCH   4  17
HETATM   17  C10 UNL     1      28.637  -1.068  53.411  1.00  0.00     0.065 C 
BRANCH  17  18
HETATM   18  C11 UNL     1      29.616   0.042  53.543  1.00  0.00    -0.024 C 
BRANCH  18  19
HETATM   19  C12 UNL     1      29.328   1.160  54.171  1.00  0.00     0.000 C 
BRANCH  19  20
HETATM   20  C13 UNL     1      28.898   2.501  53.737  1.00  0.00     0.249 C 
HETATM   21  F1  UNL     1      27.519   2.649  53.934  1.00  0.00    -0.251 F 
ENDBRANCH  19  20
ENDBRANCH  18  19
ENDBRANCH  17  18
ENDBRANCH   4  17
TORSDOF 7
ENDMDL
MODEL 2
REMARK VINA RESULT:      -7.0      1.760      2.171
REMARK  7 active torsions:
REMARK  status: ('A' for Active; 'I' for Inactive)
REMARK    1  A    between atoms: C2_2  and  C3_3 
REMARK    2  A    between atoms: C5_7  and  C6_8 
REMARK    3  A    between atoms: C9_11  and  C10_12 
REMARK    4  A    between atoms: C10_12  and  C11_13 
REMARK    5  A    between atoms: C11_13  and  C12_14 
REMARK    6  A    between atoms: C12_14  and  C13_15 
REMARK    7  A    between atoms: C16_19  and  C17_20 
ROOT
HETATM    1  C6  UNL     1      24.089   0.756  52.937  1.00  0.00    -0.007 A 
HETATM    2  C7  UNL     1      24.634  -0.504  53.214  1.00  0.00     0.014 A 
HETATM    3  C8  UNL     1      25.851  -0.721  53.826  1.00  0.00     0.008 A 
HETATM    4  C9  UNL     1      26.594   0.379  54.197  1.00  0.00    -0.055 A 
HETATM    5  C14 UNL     1      26.099   1.639  53.945  1.00  0.00     0.008 A 
HETATM    6  C15 UNL     1      24.880   1.811  53.331  1.00  0.00     0.014 A 
ENDROOT
BRANCH   1   7
HETATM    7  C5  UNL     1      22.791   0.736  52.278  1.00  0.00     0.076 A 
HETATM    8  N2  UNL     1      22.846   1.102  50.963  1.00  0.00    -0.241 NA
HETATM    9  C4  UNL     1      21.742   1.134  50.178  1.00  0.00     0.234 A 
HETATM   10  N1  UNL     1      20.553   0.792  50.714  1.00  0.00    -0.246 NA
HETATM   11  C3  UNL     1      20.467   0.422  52.025  1.00  0.00     0.044 A 
HETATM   12  C16 UNL     1      21.581   0.385  52.836  1.00  0.00    -0.004 A 
BRANCH  11  13
HETATM   13  C2  UNL     1      19.130   0.050  52.552  1.00  0.00     0.055 C 
HETATM   14  C1  UNL     1      18.135  -0.299  51.490  1.00  0.00     0.011 C 
ENDBRANCH  11  13
BRANCH  12  15
HETATM   15  C17 UNL     1      21.531  -0.015  54.249  1.00  0.00     0.039 C 
HETATM   16  C18 UNL     1      21.494  -1.537  54.392  1.00  0.00     0.010 C 
ENDBRANCH  12  15
ENDBRANCH   1   7
BRANCH   4  17
HETATM   17  C10 UNL     1      27.928   0.310  54.865  1.00  0.00     0.065 C 
BRANCH  17  18
HETATM   18  C11 UNL     1      29.022   0.527  53.884  1.00  0.00    -0.024 C 
BRANCH  18  19
HETATM   19  C12 UNL     1      29.702  -0.469  53.360  1.00  0.00     0.000 C 
BRANCH  19  20
HETATM   20  C13 UNL     1      29.640  -1.936  53.489  1.00  0.00     0.249 C 
HETATM   21  F1  UNL     1      28.472  -2.420  52.885  1.00  0.00    -0.251 F 
ENDBRANCH  19  20
ENDBRANCH  18  19
ENDBRANCH  17  18
ENDBRANCH   4  17
TORSDOF 7
ENDMDL
MODEL 3
REMARK VINA RESULT:      -7.0      1.811      2.965
REMARK  7 active torsions:
REMARK  status: ('A' for Active; 'I' for Inactive)
REMARK    1  A    between atoms: C2_2  and  C3_3 
REMARK    2  A    between atoms: C5_7  and  C6_8 
REMARK    3  A    between atoms: C9_11  and  C10_12 
REMARK    4  A    between atoms: C10_12  and  C11_13 
REMARK    5  A    between atoms: C11_13  and  C12_14 
REMARK    6  A    between atoms: C12_14  and  C13_15 
REMARK    7  A    between atoms: C16_19  and  C17_20 
ROOT
HETATM    1  C6  UNL     1      24.887   0.204  53.332  1.00  0.00    -0.007 A 
HETATM    2  C7  UNL     1      25.555   0.123  54.560  1.00  0.00     0.014 A 
HETATM    3  C8  UNL     1      26.912   0.302  54.735  1.00  0.00     0.008 A 
HETATM    4  C9  UNL     1      27.676   0.584  53.624  1.00  0.00    -0.055 A 
HETATM    5  C14 UNL     1      27.063   0.674  52.393  1.00  0.00     0.008 A 
HETATM    6  C15 UNL     1      25.707   0.487  52.262  1.00  0.00     0.014 A 
ENDROOT
BRANCH   1   7
HETATM    7  C5  UNL     1      23.452  -0.029  53.393  1.00  0.00     0.076 A 
HETATM    8  N2  UNL     1      23.099  -1.006  54.281  1.00  0.00    -0.241 NA
HETATM    9  C4  UNL     1      21.808  -1.359  54.488  1.00  0.00     0.234 A 
HETATM   10  N1  UNL     1      20.841  -0.725  53.794  1.00  0.00    -0.246 NA
HETATM   11  C3  UNL     1      21.162   0.256  52.901  1.00  0.00     0.044 A 
HETATM   12  C16 UNL     1      22.472   0.625  52.679  1.00  0.00    -0.004 A 
BRANCH  11  13
HETATM   13  C2  UNL     1      20.051   0.921  52.175  1.00  0.00     0.055 C 
HETATM   14  C1  UNL     1      18.998  -0.022  51.683  1.00  0.00     0.011 C 
ENDBRANCH  11  13
BRANCH  12  15
HETATM   15  C17 UNL     1      22.858   1.680  51.731  1.00  0.00     0.039 C 
HETATM   16  C18 UNL     1      22.924   3.044  52.420  1.00  0.00     0.010 C 
ENDBRANCH  12  15
ENDBRANCH   1   7
BRANCH   4  17
HETATM   17  C10 UNL     1      29.153   0.803  53.648  1.00  0.00     0.065 C 
BRANCH  17  18
HETATM   18  C11 UNL     1      29.877  -0.431  53.247  1.00  0.00    -0.024 C 
BRANCH  18  19
HETATM   19  C12 UNL     1      29.522  -1.623  53.675  1.00  0.00     0.000 C 
BRANCH  19  20
HETATM   20  C13 UNL     1      28.878  -2.790  53.047  1.00  0.00     0.249 C 
HETATM   21  F1  UNL     1      27.520  -2.528  52.828  1.00  0.00    -0.251 F 
ENDBRANCH  19  20
ENDBRANCH  18  19
ENDBRANCH  17  18
ENDBRANCH   4  17
TORSDOF 7
ENDMDL
MODEL 4
REMARK VINA RESULT:      -6.8      1.487      2.078
REMARK  7 active torsions:
REMARK  status: ('A' for Active; 'I' for Inactive)
REMARK    1  A    between atoms: C2_2  and  C3_3 
REMARK    2  A    between atoms: C5_7  and  C6_8 
REMARK    3  A    between atoms: C9_11  and  C10_12 
REMARK    4  A    between atoms: C10_12  and  C11_13 
REMARK    5  A    between atoms: C11_13  and  C12_14 
REMARK    6  A    between atoms: C12_14  and  C13_15 
REMARK    7  A    between atoms: C16_19  and  C17_20 
ROOT
HETATM    1  C6  UNL     1      24.478   1.350  52.492  1.00  0.00    -0.007 A 
HETATM    2  C7  UNL     1      25.599   1.343  51.651  1.00  0.00     0.014 A 
HETATM    3  C8  UNL     1      26.627   0.425  51.713  1.00  0.00     0.008 A 
HETATM    4  C9  UNL     1      26.557  -0.563  52.671  1.00  0.00    -0.055 A 
HETATM    5  C14 UNL     1      25.473  -0.596  53.522  1.00  0.00     0.008 A 
HETATM    6  C15 UNL     1      24.469   0.339  53.427  1.00  0.00     0.014 A 
ENDROOT
BRANCH   1   7
HETATM    7  C5  UNL     1      23.526   2.421  52.242  1.00  0.00     0.076 A 
HETATM    8  N2  UNL     1      23.892   3.613  52.800  1.00  0.00    -0.241 NA
HETATM    9  C4  UNL     1      23.139   4.732  52.667  1.00  0.00     0.234 A 
HETATM   10  N1  UNL     1      21.993   4.665  51.960  1.00  0.00    -0.246 NA
HETATM   11  C3  UNL     1      21.601   3.488  51.391  1.00  0.00     0.044 A 
HETATM   12  C16 UNL     1      22.356   2.341  51.518  1.00  0.00    -0.004 A 
BRANCH  11  13
HETATM   13  C2  UNL     1      20.333   3.482  50.618  1.00  0.00     0.055 C 
HETATM   14  C1  UNL     1      19.107   3.616  51.466  1.00  0.00     0.011 C 
ENDBRANCH  11  13
BRANCH  12  15
HETATM   15  C17 UNL     1      21.973   1.057  50.914  1.00  0.00     0.039 C 
HETATM   16  C18 UNL     1      21.104   0.236  51.868  1.00  0.00     0.010 C 
ENDBRANCH  12  15
ENDBRANCH   1   7
BRANCH   4  17
HETATM   17  C10 UNL     1      27.587  -1.625  52.867  1.00  0.00     0.065 C 
BRANCH  17  18
HETATM   18  C11 UNL     1      28.858  -1.042  53.371  1.00  0.00    -0.024 C 
BRANCH  18  19
HETATM   19  C12 UNL     1      28.883  -0.105  54.293  1.00  0.00     0.000 C 
BRANCH  19  20
HETATM   20  C13 UNL     1      29.256   1.320  54.299  1.00  0.00     0.249 C 
HETATM   21  F1  UNL     1      28.125   2.113  54.061  1.00  0.00    -0.251 F 
ENDBRANCH  19  20
ENDBRANCH  18  19
ENDBRANCH  17  18
ENDBRANCH   4  17
TORSDOF 7
ENDMDL
MODEL 5
REMARK VINA RESULT:      -6.7      1.271      2.392
REMARK  7 active torsions:
REMARK  status: ('A' for Active; 'I' for Inactive)
REMARK    1  A    between atoms: C2_2  and  C3_3 
REMARK    2  A    between atoms: C5_7  and  C6_8 
REMARK    3  A    between atoms: C9_11  and  C10_12 
REMARK    4  A    between atoms: C10_12  and  C11_13 
REMARK    5  A    between atoms: C11_13  and  C12_14 
REMARK    6  A    between atoms: C12_14  and  C13_15 
REMARK    7  A    between atoms: C16_19  and  C17_20 
ROOT
HETATM    1  C6  UNL     1      24.561   0.160  53.015  1.00  0.00    -0.007 A 
HETATM    2  C7  UNL     1      25.080  -0.309  54.229  1.00  0.00     0.014 A 
HETATM    3  C8  UNL     1      26.382  -0.724  54.423  1.00  0.00     0.008 A 
HETATM    4  C9  UNL     1      27.244  -0.677  53.349  1.00  0.00    -0.055 A 
HETATM    5  C14 UNL     1      26.777  -0.223  52.134  1.00  0.00     0.008 A 
HETATM    6  C15 UNL     1      25.471   0.181  51.983  1.00  0.00     0.014 A 
ENDROOT
BRANCH   1   7
HETATM    7  C5  UNL     1      23.155   0.537  53.050  1.00  0.00     0.076 A 
HETATM    8  N2  UNL     1      22.354  -0.414  53.618  1.00  0.00    -0.241 NA
HETATM    9  C4  UNL     1      21.017  -0.242  53.752  1.00  0.00     0.234 A 
HETATM   10  N1  UNL     1      20.461   0.904  53.310  1.00  0.00    -0.246 NA
HETATM   11  C3  UNL     1      21.236   1.872  52.739  1.00  0.00     0.044 A 
HETATM   12  C16 UNL     1      22.597   1.711  52.595  1.00  0.00    -0.004 A 
BRANCH  11  13
HETATM   13  C2  UNL     1      20.564   3.114  52.280  1.00  0.00     0.055 C 
HETATM   14  C1  UNL     1      19.196   2.890  51.715  1.00  0.00     0.011 C 
ENDBRANCH  11  13
BRANCH  12  15
HETATM   15  C17 UNL     1      23.467   2.732  51.993  1.00  0.00     0.039 C 
HETATM   16  C18 UNL     1      24.088   3.630  53.063  1.00  0.00     0.010 C 
ENDBRANCH  12  15
ENDBRANCH   1   7
BRANCH   4  17
HETATM   17  C10 UNL     1      28.677  -1.092  53.397  1.00  0.00     0.065 C 
BRANCH  17  18
HETATM   18  C11 UNL     1      29.569   0.095  53.461  1.00  0.00    -0.024 C 
BRANCH  18  19
HETATM   19  C12 UNL     1      29.241   1.184  54.120  1.00  0.00     0.000 C 
BRANCH  19  20
HETATM   20  C13 UNL     1      28.756   2.518  53.724  1.00  0.00     0.249 C 
HETATM   21  F1  UNL     1      27.362   2.579  53.855  1.00  0.00    -0.251 F 
ENDBRANCH  19  20
ENDBRANCH  18  19
ENDBRANCH  17  18
ENDBRANCH   4  17
TORSDOF 7
ENDMDL
MODEL 6
REMARK VINA RESULT:      -6.5      3.751      7.795
REMARK  7 active torsions:
REMARK  status: ('A' for Active; 'I' for Inactive)
REMARK    1  A    between atoms: C2_2  and  C3_3 
REMARK    2  A    between atoms: C5_7  and  C6_8 
REMARK    3  A    between atoms: C9_11  and  C10_12 
REMARK    4  A    between atoms: C10_12  and  C11_13 
REMARK    5  A    between atoms: C11_13  and  C12_14 
REMARK    6  A    between atoms: C12_14  and  C13_15 
REMARK    7  A    between atoms: C16_19  and  C17_20 
ROOT
HETATM    1  C6  UNL     1      23.114  -0.002  53.043  1.00  0.00    -0.007 A 
HETATM    2  C7  UNL     1      22.530  -0.692  54.113  1.00  0.00     0.014 A 
HETATM    3  C8  UNL     1      21.182  -0.958  54.240  1.00  0.00     0.008 A 
HETATM    4  C9  UNL     1      20.338  -0.517  53.244  1.00  0.00    -0.055 A 
HETATM    5  C14 UNL     1      20.867   0.166  52.171  1.00  0.00     0.008 A 
HETATM    6  C15 UNL     1      22.217   0.412  52.084  1.00  0.00     0.014 A 
ENDROOT
BRANCH   1   7
HETATM    7  C5  UNL     1      24.557   0.164  53.130  1.00  0.00     0.076 A 
HETATM    8  N2  UNL     1      25.242  -1.018  53.090  1.00  0.00    -0.241 NA
HETATM    9  C4  UNL     1      26.595  -1.069  53.147  1.00  0.00     0.234 A 
HETATM   10  N1  UNL     1      27.285   0.086  53.245  1.00  0.00    -0.246 NA
HETATM   11  C3  UNL     1      26.629   1.282  53.286  1.00  0.00     0.044 A 
HETATM   12  C16 UNL     1      25.253   1.349  53.230  1.00  0.00    -0.004 A 
BRANCH  11  13
HETATM   13  C2  UNL     1      27.447   2.516  53.387  1.00  0.00     0.055 C 
HETATM   14  C1  UNL     1      28.854   2.276  53.836  1.00  0.00     0.011 C 
ENDBRANCH  11  13
BRANCH  12  15
HETATM   15  C17 UNL     1      24.510   2.616  53.265  1.00  0.00     0.039 C 
HETATM   16  C18 UNL     1      24.409   3.236  51.870  1.00  0.00     0.010 C 
ENDBRANCH  12  15
ENDBRANCH   1   7
BRANCH   4  17
HETATM   17  C10 UNL     1      18.860  -0.725  53.237  1.00  0.00     0.065 C 
BRANCH  17  18
HETATM   18  C11 UNL     1      18.508  -2.045  53.821  1.00  0.00    -0.024 C 
BRANCH  18  19
HETATM   19  C12 UNL     1      17.485  -2.751  53.394  1.00  0.00     0.000 C 
BRANCH  19  20
HETATM   20  C13 UNL     1      17.038  -4.140  53.601  1.00  0.00     0.249 C 
HETATM   21  F1  UNL     1      16.114  -4.498  52.611  1.00  0.00    -0.251 F 
ENDBRANCH  19  20
ENDBRANCH  18  19
ENDBRANCH  17  18
ENDBRANCH   4  17
TORSDOF 7
ENDMDL
MODEL 7
REMARK VINA RESULT:      -6.5      4.058      5.341
REMARK  7 active torsions:
REMARK  status: ('A' for Active; 'I' for Inactive)
REMARK    1  A    between atoms: C2_2  and  C3_3 
REMARK    2  A    between atoms: C5_7  and  C6_8 
REMARK    3  A    between atoms: C9_11  and  C10_12 
REMARK    4  A    between atoms: C10_12  and  C11_13 
REMARK    5  A    between atoms: C11_13  and  C12_14 
REMARK    6  A    between atoms: C12_14  and  C13_15 
REMARK    7  A    between atoms: C16_19  and  C17_20 
ROOT
HETATM    1  C6  UNL     1      24.789   2.882  50.531  1.00  0.00    -0.007 A 
HETATM    2  C7  UNL     1      24.316   4.200  50.487  1.00  0.00     0.014 A 
HETATM    3  C8  UNL     1      24.991   5.263  49.922  1.00  0.00     0.008 A 
HETATM    4  C9  UNL     1      26.223   5.020  49.356  1.00  0.00    -0.055 A 
HETATM    5  C14 UNL     1      26.730   3.739  49.376  1.00  0.00     0.008 A 
HETATM    6  C15 UNL     1      26.025   2.708  49.950  1.00  0.00     0.014 A 
ENDROOT
BRANCH   1   7
HETATM    7  C5  UNL     1      23.904   1.930  51.186  1.00  0.00     0.076 A 
HETATM    8  N2  UNL     1      22.722   1.747  50.525  1.00  0.00    -0.241 NA
HETATM    9  C4  UNL     1      21.772   0.891  50.972  1.00  0.00     0.234 A 
HETATM   10  N1  UNL     1      22.002   0.198  52.106  1.00  0.00    -0.246 NA
HETATM   11  C3  UNL     1      23.174   0.359  52.787  1.00  0.00     0.044 A 
HETATM   12  C16 UNL     1      24.149   1.227  52.345  1.00  0.00    -0.004 A 
BRANCH  11  13
HETATM   13  C2  UNL     1      23.370  -0.439  54.024  1.00  0.00     0.055 C 
HETATM   14  C1  UNL     1      22.100  -0.978  54.605  1.00  0.00     0.011 C 
ENDBRANCH  11  13
BRANCH  12  15
HETATM   15  C17 UNL     1      25.426   1.423  53.046  1.00  0.00     0.039 C 
HETATM   16  C18 UNL     1      26.454   0.372  52.626  1.00  0.00     0.010 C 
ENDBRANCH  12  15
ENDBRANCH   1   7
BRANCH   4  17
HETATM   17  C10 UNL     1      27.074   6.062  48.708  1.00  0.00     0.065 C 
BRANCH  17  18
HETATM   18  C11 UNL     1      28.364   5.482  48.253  1.00  0.00    -0.024 C 
BRANCH  18  19
HETATM   19  C12 UNL     1      29.486   6.168  48.268  1.00  0.00     0.000 C 
BRANCH  19  20
HETATM   20  C13 UNL     1      30.912   5.806  48.178  1.00  0.00     0.249 C 
HETATM   21  F1  UNL     1      31.053   4.566  47.542  1.00  0.00    -0.251 F 
ENDBRANCH  19  20
ENDBRANCH  18  19
ENDBRANCH  17  18
ENDBRANCH   4  17
TORSDOF 7
ENDMDL
MODEL 8
REMARK VINA RESULT:      -6.4      2.992      7.316
REMARK  7 active torsions:
REMARK  status: ('A' for Active; 'I' for Inactive)
REMARK    1  A    between atoms: C2_2  and  C3_3 
REMARK    2  A    between atoms: C5_7  and  C6_8 
REMARK    3  A    between atoms: C9_11  and  C10_12 
REMARK    4  A    between atoms: C10_12  and  C11_13 
REMARK    5  A    between atoms: C11_13  and  C12_14 
REMARK    6  A    between atoms: C12_14  and  C13_15 
REMARK    7  A    between atoms: C16_19  and  C17_20 
ROOT
HETATM    1  C6  UNL     1      23.960  -0.321  53.304  1.00  0.00    -0.007 A 
HETATM    2  C7  UNL     1      23.467  -0.899  54.480  1.00  0.00     0.014 A 
HETATM    3  C8  UNL     1      22.143  -1.212  54.711  1.00  0.00     0.008 A 
HETATM    4  C9  UNL     1      21.229  -0.938  53.716  1.00  0.00    -0.055 A 
HETATM    5  C14 UNL     1      21.669  -0.369  52.541  1.00  0.00     0.008 A 
HETATM    6  C15 UNL     1      22.998  -0.072  52.351  1.00  0.00     0.014 A 
ENDROOT
BRANCH   1   7
HETATM    7  C5  UNL     1      25.395  -0.077  53.292  1.00  0.00     0.076 A 
HETATM    8  N2  UNL     1      26.135  -1.205  53.074  1.00  0.00    -0.241 NA
HETATM    9  C4  UNL     1      27.488  -1.178  53.016  1.00  0.00     0.234 A 
HETATM   10  N1  UNL     1      28.123  -0.000  53.179  1.00  0.00    -0.246 NA
HETATM   11  C3  UNL     1      27.411   1.144  53.398  1.00  0.00     0.044 A 
HETATM   12  C16 UNL     1      26.034   1.132  53.460  1.00  0.00    -0.004 A 
BRANCH  11  13
HETATM   13  C2  UNL     1      28.169   2.410  53.561  1.00  0.00     0.055 C 
HETATM   14  C1  UNL     1      29.500   2.238  54.226  1.00  0.00     0.011 C 
ENDBRANCH  11  13
BRANCH  12  15
HETATM   15  C17 UNL     1      25.231   2.342  53.686  1.00  0.00     0.039 C 
HETATM   16  C18 UNL     1      24.810   2.982  52.363  1.00  0.00     0.010 C 
ENDBRANCH  12  15
ENDBRANCH   1   7
BRANCH   4  17
HETATM   17  C10 UNL     1      19.766  -1.215  53.814  1.00  0.00     0.065 C 
BRANCH  17  18
HETATM   18  C11 UNL     1      18.984  -0.199  53.063  1.00  0.00    -0.024 C 
BRANCH  18  19
HETATM   19  C12 UNL     1      18.032  -0.529  52.219  1.00  0.00     0.000 C 
BRANCH  19  20
HETATM   20  C13 UNL     1      17.709  -0.146  50.833  1.00  0.00     0.249 C 
HETATM   21  F1  UNL     1      18.827   0.441  50.226  1.00  0.00    -0.251 F 
ENDBRANCH  19  20
ENDBRANCH  18  19
ENDBRANCH  17  18
ENDBRANCH   4  17
TORSDOF 7
ENDMDL
MODEL 9
REMARK VINA RESULT:      -6.3      2.888      7.463
REMARK  7 active torsions:
REMARK  status: ('A' for Active; 'I' for Inactive)
REMARK    1  A    between atoms: C2_2  and  C3_3 
REMARK    2  A    between atoms: C5_7  and  C6_8 
REMARK    3  A    between atoms: C9_11  and  C10_12 
REMARK    4  A    between atoms: C10_12  and  C11_13 
REMARK    5  A    between atoms: C11_13  and  C12_14 
REMARK    6  A    between atoms: C12_14  and  C13_15 
REMARK    7  A    between atoms: C16_19  and  C17_20 
ROOT
HETATM    1  C6  UNL     1      22.314   0.205  52.908  1.00  0.00    -0.007 A 
HETATM    2  C7  UNL     1      21.345   0.951  53.591  1.00  0.00     0.014 A 
HETATM    3  C8  UNL     1      20.138   1.355  53.058  1.00  0.00     0.008 A 
HETATM    4  C9  UNL     1      19.855   1.003  51.756  1.00  0.00    -0.055 A 
HETATM    5  C14 UNL     1      20.779   0.270  51.044  1.00  0.00     0.008 A 
HETATM    6  C15 UNL     1      21.971  -0.112  51.613  1.00  0.00     0.014 A 
ENDROOT
BRANCH   1   7
HETATM    7  C5  UNL     1      23.513  -0.099  53.675  1.00  0.00     0.076 A 
HETATM    8  N2  UNL     1      23.292  -0.972  54.703  1.00  0.00    -0.241 NA
HETATM    9  C4  UNL     1      24.287  -1.385  55.524  1.00  0.00     0.234 A 
HETATM   10  N1  UNL     1      25.535  -0.919  55.318  1.00  0.00    -0.246 NA
HETATM   11  C3  UNL     1      25.787  -0.046  54.300  1.00  0.00     0.044 A 
HETATM   12  C16 UNL     1      24.785   0.384  53.457  1.00  0.00    -0.004 A 
BRANCH  11  13
HETATM   13  C2  UNL     1      27.184   0.424  54.121  1.00  0.00     0.055 C 
HETATM   14  C1  UNL     1      28.086  -0.585  53.482  1.00  0.00     0.011 C 
ENDBRANCH  11  13
BRANCH  12  15
HETATM   15  C17 UNL     1      25.016   1.317  52.345  1.00  0.00     0.039 C 
HETATM   16  C18 UNL     1      24.702   2.756  52.757  1.00  0.00     0.010 C 
ENDBRANCH  12  15
ENDBRANCH   1   7
BRANCH   4  17
HETATM   17  C10 UNL     1      18.597   1.364  51.038  1.00  0.00     0.065 C 
BRANCH  17  18
HETATM   18  C11 UNL     1      17.428   0.673  51.639  1.00  0.00    -0.024 C 
BRANCH  18  19
HETATM   19  C12 UNL     1      17.435  -0.614  51.907  1.00  0.00     0.000 C 
BRANCH  19  20
HETATM   20  C13 UNL     1      17.492  -1.405  53.149  1.00  0.00     0.249 C 
HETATM   21  F1  UNL     1      18.819  -1.747  53.440  1.00  0.00    -0.251 F 
ENDBRANCH  19  20
ENDBRANCH  18  19
ENDBRANCH  17  18
ENDBRANCH   4  17
TORSDOF 7
ENDMDL
