MODEL 1
REMARK VINA RESULT:      -8.8      0.000      0.000
REMARK  1 active torsions:
REMARK  status: ('A' for Active; 'I' for Inactive)
REMARK    1  A    between atoms: O1_2  and  C2_3 
ROOT
HETATM    1  C2  UNL     1      26.853  -0.015  54.246  1.00  0.00     0.074 C 
HETATM    2  C3  UNL     1      27.336   0.489  53.034  1.00  0.00     0.161 C 
HETATM    3  C4  UNL     1      26.575   1.414  52.082  1.00  0.00     0.165 C 
HETATM    4  N1  UNL     1      25.354   1.438  52.277  1.00  0.00    -0.415 NA
HETATM    5  C5  UNL     1      24.055   1.502  52.435  1.00  0.00     0.295 C 
HETATM    6  N2  UNL     1      23.472   0.966  51.366  1.00  0.00    -0.240 NA
HETATM    7  C6  UNL     1      22.006   1.058  51.529  1.00  0.00     0.125 C 
HETATM    8  C7  UNL     1      21.692   2.554  51.596  1.00  0.00     0.065 C 
HETATM    9  C8  UNL     1      21.294   0.186  52.405  1.00  0.00     0.085 C 
HETATM   10  C9  UNL     1      21.064  -0.390  53.682  1.00  0.00     0.029 C 
HETATM   11  C10 UNL     1      20.830   0.454  54.853  1.00  0.00     0.038 C 
HETATM   12  C11 UNL     1      19.587  -1.033  53.350  1.00  0.00     0.064 C 
HETATM   13  C12 UNL     1      18.824  -0.118  52.449  1.00  0.00    -0.081 C 
HETATM   14  C13 UNL     1      17.584  -0.994  52.710  1.00  0.00     0.043 C 
HETATM   15  C14 UNL     1      18.080   0.680  51.701  1.00  0.00     0.004 C 
HETATM   16  C15 UNL     1      18.793   1.247  50.539  1.00  0.00     0.017 C 
HETATM   17  C16 UNL     1      20.074   1.002  50.309  1.00  0.00     0.085 C 
HETATM   18  N3  UNL     1      21.449   0.648  50.198  1.00  0.00    -0.372 N 
HETATM   19  N4  UNL     1      21.825  -1.594  53.831  1.00  0.00    -0.410 N 
HETATM   20  C17 UNL     1      22.797  -1.799  54.824  1.00  0.00     0.141 C 
HETATM   21  C18 UNL     1      24.005  -0.974  54.680  1.00  0.00     0.186 C 
HETATM   22  O2  UNL     1      25.057  -1.121  55.619  1.00  0.00    -0.387 OA
HETATM   23  C19 UNL     1      25.857  -0.068  55.289  1.00  0.00     0.200 C 
HETATM   24  H23 UNL     1      21.954   0.210  49.415  1.00  0.00     0.161 HD
HETATM   25  H24 UNL     1      21.372  -2.430  53.446  1.00  0.00     0.154 HD
ENDROOT
BRANCH   1  26
HETATM   26  O1  UNL     1      28.162  -0.615  54.129  1.00  0.00    -0.387 OA
HETATM   27  C1  UNL     1      29.276   0.229  54.146  1.00  0.00     0.202 C 
ENDBRANCH   1  26
TORSDOF 1
ENDMDL
MODEL 2
REMARK VINA RESULT:      -8.4      1.816      3.540
REMARK  1 active torsions:
REMARK  status: ('A' for Active; 'I' for Inactive)
REMARK    1  A    between atoms: O1_2  and  C2_3 
ROOT
HETATM    1  C2  UNL     1      27.124   1.780  53.246  1.00  0.00     0.074 C 
HETATM    2  C3  UNL     1      27.194   1.042  54.432  1.00  0.00     0.161 C 
HETATM    3  C4  UNL     1      26.300  -0.143  54.804  1.00  0.00     0.165 C 
HETATM    4  N1  UNL     1      25.264  -0.218  54.134  1.00  0.00    -0.415 NA
HETATM    5  C5  UNL     1      24.151  -0.348  53.457  1.00  0.00     0.295 C 
HETATM    6  N2  UNL     1      23.128  -0.132  54.280  1.00  0.00    -0.240 NA
HETATM    7  C6  UNL     1      21.868  -0.300  53.526  1.00  0.00     0.125 C 
HETATM    8  C7  UNL     1      21.860  -1.757  53.059  1.00  0.00     0.065 C 
HETATM    9  C8  UNL     1      21.400   0.695  52.617  1.00  0.00     0.085 C 
HETATM   10  C9  UNL     1      21.571   1.539  51.489  1.00  0.00     0.029 C 
HETATM   11  C10 UNL     1      21.940   0.983  50.187  1.00  0.00     0.038 C 
HETATM   12  C11 UNL     1      19.992   1.962  51.311  1.00  0.00     0.064 C 
HETATM   13  C12 UNL     1      19.113   0.799  51.639  1.00  0.00    -0.081 C 
HETATM   14  C13 UNL     1      17.933   1.608  51.070  1.00  0.00     0.043 C 
HETATM   15  C14 UNL     1      18.290  -0.212  51.860  1.00  0.00     0.004 C 
HETATM   16  C15 UNL     1      18.600  -0.981  53.083  1.00  0.00     0.017 C 
HETATM   17  C16 UNL     1      19.640  -0.695  53.850  1.00  0.00     0.085 C 
HETATM   18  N3  UNL     1      20.793  -0.267  54.570  1.00  0.00    -0.372 N 
HETATM   19  N4  UNL     1      22.118   2.800  51.887  1.00  0.00    -0.410 N 
HETATM   20  C17 UNL     1      23.341   3.315  51.428  1.00  0.00     0.141 C 
HETATM   21  C18 UNL     1      24.528   2.581  51.889  1.00  0.00     0.186 C 
HETATM   22  O2  UNL     1      25.814   3.032  51.499  1.00  0.00    -0.387 OA
HETATM   23  C19 UNL     1      26.598   1.999  51.921  1.00  0.00     0.200 C 
HETATM   24  H23 UNL     1      20.885   0.011  55.557  1.00  0.00     0.161 HD
HETATM   25  H24 UNL     1      21.419   3.481  52.206  1.00  0.00     0.154 HD
ENDROOT
BRANCH   1  26
HETATM   26  O1  UNL     1      28.172   2.439  53.991  1.00  0.00    -0.387 OA
HETATM   27  C1  UNL     1      29.363   1.741  54.207  1.00  0.00     0.202 C 
ENDBRANCH   1  26
TORSDOF 1
ENDMDL
MODEL 3
REMARK VINA RESULT:      -8.2      4.445      7.120
REMARK  1 active torsions:
REMARK  status: ('A' for Active; 'I' for Inactive)
REMARK    1  A    between atoms: O1_2  and  C2_3 
ROOT
HETATM    1  C2  UNL     1      20.645   7.045  49.896  1.00  0.00     0.074 C 
HETATM    2  C3  UNL     1      21.767   7.838  50.156  1.00  0.00     0.161 C 
HETATM    3  C4  UNL     1      23.206   7.337  50.293  1.00  0.00     0.165 C 
HETATM    4  N1  UNL     1      23.295   6.120  50.493  1.00  0.00    -0.415 NA
HETATM    5  C5  UNL     1      23.452   4.838  50.708  1.00  0.00     0.295 C 
HETATM    6  N2  UNL     1      23.949   4.672  51.931  1.00  0.00    -0.240 NA
HETATM    7  C6  UNL     1      24.150   3.228  52.169  1.00  0.00     0.125 C 
HETATM    8  C7  UNL     1      25.175   2.776  51.127  1.00  0.00     0.065 C 
HETATM    9  C8  UNL     1      23.057   2.355  52.451  1.00  0.00     0.085 C 
HETATM   10  C9  UNL     1      21.796   1.786  52.132  1.00  0.00     0.029 C 
HETATM   11  C10 UNL     1      21.578   1.121  50.848  1.00  0.00     0.038 C 
HETATM   12  C11 UNL     1      21.851   0.553  53.219  1.00  0.00     0.064 C 
HETATM   13  C12 UNL     1      23.247   0.035  53.331  1.00  0.00    -0.081 C 
HETATM   14  C13 UNL     1      22.681  -1.141  54.149  1.00  0.00     0.043 C 
HETATM   15  C14 UNL     1      24.452  -0.503  53.428  1.00  0.00     0.004 C 
HETATM   16  C15 UNL     1      25.542   0.487  53.547  1.00  0.00     0.017 C 
HETATM   17  C16 UNL     1      25.316   1.792  53.513  1.00  0.00     0.085 C 
HETATM   18  N3  UNL     1      24.915   3.158  53.458  1.00  0.00    -0.372 N 
HETATM   19  N4  UNL     1      20.738   2.565  52.702  1.00  0.00    -0.410 N 
HETATM   20  C17 UNL     1      19.723   3.189  51.958  1.00  0.00     0.141 C 
HETATM   21  C18 UNL     1      20.177   4.302  51.112  1.00  0.00     0.186 C 
HETATM   22  O2  UNL     1      19.227   5.013  50.337  1.00  0.00    -0.387 OA
HETATM   23  C19 UNL     1      20.040   5.779  49.557  1.00  0.00     0.200 C 
HETATM   24  H23 UNL     1      25.086   3.920  54.128  1.00  0.00     0.161 HD
HETATM   25  H24 UNL     1      20.522   2.333  53.678  1.00  0.00     0.154 HD
ENDROOT
BRANCH   1  26
HETATM   26  O1  UNL     1      20.092   8.372  50.042  1.00  0.00    -0.387 OA
HETATM   27  C1  UNL     1      19.355   8.897  48.978  1.00  0.00     0.202 C 
ENDBRANCH   1  26
TORSDOF 1
ENDMDL
MODEL 4
REMARK VINA RESULT:      -7.9      4.091      6.412
REMARK  1 active torsions:
REMARK  status: ('A' for Active; 'I' for Inactive)
REMARK    1  A    between atoms: O1_2  and  C2_3 
ROOT
HETATM    1  C2  UNL     1      24.034   5.990  48.355  1.00  0.00     0.074 C 
HETATM    2  C3  UNL     1      25.365   6.312  48.641  1.00  0.00     0.161 C 
HETATM    3  C4  UNL     1      26.422   5.351  49.186  1.00  0.00     0.165 C 
HETATM    4  N1  UNL     1      25.953   4.322  49.687  1.00  0.00    -0.415 NA
HETATM    5  C5  UNL     1      25.513   3.215  50.231  1.00  0.00     0.295 C 
HETATM    6  N2  UNL     1      25.785   3.247  51.534  1.00  0.00    -0.240 NA
HETATM    7  C6  UNL     1      25.312   1.990  52.148  1.00  0.00     0.125 C 
HETATM    8  C7  UNL     1      26.118   0.875  51.478  1.00  0.00     0.065 C 
HETATM    9  C8  UNL     1      23.928   1.753  52.400  1.00  0.00     0.085 C 
HETATM   10  C9  UNL     1      22.576   1.662  51.977  1.00  0.00     0.029 C 
HETATM   11  C10 UNL     1      22.195   0.780  50.873  1.00  0.00     0.038 C 
HETATM   12  C11 UNL     1      21.995   0.903  53.315  1.00  0.00     0.064 C 
HETATM   13  C12 UNL     1      23.009  -0.064  53.833  1.00  0.00    -0.081 C 
HETATM   14  C13 UNL     1      21.920  -0.609  54.775  1.00  0.00     0.043 C 
HETATM   15  C14 UNL     1      23.844  -0.977  54.300  1.00  0.00     0.004 C 
HETATM   16  C15 UNL     1      25.244  -0.515  54.399  1.00  0.00     0.017 C 
HETATM   17  C16 UNL     1      25.616   0.694  54.007  1.00  0.00     0.085 C 
HETATM   18  N3  UNL     1      25.860   2.019  53.544  1.00  0.00    -0.372 N 
HETATM   19  N4  UNL     1      21.924   2.929  52.113  1.00  0.00    -0.410 N 
HETATM   20  C17 UNL     1      21.350   3.644  51.049  1.00  0.00     0.141 C 
HETATM   21  C18 UNL     1      22.314   4.171  50.072  1.00  0.00     0.186 C 
HETATM   22  O2  UNL     1      21.838   4.926  48.971  1.00  0.00    -0.387 OA
HETATM   23  C19 UNL     1      22.967   5.030  48.213  1.00  0.00     0.200 C 
HETATM   24  H23 UNL     1      26.292   2.816  54.031  1.00  0.00     0.161 HD
HETATM   25  H24 UNL     1      21.548   3.111  53.050  1.00  0.00     0.154 HD
ENDROOT
BRANCH   1  26
HETATM   26  O1  UNL     1      24.109   7.403  48.061  1.00  0.00    -0.387 OA
HETATM   27  C1  UNL     1      24.161   8.296  49.135  1.00  0.00     0.202 C 
ENDBRANCH   1  26
TORSDOF 1
ENDMDL
MODEL 5
REMARK VINA RESULT:      -7.8      2.434      4.581
REMARK  1 active torsions:
REMARK  status: ('A' for Active; 'I' for Inactive)
REMARK    1  A    between atoms: O1_2  and  C2_3 
ROOT
HETATM    1  C2  UNL     1      26.251  -0.193  53.371  1.00  0.00     0.074 C 
HETATM    2  C3  UNL     1      25.395  -0.652  54.377  1.00  0.00     0.161 C 
HETATM    3  C4  UNL     1      23.875  -0.778  54.271  1.00  0.00     0.165 C 
HETATM    4  N1  UNL     1      23.382  -0.130  53.340  1.00  0.00    -0.415 NA
HETATM    5  C5  UNL     1      22.805   0.538  52.372  1.00  0.00     0.295 C 
HETATM    6  N2  UNL     1      22.053   1.495  52.909  1.00  0.00    -0.240 NA
HETATM    7  C6  UNL     1      21.380   2.236  51.822  1.00  0.00     0.125 C 
HETATM    8  C7  UNL     1      20.490   1.211  51.115  1.00  0.00     0.065 C 
HETATM    9  C8  UNL     1      22.080   3.181  51.015  1.00  0.00     0.085 C 
HETATM   10  C9  UNL     1      23.145   3.541  50.148  1.00  0.00     0.029 C 
HETATM   11  C10 UNL     1      23.396   2.789  48.918  1.00  0.00     0.038 C 
HETATM   12  C11 UNL     1      22.508   4.963  49.624  1.00  0.00     0.064 C 
HETATM   13  C12 UNL     1      21.026   4.837  49.484  1.00  0.00    -0.081 C 
HETATM   14  C13 UNL     1      21.038   6.201  48.769  1.00  0.00     0.043 C 
HETATM   15  C14 UNL     1      19.720   4.765  49.285  1.00  0.00     0.004 C 
HETATM   16  C15 UNL     1      18.981   4.114  50.385  1.00  0.00     0.017 C 
HETATM   17  C16 UNL     1      19.595   3.614  51.447  1.00  0.00     0.085 C 
HETATM   18  N3  UNL     1      20.395   3.125  52.520  1.00  0.00    -0.372 N 
HETATM   19  N4  UNL     1      24.257   4.035  50.902  1.00  0.00    -0.410 N 
HETATM   20  C17 UNL     1      25.538   3.459  50.895  1.00  0.00     0.141 C 
HETATM   21  C18 UNL     1      25.618   2.132  51.523  1.00  0.00     0.186 C 
HETATM   22  O2  UNL     1      26.871   1.473  51.588  1.00  0.00    -0.387 OA
HETATM   23  C19 UNL     1      26.497   0.233  52.014  1.00  0.00     0.200 C 
HETATM   24  H23 UNL     1      20.337   3.327  53.528  1.00  0.00     0.161 HD
HETATM   25  H24 UNL     1      24.199   5.033  51.135  1.00  0.00     0.154 HD
ENDROOT
BRANCH   1  26
HETATM   26  O1  UNL     1      27.142  -0.446  54.481  1.00  0.00    -0.387 OA
HETATM   27  C1  UNL     1      28.491  -0.118  54.329  1.00  0.00     0.202 C 
ENDBRANCH   1  26
TORSDOF 1
ENDMDL
MODEL 6
REMARK VINA RESULT:      -7.5      3.405      6.247
REMARK  1 active torsions:
REMARK  status: ('A' for Active; 'I' for Inactive)
REMARK    1  A    between atoms: O1_2  and  C2_3 
ROOT
HETATM    1  C2  UNL     1      22.396  -0.382  53.895  1.00  0.00     0.074 C 
HETATM    2  C3  UNL     1      21.190   0.097  54.415  1.00  0.00     0.161 C 
HETATM    3  C4  UNL     1      20.271   1.122  53.749  1.00  0.00     0.165 C 
HETATM    4  N1  UNL     1      20.817   1.775  52.852  1.00  0.00    -0.415 NA
HETATM    5  C5  UNL     1      21.343   2.498  51.894  1.00  0.00     0.295 C 
HETATM    6  N2  UNL     1      21.405   3.762  52.304  1.00  0.00    -0.240 NA
HETATM    7  C6  UNL     1      21.975   4.586  51.218  1.00  0.00     0.125 C 
HETATM    8  C7  UNL     1      20.992   4.467  50.051  1.00  0.00     0.065 C 
HETATM    9  C8  UNL     1      23.370   4.570  50.919  1.00  0.00     0.085 C 
HETATM   10  C9  UNL     1      24.570   3.892  50.581  1.00  0.00     0.029 C 
HETATM   11  C10 UNL     1      24.636   3.031  49.400  1.00  0.00     0.038 C 
HETATM   12  C11 UNL     1      25.441   5.221  50.157  1.00  0.00     0.064 C 
HETATM   13  C12 UNL     1      24.557   6.212  49.473  1.00  0.00    -0.081 C 
HETATM   14  C13 UNL     1      25.829   6.995  49.095  1.00  0.00     0.043 C 
HETATM   15  C14 UNL     1      23.837   7.101  48.810  1.00  0.00     0.004 C 
HETATM   16  C15 UNL     1      22.521   7.381  49.421  1.00  0.00     0.017 C 
HETATM   17  C16 UNL     1      22.102   6.755  50.510  1.00  0.00     0.085 C 
HETATM   18  N3  UNL     1      21.793   6.001  51.679  1.00  0.00    -0.372 N 
HETATM   19  N4  UNL     1      25.276   3.505  51.765  1.00  0.00    -0.410 N 
HETATM   20  C17 UNL     1      25.590   2.179  52.104  1.00  0.00     0.141 C 
HETATM   21  C18 UNL     1      24.431   1.341  52.442  1.00  0.00     0.186 C 
HETATM   22  O2  UNL     1      24.641  -0.009  52.820  1.00  0.00    -0.387 OA
HETATM   23  C19 UNL     1      23.363  -0.485  52.829  1.00  0.00     0.200 C 
HETATM   24  H23 UNL     1      21.523   6.325  52.617  1.00  0.00     0.161 HD
HETATM   25  H24 UNL     1      25.879   4.239  52.154  1.00  0.00     0.154 HD
ENDROOT
BRANCH   1  26
HETATM   26  O1  UNL     1      22.296  -1.044  55.176  1.00  0.00    -0.387 OA
HETATM   27  C1  UNL     1      23.473  -1.502  55.773  1.00  0.00     0.202 C 
ENDBRANCH   1  26
TORSDOF 1
ENDMDL
MODEL 7
REMARK VINA RESULT:      -7.1      3.238      6.865
REMARK  1 active torsions:
REMARK  status: ('A' for Active; 'I' for Inactive)
REMARK    1  A    between atoms: O1_2  and  C2_3 
ROOT
HETATM    1  C2  UNL     1      18.220   2.894  50.522  1.00  0.00     0.074 C 
HETATM    2  C3  UNL     1      18.702   4.180  50.256  1.00  0.00     0.161 C 
HETATM    3  C4  UNL     1      20.168   4.560  50.039  1.00  0.00     0.165 C 
HETATM    4  N1  UNL     1      20.970   3.711  50.444  1.00  0.00    -0.415 NA
HETATM    5  C5  UNL     1      21.866   2.848  50.856  1.00  0.00     0.295 C 
HETATM    6  N2  UNL     1      22.535   3.387  51.872  1.00  0.00    -0.240 NA
HETATM    7  C6  UNL     1      23.563   2.427  52.324  1.00  0.00     0.125 C 
HETATM    8  C7  UNL     1      24.501   2.234  51.130  1.00  0.00     0.065 C 
HETATM    9  C8  UNL     1      23.227   1.278  53.100  1.00  0.00     0.085 C 
HETATM   10  C9  UNL     1      22.495   0.080  53.310  1.00  0.00     0.029 C 
HETATM   11  C10 UNL     1      22.521  -0.996  52.319  1.00  0.00     0.038 C 
HETATM   12  C11 UNL     1      23.405  -0.498  54.552  1.00  0.00     0.064 C 
HETATM   13  C12 UNL     1      24.843  -0.161  54.330  1.00  0.00    -0.081 C 
HETATM   14  C13 UNL     1      25.182  -1.100  55.503  1.00  0.00     0.043 C 
HETATM   15  C14 UNL     1      26.136   0.057  54.156  1.00  0.00     0.004 C 
HETATM   16  C15 UNL     1      26.459   1.434  53.729  1.00  0.00     0.017 C 
HETATM   17  C16 UNL     1      25.520   2.340  53.503  1.00  0.00     0.085 C 
HETATM   18  N3  UNL     1      24.402   3.199  53.299  1.00  0.00    -0.372 N 
HETATM   19  N4  UNL     1      21.276   0.355  54.008  1.00  0.00    -0.410 N 
HETATM   20  C17 UNL     1      19.994   0.079  53.504  1.00  0.00     0.141 C 
HETATM   21  C18 UNL     1      19.597   0.902  52.352  1.00  0.00     0.186 C 
HETATM   22  O2  UNL     1      18.313   0.717  51.782  1.00  0.00    -0.387 OA
HETATM   23  C19 UNL     1      18.414   1.470  50.650  1.00  0.00     0.200 C 
HETATM   24  H23 UNL     1      24.195   4.118  53.714  1.00  0.00     0.161 HD
HETATM   25  H24 UNL     1      21.374   0.394  55.029  1.00  0.00     0.154 HD
ENDROOT
BRANCH   1  26
HETATM   26  O1  UNL     1      17.030   3.714  50.559  1.00  0.00    -0.387 OA
HETATM   27  C1  UNL     1      16.616   4.216  51.796  1.00  0.00     0.202 C 
ENDBRANCH   1  26
TORSDOF 1
ENDMDL
MODEL 8
REMARK VINA RESULT:      -7.1     11.957     14.475
REMARK  1 active torsions:
REMARK  status: ('A' for Active; 'I' for Inactive)
REMARK    1  A    between atoms: O1_2  and  C2_3 
ROOT
HETATM    1  C2  UNL     1      29.540  11.456  47.972  1.00  0.00     0.074 C 
HETATM    2  C3  UNL     1      28.574  10.813  48.752  1.00  0.00     0.161 C 
HETATM    3  C4  UNL     1      28.777   9.522  49.546  1.00  0.00     0.165 C 
HETATM    4  N1  UNL     1      29.769   8.871  49.198  1.00  0.00    -0.415 NA
HETATM    5  C5  UNL     1      30.805   8.139  48.871  1.00  0.00     0.295 C 
HETATM    6  N2  UNL     1      30.368   6.999  48.343  1.00  0.00    -0.240 NA
HETATM    7  C6  UNL     1      31.533   6.159  47.995  1.00  0.00     0.125 C 
HETATM    8  C7  UNL     1      32.248   5.878  49.318  1.00  0.00     0.065 C 
HETATM    9  C8  UNL     1      32.335   6.431  46.847  1.00  0.00     0.085 C 
HETATM   10  C9  UNL     1      33.144   7.292  46.061  1.00  0.00     0.029 C 
HETATM   11  C10 UNL     1      34.316   7.952  46.637  1.00  0.00     0.038 C 
HETATM   12  C11 UNL     1      33.778   6.135  45.079  1.00  0.00     0.064 C 
HETATM   13  C12 UNL     1      34.012   4.880  45.856  1.00  0.00    -0.081 C 
HETATM   14  C13 UNL     1      34.789   4.344  44.640  1.00  0.00     0.043 C 
HETATM   15  C14 UNL     1      34.296   3.764  46.506  1.00  0.00     0.004 C 
HETATM   16  C15 UNL     1      33.218   3.304  47.405  1.00  0.00     0.017 C 
HETATM   17  C16 UNL     1      32.094   3.986  47.564  1.00  0.00     0.085 C 
HETATM   18  N3  UNL     1      30.947   4.828  47.631  1.00  0.00    -0.372 N 
HETATM   19  N4  UNL     1      32.341   8.003  45.112  1.00  0.00    -0.410 N 
HETATM   20  C17 UNL     1      32.232   9.402  45.055  1.00  0.00     0.141 C 
HETATM   21  C18 UNL     1      31.537  10.010  46.199  1.00  0.00     0.186 C 
HETATM   22  O2  UNL     1      31.355  11.416  46.228  1.00  0.00    -0.387 OA
HETATM   23  C19 UNL     1      30.896  11.598  47.499  1.00  0.00     0.200 C 
HETATM   24  H23 UNL     1      29.956   4.603  47.463  1.00  0.00     0.161 HD
HETATM   25  H24 UNL     1      32.160   7.488  44.243  1.00  0.00     0.154 HD
ENDROOT
BRANCH   1  26
HETATM   26  O1  UNL     1      28.361  12.271  47.787  1.00  0.00    -0.387 OA
HETATM   27  C1  UNL     1      28.104  13.277  48.722  1.00  0.00     0.202 C 
ENDBRANCH   1  26
TORSDOF 1
ENDMDL
MODEL 9
REMARK VINA RESULT:      -7.0      3.201      7.307
REMARK  1 active torsions:
REMARK  status: ('A' for Active; 'I' for Inactive)
REMARK    1  A    between atoms: O1_2  and  C2_3 
ROOT
HETATM    1  C2  UNL     1      18.191  -0.063  52.098  1.00  0.00     0.074 C 
HETATM    2  C3  UNL     1      18.562  -1.133  52.918  1.00  0.00     0.161 C 
HETATM    3  C4  UNL     1      19.810  -1.195  53.801  1.00  0.00     0.165 C 
HETATM    4  N1  UNL     1      20.676  -0.364  53.503  1.00  0.00    -0.415 NA
HETATM    5  C5  UNL     1      21.628   0.493  53.231  1.00  0.00     0.295 C 
HETATM    6  N2  UNL     1      22.686  -0.178  52.783  1.00  0.00    -0.240 NA
HETATM    7  C6  UNL     1      23.772   0.783  52.498  1.00  0.00     0.125 C 
HETATM    8  C7  UNL     1      24.104   1.439  53.840  1.00  0.00     0.065 C 
HETATM    9  C8  UNL     1      23.754   1.610  51.337  1.00  0.00     0.085 C 
HETATM   10  C9  UNL     1      23.136   2.572  50.495  1.00  0.00     0.029 C 
HETATM   11  C10 UNL     1      22.698   3.862  51.027  1.00  0.00     0.038 C 
HETATM   12  C11 UNL     1      24.465   2.939  49.598  1.00  0.00     0.064 C 
HETATM   13  C12 UNL     1      25.684   2.916  50.462  1.00  0.00    -0.081 C 
HETATM   14  C13 UNL     1      26.454   3.551  49.288  1.00  0.00     0.043 C 
HETATM   15  C14 UNL     1      26.788   2.969  51.189  1.00  0.00     0.004 C 
HETATM   16  C15 UNL     1      26.950   1.829  52.114  1.00  0.00     0.017 C 
HETATM   17  C16 UNL     1      26.039   0.873  52.222  1.00  0.00     0.085 C 
HETATM   18  N3  UNL     1      24.974  -0.072  52.226  1.00  0.00    -0.372 N 
HETATM   19  N4  UNL     1      22.341   1.923  49.496  1.00  0.00    -0.410 N 
HETATM   20  C17 UNL     1      20.957   2.108  49.341  1.00  0.00     0.141 C 
HETATM   21  C18 UNL     1      20.140   1.568  50.437  1.00  0.00     0.186 C 
HETATM   22  O2  UNL     1      18.729   1.683  50.368  1.00  0.00    -0.387 OA
HETATM   23  C19 UNL     1      18.367   1.287  51.621  1.00  0.00     0.200 C 
HETATM   24  H23 UNL     1      24.998  -1.090  52.071  1.00  0.00     0.161 HD
HETATM   25  H24 UNL     1      22.866   1.630  48.664  1.00  0.00     0.154 HD
ENDROOT
BRANCH   1  26
HETATM   26  O1  UNL     1      17.162  -1.048  51.853  1.00  0.00    -0.387 OA
HETATM   27  C1  UNL     1      16.042  -1.050  52.688  1.00  0.00     0.202 C 
ENDBRANCH   1  26
TORSDOF 1
ENDMDL
