MODEL 1
REMARK VINA RESULT:      -9.5      0.000      0.000
REMARK  5 active torsions:
REMARK  status: ('A' for Active; 'I' for Inactive)
REMARK    1  A    between atoms: O1_2  and  C2_3 
REMARK    2  A    between atoms: C6_7  and  C7_8 
REMARK    3  A    between atoms: C8_9  and  C9_10 
REMARK       I    between atoms: C9_10  and  N1_12 
REMARK    4  A    between atoms: N1_12  and  C10_13 
REMARK    5  A    between atoms: C15_20  and  N4_21 
ROOT
HETATM    1  C10 UNL     1      26.128   3.495  49.801  1.00  0.00     0.036 A 
HETATM    2  C11 UNL     1      24.790   3.597  49.418  1.00  0.00     0.032 A 
HETATM    3  C12 UNL     1      23.785   2.905  50.059  1.00  0.00     0.035 A 
HETATM    4  C13 UNL     1      24.072   2.066  51.128  1.00  0.00     0.072 A 
HETATM    5  N2  UNL     1      23.139   1.368  51.800  1.00  0.00    -0.241 NA
HETATM    6  C14 UNL     1      23.553   0.585  52.833  1.00  0.00     0.236 A 
HETATM    7  N3  UNL     1      24.866   0.498  53.194  1.00  0.00    -0.223 NA
HETATM    8  C15 UNL     1      25.830   1.197  52.524  1.00  0.00     0.144 A 
HETATM    9  C21 UNL     1      25.404   1.989  51.479  1.00  0.00     0.041 A 
HETATM   10  C22 UNL     1      26.433   2.666  50.861  1.00  0.00     0.047 A 
ENDROOT
BRANCH   1  11
HETATM   11  N1  UNL     1      27.118   4.235  49.099  1.00  0.00    -0.324 N 
HETATM   12  C9  UNL     1      27.220   5.634  48.869  1.00  0.00     0.245 C 
HETATM   13  O2  UNL     1      26.289   6.272  49.369  1.00  0.00    -0.268 OA
HETATM   14  H9  UNL     1      27.817   3.542  48.750  1.00  0.00     0.169 HD
BRANCH  12  15
HETATM   15  C8  UNL     1      28.321   6.186  48.121  1.00  0.00     0.075 C 
HETATM   16  C7  UNL     1      29.575   5.833  48.126  1.00  0.00     0.017 C 
BRANCH  16  17
HETATM   17  C6  UNL     1      30.656   6.417  47.356  1.00  0.00    -0.033 A 
HETATM   18  C5  UNL     1      30.487   7.523  46.558  1.00  0.00     0.011 A 
HETATM   19  C4  UNL     1      31.543   8.068  45.825  1.00  0.00     0.004 A 
HETATM   20  C3  UNL     1      32.782   7.483  45.904  1.00  0.00     0.037 A 
HETATM   21  C2  UNL     1      32.976   6.361  46.706  1.00  0.00     0.069 A 
HETATM   22  C23 UNL     1      31.909   5.853  47.414  1.00  0.00     0.048 A 
BRANCH  21  23
HETATM   23  O1  UNL     1      34.219   5.756  46.798  1.00  0.00    -0.356 OA
HETATM   24  C1  UNL     1      34.563   4.762  47.731  1.00  0.00     0.210 C 
ENDBRANCH  21  23
ENDBRANCH  16  17
ENDBRANCH  12  15
ENDBRANCH   1  11
BRANCH   8  25
HETATM   25  N4  UNL     1      27.113   0.940  53.043  1.00  0.00    -0.336 N 
HETATM   26  C16 UNL     1      27.408  -0.442  52.881  1.00  0.00     0.116 A 
HETATM   27  C17 UNL     1      28.538  -1.048  53.286  1.00  0.00     0.049 A 
HETATM   28 CL1  UNL     1      28.945  -2.741  53.111  1.00  0.00    -0.083 Cl
HETATM   29  C18 UNL     1      29.586  -0.243  53.948  1.00  0.00     0.023 A 
HETATM   30  C19 UNL     1      29.254   1.032  54.058  1.00  0.00    -0.005 A 
HETATM   31  C20 UNL     1      28.071   1.830  53.666  1.00  0.00     0.157 A 
ENDBRANCH   8  25
TORSDOF 5
ENDMDL
MODEL 2
REMARK VINA RESULT:      -9.5      1.857      2.570
REMARK  5 active torsions:
REMARK  status: ('A' for Active; 'I' for Inactive)
REMARK    1  A    between atoms: O1_2  and  C2_3 
REMARK    2  A    between atoms: C6_7  and  C7_8 
REMARK    3  A    between atoms: C8_9  and  C9_10 
REMARK       I    between atoms: C9_10  and  N1_12 
REMARK    4  A    between atoms: N1_12  and  C10_13 
REMARK    5  A    between atoms: C15_20  and  N4_21 
ROOT
HETATM    1  C10 UNL     1      24.578   3.026  51.739  1.00  0.00     0.036 A 
HETATM    2  C11 UNL     1      23.214   3.275  51.896  1.00  0.00     0.032 A 
HETATM    3  C12 UNL     1      22.379   2.406  52.566  1.00  0.00     0.035 A 
HETATM    4  C13 UNL     1      22.873   1.231  53.117  1.00  0.00     0.072 A 
HETATM    5  N2  UNL     1      22.115   0.345  53.786  1.00  0.00    -0.241 NA
HETATM    6  C14 UNL     1      22.724  -0.766  54.283  1.00  0.00     0.236 A 
HETATM    7  N3  UNL     1      24.060  -0.993  54.119  1.00  0.00    -0.223 NA
HETATM    8  C15 UNL     1      24.848  -0.106  53.441  1.00  0.00     0.144 A 
HETATM    9  C21 UNL     1      24.225   1.018  52.942  1.00  0.00     0.041 A 
HETATM   10  C22 UNL     1      25.088   1.864  52.280  1.00  0.00     0.047 A 
ENDROOT
BRANCH   1  11
HETATM   11  N1  UNL     1      25.386   3.962  51.038  1.00  0.00    -0.324 N 
HETATM   12  C9  UNL     1      25.618   4.103  49.642  1.00  0.00     0.245 C 
HETATM   13  O2  UNL     1      25.010   3.267  48.967  1.00  0.00    -0.268 OA
HETATM   14  H9  UNL     1      25.819   4.582  51.758  1.00  0.00     0.169 HD
BRANCH  12  15
HETATM   15  C8  UNL     1      26.486   5.135  49.133  1.00  0.00     0.075 C 
HETATM   16  C7  UNL     1      27.664   5.022  48.591  1.00  0.00     0.017 C 
BRANCH  16  17
HETATM   17  C6  UNL     1      28.509   6.090  48.091  1.00  0.00    -0.033 A 
HETATM   18  C5  UNL     1      28.002   7.224  47.504  1.00  0.00     0.011 A 
HETATM   19  C4  UNL     1      28.835   8.239  47.029  1.00  0.00     0.004 A 
HETATM   20  C3  UNL     1      30.195   8.100  47.152  1.00  0.00     0.037 A 
HETATM   21  C2  UNL     1      30.730   6.959  47.744  1.00  0.00     0.069 A 
HETATM   22  C23 UNL     1      29.875   5.979  48.200  1.00  0.00     0.048 A 
BRANCH  21  23
HETATM   23  O1  UNL     1      32.100   6.799  47.877  1.00  0.00    -0.356 OA
HETATM   24  C1  UNL     1      32.722   5.831  48.684  1.00  0.00     0.210 C 
ENDBRANCH  21  23
ENDBRANCH  16  17
ENDBRANCH  12  15
ENDBRANCH   1  11
BRANCH   8  25
HETATM   25  N4  UNL     1      26.183  -0.547  53.369  1.00  0.00    -0.336 N 
HETATM   26  C16 UNL     1      27.025   0.428  53.974  1.00  0.00     0.116 A 
HETATM   27  C17 UNL     1      28.364   0.350  54.062  1.00  0.00     0.049 A 
HETATM   28 CL1  UNL     1      29.440   1.520  54.793  1.00  0.00    -0.083 Cl
HETATM   29  C18 UNL     1      29.052  -0.835  53.507  1.00  0.00     0.023 A 
HETATM   30  C19 UNL     1      28.214  -1.705  52.970  1.00  0.00    -0.005 A 
HETATM   31  C20 UNL     1      26.745  -1.756  52.803  1.00  0.00     0.157 A 
ENDBRANCH   8  25
TORSDOF 5
ENDMDL
MODEL 3
REMARK VINA RESULT:      -9.4      3.459      9.028
REMARK  5 active torsions:
REMARK  status: ('A' for Active; 'I' for Inactive)
REMARK    1  A    between atoms: O1_2  and  C2_3 
REMARK    2  A    between atoms: C6_7  and  C7_8 
REMARK    3  A    between atoms: C8_9  and  C9_10 
REMARK       I    between atoms: C9_10  and  N1_12 
REMARK    4  A    between atoms: N1_12  and  C10_13 
REMARK    5  A    between atoms: C15_20  and  N4_21 
ROOT
HETATM    1  C10 UNL     1      28.316   5.683  48.376  1.00  0.00     0.036 A 
HETATM    2  C11 UNL     1      27.592   6.833  48.058  1.00  0.00     0.032 A 
HETATM    3  C12 UNL     1      28.141   7.872  47.337  1.00  0.00     0.035 A 
HETATM    4  C13 UNL     1      29.456   7.812  46.895  1.00  0.00     0.072 A 
HETATM    5  N2  UNL     1      30.049   8.787  46.184  1.00  0.00    -0.241 NA
HETATM    6  C14 UNL     1      31.343   8.602  45.807  1.00  0.00     0.236 A 
HETATM    7  N3  UNL     1      32.035   7.470  46.129  1.00  0.00    -0.223 NA
HETATM    8  C15 UNL     1      31.452   6.468  46.852  1.00  0.00     0.144 A 
HETATM    9  C21 UNL     1      30.140   6.662  47.229  1.00  0.00     0.041 A 
HETATM   10  C22 UNL     1      29.624   5.604  47.946  1.00  0.00     0.047 A 
ENDROOT
BRANCH   1  11
HETATM   11  N1  UNL     1      27.692   4.646  49.123  1.00  0.00    -0.324 N 
HETATM   12  C9  UNL     1      26.313   4.397  49.364  1.00  0.00     0.245 C 
HETATM   13  O2  UNL     1      25.574   5.229  48.830  1.00  0.00    -0.268 OA
HETATM   14  H9  UNL     1      28.460   4.044  49.497  1.00  0.00     0.169 HD
BRANCH  12  15
HETATM   15  C8  UNL     1      25.890   3.273  50.160  1.00  0.00     0.075 C 
HETATM   16  C7  UNL     1      26.553   2.612  51.064  1.00  0.00     0.017 C 
BRANCH  16  17
HETATM   17  C6  UNL     1      26.089   1.481  51.845  1.00  0.00    -0.033 A 
HETATM   18  C5  UNL     1      24.788   1.356  52.271  1.00  0.00     0.011 A 
HETATM   19  C4  UNL     1      24.364   0.258  53.022  1.00  0.00     0.004 A 
HETATM   20  C3  UNL     1      25.270  -0.722  53.343  1.00  0.00     0.037 A 
HETATM   21  C2  UNL     1      26.593  -0.615  52.922  1.00  0.00     0.069 A 
HETATM   22  C23 UNL     1      26.973   0.483  52.183  1.00  0.00     0.048 A 
BRANCH  21  23
HETATM   23  O1  UNL     1      27.523  -1.594  53.237  1.00  0.00    -0.356 OA
HETATM   24  C1  UNL     1      28.903  -1.373  53.384  1.00  0.00     0.210 C 
ENDBRANCH  21  23
ENDBRANCH  16  17
ENDBRANCH  12  15
ENDBRANCH   1  11
BRANCH   8  25
HETATM   25  N4  UNL     1      32.350   5.410  47.091  1.00  0.00    -0.336 N 
HETATM   26  C16 UNL     1      33.399   5.878  47.931  1.00  0.00     0.116 A 
HETATM   27  C17 UNL     1      34.448   5.145  48.344  1.00  0.00     0.049 A 
HETATM   28 CL1  UNL     1      35.761   5.674  49.373  1.00  0.00    -0.083 Cl
HETATM   29  C18 UNL     1      34.548   3.732  47.921  1.00  0.00     0.023 A 
HETATM   30  C19 UNL     1      33.538   3.360  47.152  1.00  0.00    -0.005 A 
HETATM   31  C20 UNL     1      32.335   4.039  46.625  1.00  0.00     0.157 A 
ENDBRANCH   8  25
TORSDOF 5
ENDMDL
MODEL 4
REMARK VINA RESULT:      -9.3      5.905     12.153
REMARK  5 active torsions:
REMARK  status: ('A' for Active; 'I' for Inactive)
REMARK    1  A    between atoms: O1_2  and  C2_3 
REMARK    2  A    between atoms: C6_7  and  C7_8 
REMARK    3  A    between atoms: C8_9  and  C9_10 
REMARK       I    between atoms: C9_10  and  N1_12 
REMARK    4  A    between atoms: N1_12  and  C10_13 
REMARK    5  A    between atoms: C15_20  and  N4_21 
ROOT
HETATM    1  C10 UNL     1      23.306  -0.372  53.609  1.00  0.00     0.036 A 
HETATM    2  C11 UNL     1      23.985  -1.021  54.641  1.00  0.00     0.032 A 
HETATM    3  C12 UNL     1      25.289  -0.717  54.970  1.00  0.00     0.035 A 
HETATM    4  C13 UNL     1      25.986   0.260  54.273  1.00  0.00     0.072 A 
HETATM    5  N2  UNL     1      27.256   0.608  54.546  1.00  0.00    -0.241 NA
HETATM    6  C14 UNL     1      27.824   1.588  53.790  1.00  0.00     0.236 A 
HETATM    7  N3  UNL     1      27.144   2.211  52.784  1.00  0.00    -0.223 NA
HETATM    8  C15 UNL     1      25.853   1.872  52.490  1.00  0.00     0.144 A 
HETATM    9  C21 UNL     1      25.284   0.880  53.260  1.00  0.00     0.041 A 
HETATM   10  C22 UNL     1      23.982   0.603  52.905  1.00  0.00     0.047 A 
ENDROOT
BRANCH   1  11
HETATM   11  N1  UNL     1      21.961  -0.731  53.319  1.00  0.00    -0.324 N 
HETATM   12  C9  UNL     1      20.752  -0.325  53.948  1.00  0.00     0.245 C 
HETATM   13  O2  UNL     1      20.937   0.457  54.885  1.00  0.00    -0.268 OA
HETATM   14  H9  UNL     1      21.995  -1.389  52.509  1.00  0.00     0.169 HD
BRANCH  12  15
HETATM   15  C8  UNL     1      19.476  -0.814  53.491  1.00  0.00     0.075 C 
HETATM   16  C7  UNL     1      18.864  -1.921  53.799  1.00  0.00     0.017 C 
BRANCH  16  17
HETATM   17  C6  UNL     1      17.576  -2.379  53.314  1.00  0.00    -0.033 A 
HETATM   18  C5  UNL     1      16.725  -1.575  52.593  1.00  0.00     0.011 A 
HETATM   19  C4  UNL     1      15.489  -2.037  52.137  1.00  0.00     0.004 A 
HETATM   20  C3  UNL     1      15.114  -3.328  52.417  1.00  0.00     0.037 A 
HETATM   21  C2  UNL     1      15.960  -4.159  53.146  1.00  0.00     0.069 A 
HETATM   22  C23 UNL     1      17.172  -3.666  53.579  1.00  0.00     0.048 A 
BRANCH  21  23
HETATM   23  O1  UNL     1      15.600  -5.465  53.438  1.00  0.00    -0.356 OA
HETATM   24  C1  UNL     1      15.473  -5.993  54.735  1.00  0.00     0.210 C 
ENDBRANCH  21  23
ENDBRANCH  16  17
ENDBRANCH  12  15
ENDBRANCH   1  11
BRANCH   8  25
HETATM   25  N4  UNL     1      25.356   2.618  51.404  1.00  0.00    -0.336 N 
HETATM   26  C16 UNL     1      26.451   3.165  50.680  1.00  0.00     0.116 A 
HETATM   27  C17 UNL     1      26.349   3.955  49.597  1.00  0.00     0.049 A 
HETATM   28 CL1  UNL     1      27.663   4.651  48.674  1.00  0.00    -0.083 Cl
HETATM   29  C18 UNL     1      25.006   4.295  49.081  1.00  0.00     0.023 A 
HETATM   30  C19 UNL     1      24.035   3.748  49.792  1.00  0.00    -0.005 A 
HETATM   31  C20 UNL     1      23.993   2.873  50.984  1.00  0.00     0.157 A 
ENDBRANCH   8  25
TORSDOF 5
ENDMDL
MODEL 5
REMARK VINA RESULT:      -9.2      2.388      3.438
REMARK  5 active torsions:
REMARK  status: ('A' for Active; 'I' for Inactive)
REMARK    1  A    between atoms: O1_2  and  C2_3 
REMARK    2  A    between atoms: C6_7  and  C7_8 
REMARK    3  A    between atoms: C8_9  and  C9_10 
REMARK       I    between atoms: C9_10  and  N1_12 
REMARK    4  A    between atoms: N1_12  and  C10_13 
REMARK    5  A    between atoms: C15_20  and  N4_21 
ROOT
HETATM    1  C10 UNL     1      24.504   2.936  51.713  1.00  0.00     0.036 A 
HETATM    2  C11 UNL     1      23.141   3.175  51.890  1.00  0.00     0.032 A 
HETATM    3  C12 UNL     1      22.326   2.310  52.590  1.00  0.00     0.035 A 
HETATM    4  C13 UNL     1      22.842   1.150  53.152  1.00  0.00     0.072 A 
HETATM    5  N2  UNL     1      22.105   0.268  53.851  1.00  0.00    -0.241 NA
HETATM    6  C14 UNL     1      22.734  -0.828  54.355  1.00  0.00     0.236 A 
HETATM    7  N3  UNL     1      24.069  -1.044  54.172  1.00  0.00    -0.223 NA
HETATM    8  C15 UNL     1      24.836  -0.162  53.465  1.00  0.00     0.144 A 
HETATM    9  C21 UNL     1      24.192   0.947  52.957  1.00  0.00     0.041 A 
HETATM   10  C22 UNL     1      25.035   1.789  52.265  1.00  0.00     0.047 A 
ENDROOT
BRANCH   1  11
HETATM   11  N1  UNL     1      25.291   3.868  50.981  1.00  0.00    -0.324 N 
HETATM   12  C9  UNL     1      25.395   4.071  49.577  1.00  0.00     0.245 C 
HETATM   13  O2  UNL     1      24.681   3.302  48.926  1.00  0.00    -0.268 OA
HETATM   14  H9  UNL     1      25.823   4.427  51.684  1.00  0.00     0.169 HD
BRANCH  12  15
HETATM   15  C8  UNL     1      26.264   5.084  49.036  1.00  0.00     0.075 C 
HETATM   16  C7  UNL     1      27.515   4.992  48.689  1.00  0.00     0.017 C 
BRANCH  16  17
HETATM   17  C6  UNL     1      28.358   6.040  48.146  1.00  0.00    -0.033 A 
HETATM   18  C5  UNL     1      29.706   5.876  47.936  1.00  0.00     0.011 A 
HETATM   19  C4  UNL     1      30.497   6.900  47.413  1.00  0.00     0.004 A 
HETATM   20  C3  UNL     1      29.914   8.103  47.102  1.00  0.00     0.037 A 
HETATM   21  C2  UNL     1      28.549   8.291  47.307  1.00  0.00     0.069 A 
HETATM   22  C23 UNL     1      27.802   7.256  47.825  1.00  0.00     0.048 A 
BRANCH  21  23
HETATM   23  O1  UNL     1      27.941   9.498  46.999  1.00  0.00    -0.356 OA
HETATM   24  C1  UNL     1      27.649  10.511  47.928  1.00  0.00     0.210 C 
ENDBRANCH  21  23
ENDBRANCH  16  17
ENDBRANCH  12  15
ENDBRANCH   1  11
BRANCH   8  25
HETATM   25  N4  UNL     1      26.174  -0.592  53.376  1.00  0.00    -0.336 N 
HETATM   26  C16 UNL     1      27.012   0.383  53.985  1.00  0.00     0.116 A 
HETATM   27  C17 UNL     1      28.353   0.315  54.061  1.00  0.00     0.049 A 
HETATM   28 CL1  UNL     1      29.426   1.486  54.796  1.00  0.00    -0.083 Cl
HETATM   29  C18 UNL     1      29.046  -0.858  53.487  1.00  0.00     0.023 A 
HETATM   30  C19 UNL     1      28.210  -1.728  52.947  1.00  0.00    -0.005 A 
HETATM   31  C20 UNL     1      26.740  -1.790  52.791  1.00  0.00     0.157 A 
ENDBRANCH   8  25
TORSDOF 5
ENDMDL
MODEL 6
REMARK VINA RESULT:      -9.0      3.558      5.880
REMARK  5 active torsions:
REMARK  status: ('A' for Active; 'I' for Inactive)
REMARK    1  A    between atoms: O1_2  and  C2_3 
REMARK    2  A    between atoms: C6_7  and  C7_8 
REMARK    3  A    between atoms: C8_9  and  C9_10 
REMARK       I    between atoms: C9_10  and  N1_12 
REMARK    4  A    between atoms: N1_12  and  C10_13 
REMARK    5  A    between atoms: C15_20  and  N4_21 
ROOT
HETATM    1  C10 UNL     1      24.528   1.719  52.145  1.00  0.00     0.036 A 
HETATM    2  C11 UNL     1      25.330   0.830  52.861  1.00  0.00     0.032 A 
HETATM    3  C12 UNL     1      24.800  -0.169  53.650  1.00  0.00     0.035 A 
HETATM    4  C13 UNL     1      23.425  -0.329  53.762  1.00  0.00     0.072 A 
HETATM    5  N2  UNL     1      22.844  -1.285  54.508  1.00  0.00    -0.241 NA
HETATM    6  C14 UNL     1      21.485  -1.338  54.528  1.00  0.00     0.236 A 
HETATM    7  N3  UNL     1      20.716  -0.459  53.820  1.00  0.00    -0.223 NA
HETATM    8  C15 UNL     1      21.286   0.520  53.057  1.00  0.00     0.144 A 
HETATM    9  C21 UNL     1      22.664   0.567  53.040  1.00  0.00     0.041 A 
HETATM   10  C22 UNL     1      23.159   1.576  52.243  1.00  0.00     0.047 A 
ENDROOT
BRANCH   1  11
HETATM   11  N1  UNL     1      25.136   2.728  51.349  1.00  0.00    -0.324 N 
HETATM   12  C9  UNL     1      24.760   3.237  50.075  1.00  0.00     0.245 C 
HETATM   13  O2  UNL     1      23.748   2.695  49.621  1.00  0.00    -0.268 OA
HETATM   14  H9  UNL     1      25.966   3.070  51.883  1.00  0.00     0.169 HD
BRANCH  12  15
HETATM   15  C8  UNL     1      25.525   4.277  49.435  1.00  0.00     0.075 C 
HETATM   16  C7  UNL     1      26.810   4.342  49.231  1.00  0.00     0.017 C 
BRANCH  16  17
HETATM   17  C6  UNL     1      27.544   5.411  48.582  1.00  0.00    -0.033 A 
HETATM   18  C5  UNL     1      26.948   6.580  48.172  1.00  0.00     0.011 A 
HETATM   19  C4  UNL     1      27.675   7.595  47.548  1.00  0.00     0.004 A 
HETATM   20  C3  UNL     1      29.020   7.420  47.337  1.00  0.00     0.037 A 
HETATM   21  C2  UNL     1      29.645   6.244  47.743  1.00  0.00     0.069 A 
HETATM   22  C23 UNL     1      28.893   5.265  48.356  1.00  0.00     0.048 A 
BRANCH  21  23
HETATM   23  O1  UNL     1      31.001   6.048  47.539  1.00  0.00    -0.356 OA
HETATM   24  C1  UNL     1      31.616   4.796  47.365  1.00  0.00     0.210 C 
ENDBRANCH  21  23
ENDBRANCH  16  17
ENDBRANCH  12  15
ENDBRANCH   1  11
BRANCH   8  25
HETATM   25  N4  UNL     1      20.313   1.327  52.437  1.00  0.00    -0.336 N 
HETATM   26  C16 UNL     1      19.455   0.499  51.660  1.00  0.00     0.116 A 
HETATM   27  C17 UNL     1      18.427   0.933  50.910  1.00  0.00     0.049 A 
HETATM   28 CL1  UNL     1      17.346  -0.043  49.940  1.00  0.00    -0.083 Cl
HETATM   29  C18 UNL     1      18.127   2.380  50.873  1.00  0.00     0.023 A 
HETATM   30  C19 UNL     1      18.953   3.090  51.622  1.00  0.00    -0.005 A 
HETATM   31  C20 UNL     1      20.107   2.759  52.487  1.00  0.00     0.157 A 
ENDBRANCH   8  25
TORSDOF 5
ENDMDL
MODEL 7
REMARK VINA RESULT:      -8.8      3.656      6.210
REMARK  5 active torsions:
REMARK  status: ('A' for Active; 'I' for Inactive)
REMARK    1  A    between atoms: O1_2  and  C2_3 
REMARK    2  A    between atoms: C6_7  and  C7_8 
REMARK    3  A    between atoms: C8_9  and  C9_10 
REMARK       I    between atoms: C9_10  and  N1_12 
REMARK    4  A    between atoms: N1_12  and  C10_13 
REMARK    5  A    between atoms: C15_20  and  N4_21 
ROOT
HETATM    1  C10 UNL     1      24.721   1.862  52.382  1.00  0.00     0.036 A 
HETATM    2  C11 UNL     1      25.515   0.968  53.102  1.00  0.00     0.032 A 
HETATM    3  C12 UNL     1      24.977  -0.061  53.846  1.00  0.00     0.035 A 
HETATM    4  C13 UNL     1      23.603  -0.247  53.909  1.00  0.00     0.072 A 
HETATM    5  N2  UNL     1      23.014  -1.232  54.610  1.00  0.00    -0.241 NA
HETATM    6  C14 UNL     1      21.656  -1.307  54.584  1.00  0.00     0.236 A 
HETATM    7  N3  UNL     1      20.896  -0.423  53.875  1.00  0.00    -0.223 NA
HETATM    8  C15 UNL     1      21.473   0.586  53.157  1.00  0.00     0.144 A 
HETATM    9  C21 UNL     1      22.850   0.656  53.186  1.00  0.00     0.041 A 
HETATM   10  C22 UNL     1      23.353   1.694  52.432  1.00  0.00     0.047 A 
ENDROOT
BRANCH   1  11
HETATM   11  N1  UNL     1      25.337   2.902  51.634  1.00  0.00    -0.324 N 
HETATM   12  C9  UNL     1      25.122   3.309  50.288  1.00  0.00     0.245 C 
HETATM   13  O2  UNL     1      24.265   2.632  49.712  1.00  0.00    -0.268 OA
HETATM   14  H9  UNL     1      26.025   3.362  52.271  1.00  0.00     0.169 HD
BRANCH  12  15
HETATM   15  C8  UNL     1      25.863   4.404  49.716  1.00  0.00     0.075 C 
HETATM   16  C7  UNL     1      26.994   4.380  49.070  1.00  0.00     0.017 C 
BRANCH  16  17
HETATM   17  C6  UNL     1      27.710   5.510  48.509  1.00  0.00    -0.033 A 
HETATM   18  C5  UNL     1      29.045   5.456  48.184  1.00  0.00     0.011 A 
HETATM   19  C4  UNL     1      29.713   6.557  47.645  1.00  0.00     0.004 A 
HETATM   20  C3  UNL     1      29.020   7.722  47.435  1.00  0.00     0.037 A 
HETATM   21  C2  UNL     1      27.668   7.799  47.757  1.00  0.00     0.069 A 
HETATM   22  C23 UNL     1      27.043   6.691  48.287  1.00  0.00     0.048 A 
BRANCH  21  23
HETATM   23  O1  UNL     1      26.950   8.967  47.553  1.00  0.00    -0.356 OA
HETATM   24  C1  UNL     1      26.339   9.724  48.568  1.00  0.00     0.210 C 
ENDBRANCH  21  23
ENDBRANCH  16  17
ENDBRANCH  12  15
ENDBRANCH   1  11
BRANCH   8  25
HETATM   25  N4  UNL     1      20.506   1.393  52.526  1.00  0.00    -0.336 N 
HETATM   26  C16 UNL     1      19.624   0.559  51.783  1.00  0.00     0.116 A 
HETATM   27  C17 UNL     1      18.595   0.992  51.034  1.00  0.00     0.049 A 
HETATM   28 CL1  UNL     1      17.485   0.009  50.103  1.00  0.00    -0.083 Cl
HETATM   29  C18 UNL     1      18.320   2.442  50.960  1.00  0.00     0.023 A 
HETATM   30  C19 UNL     1      19.168   3.157  51.679  1.00  0.00    -0.005 A 
HETATM   31  C20 UNL     1      20.326   2.829  52.539  1.00  0.00     0.157 A 
ENDBRANCH   8  25
TORSDOF 5
ENDMDL
MODEL 8
REMARK VINA RESULT:      -8.7      2.904      4.980
REMARK  5 active torsions:
REMARK  status: ('A' for Active; 'I' for Inactive)
REMARK    1  A    between atoms: O1_2  and  C2_3 
REMARK    2  A    between atoms: C6_7  and  C7_8 
REMARK    3  A    between atoms: C8_9  and  C9_10 
REMARK       I    between atoms: C9_10  and  N1_12 
REMARK    4  A    between atoms: N1_12  and  C10_13 
REMARK    5  A    between atoms: C15_20  and  N4_21 
ROOT
HETATM    1  C10 UNL     1      26.151   2.549  52.121  1.00  0.00     0.036 A 
HETATM    2  C11 UNL     1      27.191   2.209  52.988  1.00  0.00     0.032 A 
HETATM    3  C12 UNL     1      27.075   1.194  53.913  1.00  0.00     0.035 A 
HETATM    4  C13 UNL     1      25.900   0.462  54.020  1.00  0.00     0.072 A 
HETATM    5  N2  UNL     1      25.724  -0.543  54.897  1.00  0.00    -0.241 NA
HETATM    6  C14 UNL     1      24.524  -1.184  54.896  1.00  0.00     0.236 A 
HETATM    7  N3  UNL     1      23.518  -0.837  54.041  1.00  0.00    -0.223 NA
HETATM    8  C15 UNL     1      23.676   0.182  53.143  1.00  0.00     0.144 A 
HETATM    9  C21 UNL     1      24.894   0.827  53.149  1.00  0.00     0.041 A 
HETATM   10  C22 UNL     1      24.975   1.834  52.212  1.00  0.00     0.047 A 
ENDROOT
BRANCH   1  11
HETATM   11  N1  UNL     1      26.333   3.607  51.188  1.00  0.00    -0.324 N 
HETATM   12  C9  UNL     1      26.704   3.560  49.816  1.00  0.00     0.245 C 
HETATM   13  O2  UNL     1      26.890   2.410  49.408  1.00  0.00    -0.268 OA
HETATM   14  H9  UNL     1      26.136   4.495  51.701  1.00  0.00     0.169 HD
BRANCH  12  15
HETATM   15  C8  UNL     1      26.833   4.767  49.040  1.00  0.00     0.075 C 
HETATM   16  C7  UNL     1      27.913   5.355  48.612  1.00  0.00     0.017 C 
BRANCH  16  17
HETATM   17  C6  UNL     1      28.001   6.574  47.831  1.00  0.00    -0.033 A 
HETATM   18  C5  UNL     1      26.913   7.376  47.581  1.00  0.00     0.011 A 
HETATM   19  C4  UNL     1      27.021   8.545  46.827  1.00  0.00     0.004 A 
HETATM   20  C3  UNL     1      28.246   8.903  46.321  1.00  0.00     0.037 A 
HETATM   21  C2  UNL     1      29.362   8.105  46.561  1.00  0.00     0.069 A 
HETATM   22  C23 UNL     1      29.214   6.958  47.311  1.00  0.00     0.048 A 
BRANCH  21  23
HETATM   23  O1  UNL     1      30.607   8.448  46.059  1.00  0.00    -0.356 OA
HETATM   24  C1  UNL     1      31.831   8.187  46.697  1.00  0.00     0.210 C 
ENDBRANCH  21  23
ENDBRANCH  16  17
ENDBRANCH  12  15
ENDBRANCH   1  11
BRANCH   8  25
HETATM   25  N4  UNL     1      22.509   0.387  52.381  1.00  0.00    -0.336 N 
HETATM   26  C16 UNL     1      21.405  -0.195  53.064  1.00  0.00     0.116 A 
HETATM   27  C17 UNL     1      20.137  -0.212  52.616  1.00  0.00     0.049 A 
HETATM   28 CL1  UNL     1      18.748  -0.914  53.416  1.00  0.00    -0.083 Cl
HETATM   29  C18 UNL     1      19.826   0.425  51.319  1.00  0.00     0.023 A 
HETATM   30  C19 UNL     1      20.892   0.954  50.744  1.00  0.00    -0.005 A 
HETATM   31  C20 UNL     1      22.322   1.051  51.108  1.00  0.00     0.157 A 
ENDBRANCH   8  25
TORSDOF 5
ENDMDL
MODEL 9
REMARK VINA RESULT:      -8.7      3.660      9.656
REMARK  5 active torsions:
REMARK  status: ('A' for Active; 'I' for Inactive)
REMARK    1  A    between atoms: O1_2  and  C2_3 
REMARK    2  A    between atoms: C6_7  and  C7_8 
REMARK    3  A    between atoms: C8_9  and  C9_10 
REMARK       I    between atoms: C9_10  and  N1_12 
REMARK    4  A    between atoms: N1_12  and  C10_13 
REMARK    5  A    between atoms: C15_20  and  N4_21 
ROOT
HETATM    1  C10 UNL     1      28.420   5.668  48.469  1.00  0.00     0.036 A 
HETATM    2  C11 UNL     1      27.675   6.803  48.144  1.00  0.00     0.032 A 
HETATM    3  C12 UNL     1      28.185   7.820  47.365  1.00  0.00     0.035 A 
HETATM    4  C13 UNL     1      29.480   7.751  46.869  1.00  0.00     0.072 A 
HETATM    5  N2  UNL     1      30.035   8.705  46.100  1.00  0.00    -0.241 NA
HETATM    6  C14 UNL     1      31.313   8.514  45.673  1.00  0.00     0.236 A 
HETATM    7  N3  UNL     1      32.026   7.397  46.002  1.00  0.00    -0.223 NA
HETATM    8  C15 UNL     1      31.481   6.417  46.782  1.00  0.00     0.144 A 
HETATM    9  C21 UNL     1      30.186   6.617  47.211  1.00  0.00     0.041 A 
HETATM   10  C22 UNL     1      29.708   5.581  47.985  1.00  0.00     0.047 A 
ENDROOT
BRANCH   1  11
HETATM   11  N1  UNL     1      27.836   4.653  49.276  1.00  0.00    -0.324 N 
HETATM   12  C9  UNL     1      26.470   4.308  49.463  1.00  0.00     0.245 C 
HETATM   13  O2  UNL     1      25.701   5.020  48.811  1.00  0.00    -0.268 OA
HETATM   14  H9  UNL     1      28.625   4.157  49.749  1.00  0.00     0.169 HD
BRANCH  12  15
HETATM   15  C8  UNL     1      26.089   3.229  50.339  1.00  0.00     0.075 C 
HETATM   16  C7  UNL     1      24.899   2.868  50.725  1.00  0.00     0.017 C 
BRANCH  16  17
HETATM   17  C6  UNL     1      24.557   1.772  51.612  1.00  0.00    -0.033 A 
HETATM   18  C5  UNL     1      25.502   1.057  52.308  1.00  0.00     0.011 A 
HETATM   19  C4  UNL     1      25.149   0.005  53.156  1.00  0.00     0.004 A 
HETATM   20  C3  UNL     1      23.824  -0.323  53.297  1.00  0.00     0.037 A 
HETATM   21  C2  UNL     1      22.850   0.388  52.601  1.00  0.00     0.069 A 
HETATM   22  C23 UNL     1      23.238   1.419  51.773  1.00  0.00     0.048 A 
BRANCH  21  23
HETATM   23  O1  UNL     1      21.507   0.071  52.730  1.00  0.00    -0.356 OA
HETATM   24  C1  UNL     1      20.590   0.770  53.534  1.00  0.00     0.210 C 
ENDBRANCH  21  23
ENDBRANCH  16  17
ENDBRANCH  12  15
ENDBRANCH   1  11
BRANCH   8  25
HETATM   25  N4  UNL     1      32.396   5.372  47.018  1.00  0.00    -0.336 N 
HETATM   26  C16 UNL     1      33.417   5.842  47.890  1.00  0.00     0.116 A 
HETATM   27  C17 UNL     1      34.471   5.121  48.310  1.00  0.00     0.049 A 
HETATM   28 CL1  UNL     1      35.750   5.652  49.380  1.00  0.00    -0.083 Cl
HETATM   29  C18 UNL     1      34.610   3.720  47.857  1.00  0.00     0.023 A 
HETATM   30  C19 UNL     1      33.625   3.345  47.058  1.00  0.00    -0.005 A 
HETATM   31  C20 UNL     1      32.420   4.013  46.519  1.00  0.00     0.157 A 
ENDBRANCH   8  25
TORSDOF 5
ENDMDL
