MODEL 1
REMARK VINA RESULT:      -7.4      0.000      0.000
REMARK  5 active torsions:
REMARK  status: ('A' for Active; 'I' for Inactive)
REMARK    1  A    between atoms: O1_2  and  C2_3 
REMARK    2  A    between atoms: C5_6  and  C6_7 
REMARK    3  A    between atoms: C6_7  and  C7_8 
REMARK       I    between atoms: C7_8  and  N1_10 
REMARK    4  A    between atoms: N1_10  and  C8_11 
REMARK    5  A    between atoms: C8_11  and  C9_12 
ROOT
HETATM    1  C7  UNL     1      24.223   2.911  51.315  1.00  0.00     0.221 C 
HETATM    2  O2  UNL     1      23.712   3.832  52.032  1.00  0.00    -0.273 OA
HETATM    3  N1  UNL     1      24.900   1.806  51.897  1.00  0.00    -0.360 N 
HETATM    4  H8  UNL     1      25.254   1.151  51.168  1.00  0.00     0.162 HD
ENDROOT
BRANCH   1   5
HETATM    5  C6  UNL     1      24.043   3.107  49.844  1.00  0.00     0.141 C 
BRANCH   5   6
HETATM    6  C5  UNL     1      25.115   4.044  49.407  1.00  0.00    -0.049 A 
HETATM    7  C4  UNL     1      24.818   5.340  49.034  1.00  0.00     0.010 A 
HETATM    8  C3  UNL     1      25.808   6.215  48.627  1.00  0.00     0.037 A 
HETATM    9  C2  UNL     1      27.109   5.812  48.586  1.00  0.00     0.068 A 
HETATM   10  C15 UNL     1      27.427   4.510  48.958  1.00  0.00     0.037 A 
HETATM   11  C14 UNL     1      26.443   3.624  49.368  1.00  0.00     0.010 A 
BRANCH   9  12
HETATM   12  O1  UNL     1      28.247   6.516  48.215  1.00  0.00    -0.356 OA
HETATM   13  C1  UNL     1      29.481   5.829  48.224  1.00  0.00     0.210 C 
ENDBRANCH   9  12
ENDBRANCH   5   6
ENDBRANCH   1   5
BRANCH   3  14
HETATM   14  C8  UNL     1      24.914   1.888  53.325  1.00  0.00     0.143 C 
BRANCH  14  15
HETATM   15  C9  UNL     1      26.305   1.683  53.886  1.00  0.00     0.130 C 
HETATM   16  C10 UNL     1      27.324   2.298  52.921  1.00  0.00     0.048 C 
HETATM   17  C11 UNL     1      28.691   2.095  53.529  1.00  0.00    -0.028 C 
HETATM   18  C12 UNL     1      29.135   0.893  53.942  1.00  0.00    -0.016 C 
HETATM   19  C13 UNL     1      28.314  -0.340  53.835  1.00  0.00     0.167 C 
HETATM   20  S1  UNL     1      26.596  -0.041  54.059  1.00  0.00     0.153 S 
HETATM   21  O3  UNL     1      25.745  -0.812  53.118  1.00  0.00    -0.227 OA
HETATM   22  O4  UNL     1      26.195  -0.446  55.471  1.00  0.00    -0.227 OA
ENDBRANCH  14  15
ENDBRANCH   3  14
TORSDOF 5
ENDMDL
MODEL 2
REMARK VINA RESULT:      -7.3      3.231      4.207
REMARK  5 active torsions:
REMARK  status: ('A' for Active; 'I' for Inactive)
REMARK    1  A    between atoms: O1_2  and  C2_3 
REMARK    2  A    between atoms: C5_6  and  C6_7 
REMARK    3  A    between atoms: C6_7  and  C7_8 
REMARK       I    between atoms: C7_8  and  N1_10 
REMARK    4  A    between atoms: N1_10  and  C8_11 
REMARK    5  A    between atoms: C8_11  and  C9_12 
ROOT
HETATM    1  C7  UNL     1      23.732   0.983  52.620  1.00  0.00     0.221 C 
HETATM    2  O2  UNL     1      23.153  -0.010  53.170  1.00  0.00    -0.273 OA
HETATM    3  N1  UNL     1      25.120   0.960  52.319  1.00  0.00    -0.360 N 
HETATM    4  H8  UNL     1      25.427   1.851  51.873  1.00  0.00     0.162 HD
ENDROOT
BRANCH   1   5
HETATM    5  C6  UNL     1      22.829   2.139  52.333  1.00  0.00     0.141 C 
BRANCH   5   6
HETATM    6  C5  UNL     1      22.665   2.191  50.854  1.00  0.00    -0.049 A 
HETATM    7  C4  UNL     1      21.850   1.290  50.196  1.00  0.00     0.010 A 
HETATM    8  C3  UNL     1      21.694   1.333  48.823  1.00  0.00     0.037 A 
HETATM    9  C2  UNL     1      22.347   2.274  48.084  1.00  0.00     0.068 A 
HETATM   10  C15 UNL     1      23.172   3.189  48.730  1.00  0.00     0.037 A 
HETATM   11  C14 UNL     1      23.337   3.156  50.105  1.00  0.00     0.010 A 
BRANCH   9  12
HETATM   12  O1  UNL     1      22.334   2.495  46.713  1.00  0.00    -0.356 OA
HETATM   13  C1  UNL     1      21.847   3.737  46.250  1.00  0.00     0.210 C 
ENDBRANCH   9  12
ENDBRANCH   5   6
ENDBRANCH   1   5
BRANCH   3  14
HETATM   14  C8  UNL     1      25.724  -0.278  52.707  1.00  0.00     0.143 C 
BRANCH  14  15
HETATM   15  C9  UNL     1      27.234  -0.211  52.638  1.00  0.00     0.130 C 
HETATM   16  C10 UNL     1      27.815  -1.490  53.250  1.00  0.00     0.048 C 
HETATM   17  C11 UNL     1      29.318  -1.395  53.138  1.00  0.00    -0.028 C 
HETATM   18  C12 UNL     1      30.016  -0.331  53.578  1.00  0.00    -0.016 C 
HETATM   19  C13 UNL     1      29.365   0.843  54.214  1.00  0.00     0.167 C 
HETATM   20  S1  UNL     1      27.780   1.195  53.539  1.00  0.00     0.153 S 
HETATM   21  O3  UNL     1      26.782   1.575  54.571  1.00  0.00    -0.227 OA
HETATM   22  O4  UNL     1      27.894   2.361  52.567  1.00  0.00    -0.227 OA
ENDBRANCH  14  15
ENDBRANCH   3  14
TORSDOF 5
ENDMDL
MODEL 3
REMARK VINA RESULT:      -7.2      1.526      1.918
REMARK  5 active torsions:
REMARK  status: ('A' for Active; 'I' for Inactive)
REMARK    1  A    between atoms: O1_2  and  C2_3 
REMARK    2  A    between atoms: C5_6  and  C6_7 
REMARK    3  A    between atoms: C6_7  and  C7_8 
REMARK       I    between atoms: C7_8  and  N1_10 
REMARK    4  A    between atoms: N1_10  and  C8_11 
REMARK    5  A    between atoms: C8_11  and  C9_12 
ROOT
HETATM    1  C7  UNL     1      24.174   3.081  51.046  1.00  0.00     0.221 C 
HETATM    2  O2  UNL     1      24.319   3.773  52.106  1.00  0.00    -0.273 OA
HETATM    3  N1  UNL     1      24.391   1.678  51.038  1.00  0.00    -0.360 N 
HETATM    4  H8  UNL     1      24.227   1.273  50.092  1.00  0.00     0.162 HD
ENDROOT
BRANCH   1   5
HETATM    5  C6  UNL     1      23.765   3.875  49.847  1.00  0.00     0.141 C 
BRANCH   5   6
HETATM    6  C5  UNL     1      24.984   4.588  49.375  1.00  0.00    -0.049 A 
HETATM    7  C4  UNL     1      24.923   5.904  48.961  1.00  0.00     0.010 A 
HETATM    8  C3  UNL     1      26.052   6.572  48.521  1.00  0.00     0.037 A 
HETATM    9  C2  UNL     1      27.257   5.938  48.488  1.00  0.00     0.068 A 
HETATM   10  C15 UNL     1      27.338   4.612  48.900  1.00  0.00     0.037 A 
HETATM   11  C14 UNL     1      26.214   3.932  49.343  1.00  0.00     0.010 A 
BRANCH   9  12
HETATM   12  O1  UNL     1      28.501   6.411  48.088  1.00  0.00    -0.356 OA
HETATM   13  C1  UNL     1      29.592   5.516  48.128  1.00  0.00     0.210 C 
ENDBRANCH   9  12
ENDBRANCH   5   6
ENDBRANCH   1   5
BRANCH   3  14
HETATM   14  C8  UNL     1      24.772   1.195  52.330  1.00  0.00     0.143 C 
BRANCH  14  15
HETATM   15  C9  UNL     1      26.137   0.543  52.306  1.00  0.00     0.130 C 
HETATM   16  C10 UNL     1      26.032  -0.851  52.934  1.00  0.00     0.048 C 
HETATM   17  C11 UNL     1      27.405  -1.475  52.866  1.00  0.00    -0.028 C 
HETATM   18  C12 UNL     1      28.510  -0.858  53.326  1.00  0.00    -0.016 C 
HETATM   19  C13 UNL     1      28.472   0.492  53.944  1.00  0.00     0.167 C 
HETATM   20  S1  UNL     1      27.257   1.539  53.224  1.00  0.00     0.153 S 
HETATM   21  O3  UNL     1      26.528   2.357  54.225  1.00  0.00    -0.227 OA
HETATM   22  O4  UNL     1      27.931   2.502  52.256  1.00  0.00    -0.227 OA
ENDBRANCH  14  15
ENDBRANCH   3  14
TORSDOF 5
ENDMDL
MODEL 4
REMARK VINA RESULT:      -7.0      2.528      6.595
REMARK  5 active torsions:
REMARK  status: ('A' for Active; 'I' for Inactive)
REMARK    1  A    between atoms: O1_2  and  C2_3 
REMARK    2  A    between atoms: C5_6  and  C6_7 
REMARK    3  A    between atoms: C6_7  and  C7_8 
REMARK       I    between atoms: C7_8  and  N1_10 
REMARK    4  A    between atoms: N1_10  and  C8_11 
REMARK    5  A    between atoms: C8_11  and  C9_12 
ROOT
HETATM    1  C7  UNL     1      24.276   3.288  52.031  1.00  0.00     0.221 C 
HETATM    2  O2  UNL     1      23.094   3.028  51.633  1.00  0.00    -0.273 OA
HETATM    3  N1  UNL     1      25.208   3.965  51.200  1.00  0.00    -0.360 N 
HETATM    4  H8  UNL     1      26.123   4.095  51.682  1.00  0.00     0.162 HD
ENDROOT
BRANCH   1   5
HETATM    5  C6  UNL     1      24.574   2.821  53.420  1.00  0.00     0.141 C 
BRANCH   5   6
HETATM    6  C5  UNL     1      25.595   1.745  53.295  1.00  0.00    -0.049 A 
HETATM    7  C4  UNL     1      25.241   0.468  52.905  1.00  0.00     0.010 A 
HETATM    8  C3  UNL     1      26.185  -0.536  52.788  1.00  0.00     0.037 A 
HETATM    9  C2  UNL     1      27.497  -0.282  53.056  1.00  0.00     0.068 A 
HETATM   10  C15 UNL     1      27.872   0.998  53.451  1.00  0.00     0.037 A 
HETATM   11  C14 UNL     1      26.935   2.012  53.572  1.00  0.00     0.010 A 
BRANCH   9  12
HETATM   12  O1  UNL     1      28.596  -1.130  53.003  1.00  0.00    -0.356 OA
HETATM   13  C1  UNL     1      29.737  -0.779  53.757  1.00  0.00     0.210 C 
ENDBRANCH   9  12
ENDBRANCH   5   6
ENDBRANCH   1   5
BRANCH   3  14
HETATM   14  C8  UNL     1      24.642   4.289  49.927  1.00  0.00     0.143 C 
BRANCH  14  15
HETATM   15  C9  UNL     1      25.647   4.967  49.021  1.00  0.00     0.130 C 
HETATM   16  C10 UNL     1      27.046   4.433  49.345  1.00  0.00     0.048 C 
HETATM   17  C11 UNL     1      28.011   5.114  48.405  1.00  0.00    -0.028 C 
HETATM   18  C12 UNL     1      28.065   6.451  48.258  1.00  0.00    -0.016 C 
HETATM   19  C13 UNL     1      27.178   7.374  49.012  1.00  0.00     0.167 C 
HETATM   20  S1  UNL     1      25.579   6.701  49.300  1.00  0.00     0.153 S 
HETATM   21  O3  UNL     1      25.064   6.992  50.662  1.00  0.00    -0.227 OA
HETATM   22  O4  UNL     1      24.594   7.299  48.305  1.00  0.00    -0.227 OA
ENDBRANCH  14  15
ENDBRANCH   3  14
TORSDOF 5
ENDMDL
MODEL 5
REMARK VINA RESULT:      -7.0      2.107      3.540
REMARK  5 active torsions:
REMARK  status: ('A' for Active; 'I' for Inactive)
REMARK    1  A    between atoms: O1_2  and  C2_3 
REMARK    2  A    between atoms: C5_6  and  C6_7 
REMARK    3  A    between atoms: C6_7  and  C7_8 
REMARK       I    between atoms: C7_8  and  N1_10 
REMARK    4  A    between atoms: N1_10  and  C8_11 
REMARK    5  A    between atoms: C8_11  and  C9_12 
ROOT
HETATM    1  C7  UNL     1      23.659   0.151  53.193  1.00  0.00     0.221 C 
HETATM    2  O2  UNL     1      23.358  -0.822  53.958  1.00  0.00    -0.273 OA
HETATM    3  N1  UNL     1      24.957   0.284  52.633  1.00  0.00    -0.360 N 
HETATM    4  H8  UNL     1      25.028   1.134  52.034  1.00  0.00     0.162 HD
ENDROOT
BRANCH   1   5
HETATM    5  C6  UNL     1      22.539   1.112  52.954  1.00  0.00     0.141 C 
BRANCH   5   6
HETATM    6  C5  UNL     1      23.025   2.084  51.935  1.00  0.00    -0.049 A 
HETATM    7  C4  UNL     1      22.823   1.862  50.587  1.00  0.00     0.010 A 
HETATM    8  C3  UNL     1      23.273   2.760  49.636  1.00  0.00     0.037 A 
HETATM    9  C2  UNL     1      23.930   3.893  50.015  1.00  0.00     0.068 A 
HETATM   10  C15 UNL     1      24.142   4.132  51.369  1.00  0.00     0.037 A 
HETATM   11  C14 UNL     1      23.696   3.239  52.330  1.00  0.00     0.010 A 
BRANCH   9  12
HETATM   12  O1  UNL     1      24.459   4.916  49.239  1.00  0.00    -0.356 OA
HETATM   13  C1  UNL     1      25.863   5.050  49.192  1.00  0.00     0.210 C 
ENDBRANCH   9  12
ENDBRANCH   5   6
ENDBRANCH   1   5
BRANCH   3  14
HETATM   14  C8  UNL     1      25.818  -0.785  53.038  1.00  0.00     0.143 C 
BRANCH  14  15
HETATM   15  C9  UNL     1      27.278  -0.428  52.859  1.00  0.00     0.130 C 
HETATM   16  C10 UNL     1      28.138  -1.549  53.452  1.00  0.00     0.048 C 
HETATM   17  C11 UNL     1      29.582  -1.167  53.231  1.00  0.00    -0.028 C 
HETATM   18  C12 UNL     1      30.085   0.026  53.599  1.00  0.00    -0.016 C 
HETATM   19  C13 UNL     1      29.261   1.071  54.258  1.00  0.00     0.167 C 
HETATM   20  S1  UNL     1      27.596   1.086  53.693  1.00  0.00     0.153 S 
HETATM   21  O3  UNL     1      26.614   1.298  54.786  1.00  0.00    -0.227 OA
HETATM   22  O4  UNL     1      27.414   2.220  52.693  1.00  0.00    -0.227 OA
ENDBRANCH  14  15
ENDBRANCH   3  14
TORSDOF 5
ENDMDL
MODEL 6
REMARK VINA RESULT:      -6.8      2.612      6.448
REMARK  5 active torsions:
REMARK  status: ('A' for Active; 'I' for Inactive)
REMARK    1  A    between atoms: O1_2  and  C2_3 
REMARK    2  A    between atoms: C5_6  and  C6_7 
REMARK    3  A    between atoms: C6_7  and  C7_8 
REMARK       I    between atoms: C7_8  and  N1_10 
REMARK    4  A    between atoms: N1_10  and  C8_11 
REMARK    5  A    between atoms: C8_11  and  C9_12 
ROOT
HETATM    1  C7  UNL     1      23.568   1.635  52.265  1.00  0.00     0.221 C 
HETATM    2  O2  UNL     1      23.644   2.625  53.063  1.00  0.00    -0.273 OA
HETATM    3  N1  UNL     1      23.404   1.818  50.866  1.00  0.00    -0.360 N 
HETATM    4  H8  UNL     1      23.362   0.905  50.366  1.00  0.00     0.162 HD
ENDROOT
BRANCH   1   5
HETATM    5  C6  UNL     1      23.666   0.300  52.932  1.00  0.00     0.141 C 
BRANCH   5   6
HETATM    6  C5  UNL     1      25.101   0.103  53.277  1.00  0.00    -0.049 A 
HETATM    7  C4  UNL     1      26.040  -0.154  52.297  1.00  0.00     0.010 A 
HETATM    8  C3  UNL     1      27.374  -0.338  52.612  1.00  0.00     0.037 A 
HETATM    9  C2  UNL     1      27.792  -0.268  53.907  1.00  0.00     0.068 A 
HETATM   10  C15 UNL     1      26.860  -0.010  54.907  1.00  0.00     0.037 A 
HETATM   11  C14 UNL     1      25.521   0.176  54.604  1.00  0.00     0.010 A 
BRANCH   9  12
HETATM   12  O1  UNL     1      29.066  -0.419  54.440  1.00  0.00    -0.356 OA
HETATM   13  C1  UNL     1      30.148  -0.542  53.541  1.00  0.00     0.210 C 
ENDBRANCH   9  12
ENDBRANCH   5   6
ENDBRANCH   1   5
BRANCH   3  14
HETATM   14  C8  UNL     1      23.343   3.205  50.519  1.00  0.00     0.143 C 
BRANCH  14  15
HETATM   15  C9  UNL     1      24.490   3.610  49.619  1.00  0.00     0.130 C 
HETATM   16  C10 UNL     1      25.810   3.219  50.291  1.00  0.00     0.048 C 
HETATM   17  C11 UNL     1      26.923   3.615  49.351  1.00  0.00    -0.028 C 
HETATM   18  C12 UNL     1      27.034   4.853  48.834  1.00  0.00    -0.016 C 
HETATM   19  C13 UNL     1      26.068   5.938  49.145  1.00  0.00     0.167 C 
HETATM   20  S1  UNL     1      24.427   5.348  49.371  1.00  0.00     0.153 S 
HETATM   21  O3  UNL     1      23.722   6.012  50.497  1.00  0.00    -0.227 OA
HETATM   22  O4  UNL     1      23.619   5.614  48.109  1.00  0.00    -0.227 OA
ENDBRANCH  14  15
ENDBRANCH   3  14
TORSDOF 5
ENDMDL
MODEL 7
REMARK VINA RESULT:      -6.7      3.937      6.757
REMARK  5 active torsions:
REMARK  status: ('A' for Active; 'I' for Inactive)
REMARK    1  A    between atoms: O1_2  and  C2_3 
REMARK    2  A    between atoms: C5_6  and  C6_7 
REMARK    3  A    between atoms: C6_7  and  C7_8 
REMARK       I    between atoms: C7_8  and  N1_10 
REMARK    4  A    between atoms: N1_10  and  C8_11 
REMARK    5  A    between atoms: C8_11  and  C9_12 
ROOT
HETATM    1  C7  UNL     1      22.980   1.885  52.102  1.00  0.00     0.221 C 
HETATM    2  O2  UNL     1      23.125   1.361  50.950  1.00  0.00    -0.273 OA
HETATM    3  N1  UNL     1      24.051   1.940  53.033  1.00  0.00    -0.360 N 
HETATM    4  H8  UNL     1      23.759   2.401  53.921  1.00  0.00     0.162 HD
ENDROOT
BRANCH   1   5
HETATM    5  C6  UNL     1      21.610   2.420  52.365  1.00  0.00     0.141 C 
BRANCH   5   6
HETATM    6  C5  UNL     1      20.750   1.246  52.680  1.00  0.00    -0.049 A 
HETATM    7  C4  UNL     1      19.614   0.978  51.942  1.00  0.00     0.010 A 
HETATM    8  C3  UNL     1      18.811  -0.111  52.230  1.00  0.00     0.037 A 
HETATM    9  C2  UNL     1      19.129  -0.949  53.256  1.00  0.00     0.068 A 
HETATM   10  C15 UNL     1      20.269  -0.694  54.011  1.00  0.00     0.037 A 
HETATM   11  C14 UNL     1      21.081   0.394  53.732  1.00  0.00     0.010 A 
BRANCH   9  12
HETATM   12  O1  UNL     1      18.473  -2.085  53.713  1.00  0.00    -0.356 OA
HETATM   13  C1  UNL     1      17.197  -2.369  53.181  1.00  0.00     0.210 C 
ENDBRANCH   9  12
ENDBRANCH   5   6
ENDBRANCH   1   5
BRANCH   3  14
HETATM   14  C8  UNL     1      25.243   1.351  52.503  1.00  0.00     0.143 C 
BRANCH  14  15
HETATM   15  C9  UNL     1      26.419   1.523  53.440  1.00  0.00     0.130 C 
HETATM   16  C10 UNL     1      27.563   2.202  52.679  1.00  0.00     0.048 C 
HETATM   17  C11 UNL     1      28.703   2.378  53.653  1.00  0.00    -0.028 C 
HETATM   18  C12 UNL     1      29.195   1.364  54.390  1.00  0.00    -0.016 C 
HETATM   19  C13 UNL     1      28.657  -0.017  54.307  1.00  0.00     0.167 C 
HETATM   20  S1  UNL     1      26.925  -0.061  54.008  1.00  0.00     0.153 S 
HETATM   21  O3  UNL     1      26.528  -1.115  53.041  1.00  0.00    -0.227 OA
HETATM   22  O4  UNL     1      26.196  -0.346  55.315  1.00  0.00    -0.227 OA
ENDBRANCH  14  15
ENDBRANCH   3  14
TORSDOF 5
ENDMDL
MODEL 8
REMARK VINA RESULT:      -6.7      2.781      3.874
REMARK  5 active torsions:
REMARK  status: ('A' for Active; 'I' for Inactive)
REMARK    1  A    between atoms: O1_2  and  C2_3 
REMARK    2  A    between atoms: C5_6  and  C6_7 
REMARK    3  A    between atoms: C6_7  and  C7_8 
REMARK       I    between atoms: C7_8  and  N1_10 
REMARK    4  A    between atoms: N1_10  and  C8_11 
REMARK    5  A    between atoms: C8_11  and  C9_12 
ROOT
HETATM    1  C7  UNL     1      25.884   3.889  49.908  1.00  0.00     0.221 C 
HETATM    2  O2  UNL     1      24.959   3.228  49.333  1.00  0.00    -0.273 OA
HETATM    3  N1  UNL     1      26.457   3.455  51.133  1.00  0.00    -0.360 N 
HETATM    4  H8  UNL     1      27.197   4.112  51.460  1.00  0.00     0.162 HD
ENDROOT
BRANCH   1   5
HETATM    5  C6  UNL     1      26.292   5.131  49.183  1.00  0.00     0.141 C 
BRANCH   5   6
HETATM    6  C5  UNL     1      25.184   6.110  49.363  1.00  0.00    -0.049 A 
HETATM    7  C4  UNL     1      24.997   6.759  50.568  1.00  0.00     0.010 A 
HETATM    8  C3  UNL     1      23.970   7.668  50.742  1.00  0.00     0.037 A 
HETATM    9  C2  UNL     1      23.114   7.945  49.718  1.00  0.00     0.068 A 
HETATM   10  C15 UNL     1      23.287   7.301  48.498  1.00  0.00     0.037 A 
HETATM   11  C14 UNL     1      24.313   6.388  48.311  1.00  0.00     0.010 A 
BRANCH   9  12
HETATM   12  O1  UNL     1      22.030   8.812  49.675  1.00  0.00    -0.356 OA
HETATM   13  C1  UNL     1      20.735   8.255  49.750  1.00  0.00     0.210 C 
ENDBRANCH   9  12
ENDBRANCH   5   6
ENDBRANCH   1   5
BRANCH   3  14
HETATM   14  C8  UNL     1      25.867   2.234  51.588  1.00  0.00     0.143 C 
BRANCH  14  15
HETATM   15  C9  UNL     1      26.916   1.215  51.980  1.00  0.00     0.130 C 
HETATM   16  C10 UNL     1      26.235  -0.140  52.195  1.00  0.00     0.048 C 
HETATM   17  C11 UNL     1      27.316  -1.129  52.557  1.00  0.00    -0.028 C 
HETATM   18  C12 UNL     1      28.202  -0.912  53.547  1.00  0.00    -0.016 C 
HETATM   19  C13 UNL     1      28.190   0.324  54.370  1.00  0.00     0.167 C 
HETATM   20  S1  UNL     1      27.693   1.746  53.464  1.00  0.00     0.153 S 
HETATM   21  O3  UNL     1      26.793   2.641  54.234  1.00  0.00    -0.227 OA
HETATM   22  O4  UNL     1      28.925   2.557  53.085  1.00  0.00    -0.227 OA
ENDBRANCH  14  15
ENDBRANCH   3  14
TORSDOF 5
ENDMDL
MODEL 9
REMARK VINA RESULT:      -6.3      2.420      4.598
REMARK  5 active torsions:
REMARK  status: ('A' for Active; 'I' for Inactive)
REMARK    1  A    between atoms: O1_2  and  C2_3 
REMARK    2  A    between atoms: C5_6  and  C6_7 
REMARK    3  A    between atoms: C6_7  and  C7_8 
REMARK       I    between atoms: C7_8  and  N1_10 
REMARK    4  A    between atoms: N1_10  and  C8_11 
REMARK    5  A    between atoms: C8_11  and  C9_12 
ROOT
HETATM    1  C7  UNL     1      26.213   3.424  50.222  1.00  0.00     0.221 C 
HETATM    2  O2  UNL     1      27.003   2.743  49.491  1.00  0.00    -0.273 OA
HETATM    3  N1  UNL     1      26.045   3.138  51.603  1.00  0.00    -0.360 N 
HETATM    4  H8  UNL     1      25.365   3.791  52.047  1.00  0.00     0.162 HD
ENDROOT
BRANCH   1   5
HETATM    5  C6  UNL     1      25.501   4.523  49.499  1.00  0.00     0.141 C 
BRANCH   5   6
HETATM    6  C5  UNL     1      24.046   4.225  49.604  1.00  0.00    -0.049 A 
HETATM    7  C4  UNL     1      23.511   3.084  49.041  1.00  0.00     0.010 A 
HETATM    8  C3  UNL     1      22.160   2.802  49.134  1.00  0.00     0.037 A 
HETATM    9  C2  UNL     1      21.323   3.654  49.791  1.00  0.00     0.068 A 
HETATM   10  C15 UNL     1      21.844   4.809  50.364  1.00  0.00     0.037 A 
HETATM   11  C14 UNL     1      23.196   5.101  50.277  1.00  0.00     0.010 A 
BRANCH   9  12
HETATM   12  O1  UNL     1      19.953   3.567  50.002  1.00  0.00    -0.356 OA
HETATM   13  C1  UNL     1      19.462   3.882  51.288  1.00  0.00     0.210 C 
ENDBRANCH   9  12
ENDBRANCH   5   6
ENDBRANCH   1   5
BRANCH   3  14
HETATM   14  C8  UNL     1      26.855   2.033  52.015  1.00  0.00     0.143 C 
BRANCH  14  15
HETATM   15  C9  UNL     1      26.016   0.846  52.433  1.00  0.00     0.130 C 
HETATM   16  C10 UNL     1      24.570   1.309  52.639  1.00  0.00     0.048 C 
HETATM   17  C11 UNL     1      23.764   0.093  53.028  1.00  0.00    -0.028 C 
HETATM   18  C12 UNL     1      24.120  -0.726  54.036  1.00  0.00    -0.016 C 
HETATM   19  C13 UNL     1      25.339  -0.501  54.854  1.00  0.00     0.167 C 
HETATM   20  S1  UNL     1      26.664   0.194  53.931  1.00  0.00     0.153 S 
HETATM   21  O3  UNL     1      27.406   1.241  54.678  1.00  0.00    -0.227 OA
HETATM   22  O4  UNL     1      27.659  -0.902  53.575  1.00  0.00    -0.227 OA
ENDBRANCH  14  15
ENDBRANCH   3  14
TORSDOF 5
ENDMDL
