MODEL 1
REMARK VINA RESULT:      -8.5      0.000      0.000
REMARK  4 active torsions:
REMARK  status: ('A' for Active; 'I' for Inactive)
REMARK    1  A    between atoms: N1_2  and  C2_3 
REMARK    2  A    between atoms: C2_3  and  N3_8 
REMARK    3  A    between atoms: C3_4  and  N2_5 
REMARK    4  A    between atoms: N3_8  and  C6_9 
ROOT
HETATM    1  C6  UNL     1      20.083   1.690  50.643  1.00  0.00     0.074 C 
HETATM    2  C7  UNL     1      20.163   3.012  51.119  1.00  0.00     0.011 C 
HETATM    3  C8  UNL     1      19.195   4.155  50.801  1.00  0.00     0.131 C 
HETATM    4  N4  UNL     1      18.654   4.290  49.569  1.00  0.00    -0.253 NA
HETATM    5  C9  UNL     1      19.334   3.747  48.357  1.00  0.00     0.233 C 
HETATM    6  N5  UNL     1      20.238   2.718  48.242  1.00  0.00    -0.240 NA
HETATM    7  C10 UNL     1      20.940   2.171  49.437  1.00  0.00     0.083 C 
HETATM    8  C11 UNL     1      22.316   2.240  49.325  1.00  0.00     0.021 C 
HETATM    9  C12 UNL     1      23.177   2.409  50.575  1.00  0.00     0.077 C 
HETATM   10  C13 UNL     1      22.554   3.349  51.588  1.00  0.00    -0.045 C 
HETATM   11  C14 UNL     1      21.260   3.674  51.959  1.00  0.00     0.023 C 
HETATM   12  C15 UNL     1      23.231   4.283  52.498  1.00  0.00     0.006 C 
HETATM   13  C16 UNL     1      24.205   4.111  53.410  1.00  0.00     0.003 C 
HETATM   14  C17 UNL     1      24.623   2.711  53.468  1.00  0.00     0.237 C 
HETATM   15  O1  UNL     1      25.983   2.573  53.131  1.00  0.00    -0.237 OA
HETATM   16  O2  UNL     1      25.955   1.517  52.291  1.00  0.00    -0.236 OA
HETATM   17  C18 UNL     1      26.421   1.822  51.038  1.00  0.00     0.249 C 
HETATM   18  C19 UNL     1      25.701   2.901  50.328  1.00  0.00    -0.024 A 
HETATM   19  C20 UNL     1      26.578   3.837  49.758  1.00  0.00     0.010 A 
HETATM   20  C21 UNL     1      26.244   4.961  49.032  1.00  0.00     0.001 A 
HETATM   21  C22 UNL     1      24.897   5.193  48.843  1.00  0.00     0.001 A 
HETATM   22  C23 UNL     1      24.013   4.265  49.408  1.00  0.00     0.009 A 
HETATM   23  C24 UNL     1      24.383   3.145  50.133  1.00  0.00    -0.037 A 
ENDROOT
BRANCH   1  24
HETATM   24  N3  UNL     1      19.460   0.410  51.088  1.00  0.00    -0.339 N 
HETATM   25  H10 UNL     1      18.721   0.049  50.437  1.00  0.00     0.167 HD
BRANCH  24  26
HETATM   26  C2  UNL     1      19.965  -0.121  52.325  1.00  0.00     0.116 C 
HETATM   27  C3  UNL     1      21.302  -0.101  52.453  1.00  0.00     0.134 C 
BRANCH  26  28
HETATM   28  N1  UNL     1      19.250  -0.661  53.426  1.00  0.00    -0.380 N 
HETATM   29  C1  UNL     1      17.947  -1.247  53.171  1.00  0.00     0.147 C 
HETATM   30  H4  UNL     1      19.635  -0.645  54.393  1.00  0.00     0.160 HD
ENDBRANCH  26  28
BRANCH  27  31
HETATM   31  N2  UNL     1      21.922  -0.602  53.640  1.00  0.00    -0.384 N 
HETATM   32  C4  UNL     1      22.110  -1.191  54.997  1.00  0.00     0.142 A 
HETATM   33  C5  UNL     1      23.272  -0.794  54.165  1.00  0.00     0.142 A 
ENDBRANCH  27  31
ENDBRANCH  24  26
ENDBRANCH   1  24
TORSDOF 4
ENDMDL
MODEL 2
REMARK VINA RESULT:      -8.2      4.815      8.528
REMARK  4 active torsions:
REMARK  status: ('A' for Active; 'I' for Inactive)
REMARK    1  A    between atoms: N1_2  and  C2_3 
REMARK    2  A    between atoms: C2_3  and  N3_8 
REMARK    3  A    between atoms: C3_4  and  N2_5 
REMARK    4  A    between atoms: N3_8  and  C6_9 
ROOT
HETATM    1  C6  UNL     1      26.122   7.761  49.969  1.00  0.00     0.074 C 
HETATM    2  C7  UNL     1      26.356   6.874  48.902  1.00  0.00     0.011 C 
HETATM    3  C8  UNL     1      26.322   7.214  47.409  1.00  0.00     0.131 C 
HETATM    4  N4  UNL     1      25.411   8.080  46.911  1.00  0.00    -0.253 NA
HETATM    5  C9  UNL     1      24.104   8.313  47.593  1.00  0.00     0.233 C 
HETATM    6  N5  UNL     1      23.759   8.147  48.914  1.00  0.00    -0.240 NA
HETATM    7  C10 UNL     1      24.622   7.367  49.844  1.00  0.00     0.083 C 
HETATM    8  C11 UNL     1      23.952   6.312  50.435  1.00  0.00     0.021 C 
HETATM    9  C12 UNL     1      24.712   5.046  50.824  1.00  0.00     0.077 C 
HETATM   10  C13 UNL     1      25.766   4.663  49.804  1.00  0.00    -0.045 C 
HETATM   11  C14 UNL     1      26.588   5.360  48.935  1.00  0.00     0.023 C 
HETATM   12  C15 UNL     1      26.198   3.317  49.406  1.00  0.00     0.006 C 
HETATM   13  C16 UNL     1      26.648   2.265  50.113  1.00  0.00     0.003 C 
HETATM   14  C17 UNL     1      26.703   2.581  51.539  1.00  0.00     0.237 C 
HETATM   15  O1  UNL     1      25.861   1.731  52.281  1.00  0.00    -0.237 OA
HETATM   16  O2  UNL     1      25.244   2.602  53.106  1.00  0.00    -0.236 OA
HETATM   17  C18 UNL     1      23.882   2.615  52.941  1.00  0.00     0.249 C 
HETATM   18  C19 UNL     1      23.399   2.955  51.586  1.00  0.00    -0.024 A 
HETATM   19  C20 UNL     1      22.410   2.066  51.137  1.00  0.00     0.010 A 
HETATM   20  C21 UNL     1      21.751   2.092  49.926  1.00  0.00     0.001 A 
HETATM   21  C22 UNL     1      22.100   3.105  49.058  1.00  0.00     0.001 A 
HETATM   22  C23 UNL     1      23.085   3.999  49.496  1.00  0.00     0.009 A 
HETATM   23  C24 UNL     1      23.729   3.943  50.721  1.00  0.00    -0.037 A 
ENDROOT
BRANCH   1  24
HETATM   24  N3  UNL     1      26.936   8.669  50.827  1.00  0.00    -0.339 N 
HETATM   25  H10 UNL     1      26.741   8.573  51.852  1.00  0.00     0.167 HD
BRANCH  24  26
HETATM   26  C2  UNL     1      27.852   9.523  50.119  1.00  0.00     0.116 C 
HETATM   27  C3  UNL     1      27.281  10.502  49.397  1.00  0.00     0.134 C 
BRANCH  26  28
HETATM   28  N1  UNL     1      29.270   9.477  50.078  1.00  0.00    -0.380 N 
HETATM   29  C1  UNL     1      29.894   8.589  49.114  1.00  0.00     0.147 C 
HETATM   30  H4  UNL     1      29.858  10.055  50.712  1.00  0.00     0.160 HD
ENDBRANCH  26  28
BRANCH  27  31
HETATM   31  N2  UNL     1      28.088  11.415  48.651  1.00  0.00    -0.384 N 
HETATM   32  C4  UNL     1      28.895  12.015  47.550  1.00  0.00     0.142 A 
HETATM   33  C5  UNL     1      28.687  12.736  48.830  1.00  0.00     0.142 A 
ENDBRANCH  27  31
ENDBRANCH  24  26
ENDBRANCH   1  24
TORSDOF 4
ENDMDL
MODEL 3
REMARK VINA RESULT:      -8.1      2.607      4.916
REMARK  4 active torsions:
REMARK  status: ('A' for Active; 'I' for Inactive)
REMARK    1  A    between atoms: N1_2  and  C2_3 
REMARK    2  A    between atoms: C2_3  and  N3_8 
REMARK    3  A    between atoms: C3_4  and  N2_5 
REMARK    4  A    between atoms: N3_8  and  C6_9 
ROOT
HETATM    1  C6  UNL     1      23.999   3.081  49.713  1.00  0.00     0.074 C 
HETATM    2  C7  UNL     1      23.845   3.584  51.019  1.00  0.00     0.011 C 
HETATM    3  C8  UNL     1      23.660   5.052  51.414  1.00  0.00     0.131 C 
HETATM    4  N4  UNL     1      24.323   6.038  50.768  1.00  0.00    -0.253 NA
HETATM    5  C9  UNL     1      25.616   5.779  50.070  1.00  0.00     0.233 C 
HETATM    6  N5  UNL     1      26.117   4.609  49.551  1.00  0.00    -0.240 NA
HETATM    7  C10 UNL     1      25.527   3.290  49.914  1.00  0.00     0.083 C 
HETATM    8  C11 UNL     1      26.453   2.426  50.470  1.00  0.00     0.021 C 
HETATM    9  C12 UNL     1      26.009   1.387  51.496  1.00  0.00     0.077 C 
HETATM   10  C13 UNL     1      24.959   1.922  52.449  1.00  0.00    -0.045 C 
HETATM   11  C14 UNL     1      23.930   2.844  52.357  1.00  0.00     0.023 C 
HETATM   12  C15 UNL     1      24.772   1.599  53.870  1.00  0.00     0.006 C 
HETATM   13  C16 UNL     1      24.618   0.431  54.519  1.00  0.00     0.003 C 
HETATM   14  C17 UNL     1      24.642  -0.692  53.584  1.00  0.00     0.237 C 
HETATM   15  O1  UNL     1      25.709  -1.566  53.867  1.00  0.00    -0.237 OA
HETATM   16  O2  UNL     1      26.215  -1.794  52.637  1.00  0.00    -0.236 OA
HETATM   17  C18 UNL     1      27.523  -1.395  52.519  1.00  0.00     0.249 C 
HETATM   18  C19 UNL     1      27.789   0.033  52.791  1.00  0.00    -0.024 A 
HETATM   19  C20 UNL     1      28.888   0.214  53.645  1.00  0.00     0.010 A 
HETATM   20  C21 UNL     1      29.404   1.410  54.099  1.00  0.00     0.001 A 
HETATM   21  C22 UNL     1      28.772   2.557  53.666  1.00  0.00     0.001 A 
HETATM   22  C23 UNL     1      27.674   2.388  52.813  1.00  0.00     0.009 A 
HETATM   23  C24 UNL     1      27.180   1.170  52.376  1.00  0.00    -0.037 A 
ENDROOT
BRANCH   1  24
HETATM   24  N3  UNL     1      23.106   2.580  48.629  1.00  0.00    -0.339 N 
HETATM   25  H10 UNL     1      23.595   2.425  47.714  1.00  0.00     0.167 HD
BRANCH  24  26
HETATM   26  C2  UNL     1      21.731   2.392  49.004  1.00  0.00     0.116 C 
HETATM   27  C3  UNL     1      21.476   1.271  49.700  1.00  0.00     0.134 C 
BRANCH  26  28
HETATM   28  N1  UNL     1      20.610   3.222  48.743  1.00  0.00    -0.380 N 
HETATM   29  C1  UNL     1      20.141   3.324  47.374  1.00  0.00     0.147 C 
HETATM   30  H4  UNL     1      20.127   3.748  49.500  1.00  0.00     0.160 HD
ENDBRANCH  26  28
BRANCH  27  31
HETATM   31  N2  UNL     1      20.145   0.974  50.129  1.00  0.00    -0.384 N 
HETATM   32  C4  UNL     1      18.672   0.743  50.113  1.00  0.00     0.142 A 
HETATM   33  C5  UNL     1      19.455   0.617  51.367  1.00  0.00     0.142 A 
ENDBRANCH  27  31
ENDBRANCH  24  26
ENDBRANCH   1  24
TORSDOF 4
ENDMDL
MODEL 4
REMARK VINA RESULT:      -8.1      3.383      4.967
REMARK  4 active torsions:
REMARK  status: ('A' for Active; 'I' for Inactive)
REMARK    1  A    between atoms: N1_2  and  C2_3 
REMARK    2  A    between atoms: C2_3  and  N3_8 
REMARK    3  A    between atoms: C3_4  and  N2_5 
REMARK    4  A    between atoms: N3_8  and  C6_9 
ROOT
HETATM    1  C6  UNL     1      23.733   3.123  52.277  1.00  0.00     0.074 C 
HETATM    2  C7  UNL     1      22.420   3.627  52.218  1.00  0.00     0.011 C 
HETATM    3  C8  UNL     1      21.130   2.848  52.493  1.00  0.00     0.131 C 
HETATM    4  N4  UNL     1      20.996   1.560  52.102  1.00  0.00    -0.253 NA
HETATM    5  C9  UNL     1      21.781   1.007  50.959  1.00  0.00     0.233 C 
HETATM    6  N5  UNL     1      22.985   1.418  50.438  1.00  0.00    -0.240 NA
HETATM    7  C10 UNL     1      23.558   2.751  50.777  1.00  0.00     0.083 C 
HETATM    8  C11 UNL     1      23.794   3.529  49.658  1.00  0.00     0.021 C 
HETATM    9  C12 UNL     1      23.699   5.050  49.752  1.00  0.00     0.077 C 
HETATM   10  C13 UNL     1      22.559   5.509  50.640  1.00  0.00    -0.045 C 
HETATM   11  C14 UNL     1      21.933   5.009  51.769  1.00  0.00     0.023 C 
HETATM   12  C15 UNL     1      21.712   6.700  50.489  1.00  0.00     0.006 C 
HETATM   13  C16 UNL     1      22.003   8.007  50.364  1.00  0.00     0.003 C 
HETATM   14  C17 UNL     1      23.448   8.224  50.398  1.00  0.00     0.237 C 
HETATM   15  O1  UNL     1      23.904   8.803  49.198  1.00  0.00    -0.237 OA
HETATM   16  O2  UNL     1      25.002   8.065  48.933  1.00  0.00    -0.236 OA
HETATM   17  C18 UNL     1      24.919   7.401  47.736  1.00  0.00     0.249 C 
HETATM   18  C19 UNL     1      23.781   6.468  47.594  1.00  0.00    -0.024 A 
HETATM   19  C20 UNL     1      23.110   6.633  46.372  1.00  0.00     0.010 A 
HETATM   20  C21 UNL     1      22.011   5.932  45.921  1.00  0.00     0.001 A 
HETATM   21  C22 UNL     1      21.516   4.957  46.763  1.00  0.00     0.001 A 
HETATM   22  C23 UNL     1      22.179   4.784  47.985  1.00  0.00     0.009 A 
HETATM   23  C24 UNL     1      23.281   5.508  48.407  1.00  0.00    -0.037 A 
ENDROOT
BRANCH   1  24
HETATM   24  N3  UNL     1      24.804   2.997  53.307  1.00  0.00    -0.339 N 
HETATM   25  H10 UNL     1      24.882   3.827  53.942  1.00  0.00     0.167 HD
BRANCH  24  26
HETATM   26  C2  UNL     1      25.551   1.769  53.267  1.00  0.00     0.116 C 
HETATM   27  C3  UNL     1      26.809   1.848  53.735  1.00  0.00     0.134 C 
BRANCH  26  28
HETATM   28  N1  UNL     1      25.148   0.490  52.804  1.00  0.00    -0.380 N 
HETATM   29  C1  UNL     1      24.171  -0.243  53.588  1.00  0.00     0.147 C 
HETATM   30  H4  UNL     1      25.532   0.075  51.930  1.00  0.00     0.160 HD
ENDBRANCH  26  28
BRANCH  27  31
HETATM   31  N2  UNL     1      27.650   0.693  53.747  1.00  0.00    -0.384 N 
HETATM   32  C4  UNL     1      28.342  -0.557  53.320  1.00  0.00     0.142 A 
HETATM   33  C5  UNL     1      28.580   0.033  54.661  1.00  0.00     0.142 A 
ENDBRANCH  27  31
ENDBRANCH  24  26
ENDBRANCH   1  24
TORSDOF 4
ENDMDL
MODEL 5
REMARK VINA RESULT:      -8.0      3.293      6.986
REMARK  4 active torsions:
REMARK  status: ('A' for Active; 'I' for Inactive)
REMARK    1  A    between atoms: N1_2  and  C2_3 
REMARK    2  A    between atoms: C2_3  and  N3_8 
REMARK    3  A    between atoms: C3_4  and  N2_5 
REMARK    4  A    between atoms: N3_8  and  C6_9 
ROOT
HETATM    1  C6  UNL     1      24.136   5.734  51.195  1.00  0.00     0.074 C 
HETATM    2  C7  UNL     1      24.231   4.781  50.164  1.00  0.00     0.011 C 
HETATM    3  C8  UNL     1      23.425   4.762  48.862  1.00  0.00     0.131 C 
HETATM    4  N4  UNL     1      22.122   5.126  48.843  1.00  0.00    -0.253 NA
HETATM    5  C9  UNL     1      21.267   5.024  50.062  1.00  0.00     0.233 C 
HETATM    6  N5  UNL     1      21.623   5.032  51.390  1.00  0.00    -0.240 NA
HETATM    7  C10 UNL     1      23.037   4.822  51.810  1.00  0.00     0.083 C 
HETATM    8  C11 UNL     1      23.183   3.750  52.671  1.00  0.00     0.021 C 
HETATM    9  C12 UNL     1      24.481   2.945  52.675  1.00  0.00     0.077 C 
HETATM   10  C13 UNL     1      25.049   2.750  51.284  1.00  0.00    -0.045 C 
HETATM   11  C14 UNL     1      25.053   3.489  50.113  1.00  0.00     0.023 C 
HETATM   12  C15 UNL     1      25.779   1.589  50.754  1.00  0.00     0.006 C 
HETATM   13  C16 UNL     1      26.875   0.939  51.182  1.00  0.00     0.003 C 
HETATM   14  C17 UNL     1      27.401   1.549  52.402  1.00  0.00     0.237 C 
HETATM   15  O1  UNL     1      27.390   0.635  53.473  1.00  0.00    -0.237 OA
HETATM   16  O2  UNL     1      26.889   1.388  54.475  1.00  0.00    -0.236 OA
HETATM   17  C18 UNL     1      25.717   0.887  54.981  1.00  0.00     0.249 C 
HETATM   18  C19 UNL     1      24.608   0.739  54.014  1.00  0.00    -0.024 A 
HETATM   19  C20 UNL     1      23.984  -0.515  54.111  1.00  0.00     0.010 A 
HETATM   20  C21 UNL     1      22.924  -0.980  53.362  1.00  0.00     0.001 A 
HETATM   21  C22 UNL     1      22.417  -0.118  52.412  1.00  0.00     0.001 A 
HETATM   22  C23 UNL     1      23.031   1.137  52.307  1.00  0.00     0.009 A 
HETATM   23  C24 UNL     1      24.098   1.572  53.077  1.00  0.00    -0.037 A 
ENDROOT
BRANCH   1  24
HETATM   24  N3  UNL     1      24.787   7.031  51.541  1.00  0.00    -0.339 N 
HETATM   25  H10 UNL     1      24.694   7.297  52.550  1.00  0.00     0.167 HD
BRANCH  24  26
HETATM   26  C2  UNL     1      25.434   7.703  50.446  1.00  0.00     0.116 C 
HETATM   27  C3  UNL     1      24.682   8.620  49.812  1.00  0.00     0.134 C 
BRANCH  26  28
HETATM   28  N1  UNL     1      26.750   7.534  49.943  1.00  0.00    -0.380 N 
HETATM   29  C1  UNL     1      26.952   6.574  48.873  1.00  0.00     0.147 C 
HETATM   30  H4  UNL     1      27.556   8.073  50.319  1.00  0.00     0.160 HD
ENDBRANCH  26  28
BRANCH  27  31
HETATM   31  N2  UNL     1      25.216   9.354  48.708  1.00  0.00    -0.384 N 
HETATM   32  C4  UNL     1      25.609   9.736  47.322  1.00  0.00     0.142 A 
HETATM   33  C5  UNL     1      25.902  10.623  48.474  1.00  0.00     0.142 A 
ENDBRANCH  27  31
ENDBRANCH  24  26
ENDBRANCH   1  24
TORSDOF 4
ENDMDL
MODEL 6
REMARK VINA RESULT:      -7.9      8.093     11.686
REMARK  4 active torsions:
REMARK  status: ('A' for Active; 'I' for Inactive)
REMARK    1  A    between atoms: N1_2  and  C2_3 
REMARK    2  A    between atoms: C2_3  and  N3_8 
REMARK    3  A    between atoms: C3_4  and  N2_5 
REMARK    4  A    between atoms: N3_8  and  C6_9 
ROOT
HETATM    1  C6  UNL     1      30.326   8.683  48.261  1.00  0.00     0.074 C 
HETATM    2  C7  UNL     1      31.558   9.340  48.080  1.00  0.00     0.011 C 
HETATM    3  C8  UNL     1      31.761  10.785  47.615  1.00  0.00     0.131 C 
HETATM    4  N4  UNL     1      30.965  11.333  46.669  1.00  0.00    -0.253 NA
HETATM    5  C9  UNL     1      30.260  10.488  45.660  1.00  0.00     0.233 C 
HETATM    6  N5  UNL     1      29.883   9.167  45.728  1.00  0.00    -0.240 NA
HETATM    7  C10 UNL     1      30.440   8.258  46.769  1.00  0.00     0.083 C 
HETATM    8  C11 UNL     1      31.072   7.153  46.229  1.00  0.00     0.021 C 
HETATM    9  C12 UNL     1      32.243   6.507  46.965  1.00  0.00     0.077 C 
HETATM   10  C13 UNL     1      33.155   7.528  47.617  1.00  0.00    -0.045 C 
HETATM   11  C14 UNL     1      32.979   8.778  48.185  1.00  0.00     0.023 C 
HETATM   12  C15 UNL     1      34.612   7.464  47.793  1.00  0.00     0.006 C 
HETATM   13  C16 UNL     1      35.416   6.542  48.351  1.00  0.00     0.003 C 
HETATM   14  C17 UNL     1      34.639   5.418  48.869  1.00  0.00     0.237 C 
HETATM   15  O1  UNL     1      34.996   4.215  48.230  1.00  0.00    -0.237 OA
HETATM   16  O2  UNL     1      33.789   3.669  47.972  1.00  0.00    -0.236 OA
HETATM   17  C18 UNL     1      33.572   3.473  46.632  1.00  0.00     0.249 C 
HETATM   18  C19 UNL     1      33.640   4.682  45.784  1.00  0.00    -0.024 A 
HETATM   19  C20 UNL     1      34.421   4.480  44.635  1.00  0.00     0.010 A 
HETATM   20  C21 UNL     1      34.692   5.394  43.639  1.00  0.00     0.001 A 
HETATM   21  C22 UNL     1      34.134   6.647  43.784  1.00  0.00     0.001 A 
HETATM   22  C23 UNL     1      33.352   6.860  44.927  1.00  0.00     0.009 A 
HETATM   23  C24 UNL     1      33.100   5.918  45.911  1.00  0.00    -0.037 A 
ENDROOT
BRANCH   1  24
HETATM   24  N3  UNL     1      29.352   8.486  49.372  1.00  0.00    -0.339 N 
HETATM   25  H10 UNL     1      29.725   8.749  50.316  1.00  0.00     0.167 HD
BRANCH  24  26
HETATM   26  C2  UNL     1      28.068   7.972  48.978  1.00  0.00     0.116 C 
HETATM   27  C3  UNL     1      27.252   8.861  48.386  1.00  0.00     0.134 C 
BRANCH  26  28
HETATM   28  N1  UNL     1      27.543   6.662  49.128  1.00  0.00    -0.380 N 
HETATM   29  C1  UNL     1      28.173   5.587  48.384  1.00  0.00     0.147 C 
HETATM   30  H4  UNL     1      26.732   6.462  49.748  1.00  0.00     0.160 HD
ENDBRANCH  26  28
BRANCH  27  31
HETATM   31  N2  UNL     1      25.949   8.468  47.951  1.00  0.00    -0.384 N 
HETATM   32  C4  UNL     1      24.852   7.830  47.167  1.00  0.00     0.142 A 
HETATM   33  C5  UNL     1      24.558   8.679  48.348  1.00  0.00     0.142 A 
ENDBRANCH  27  31
ENDBRANCH  24  26
ENDBRANCH   1  24
TORSDOF 4
ENDMDL
MODEL 7
REMARK VINA RESULT:      -7.9      6.013      9.106
REMARK  4 active torsions:
REMARK  status: ('A' for Active; 'I' for Inactive)
REMARK    1  A    between atoms: N1_2  and  C2_3 
REMARK    2  A    between atoms: C2_3  and  N3_8 
REMARK    3  A    between atoms: C3_4  and  N2_5 
REMARK    4  A    between atoms: N3_8  and  C6_9 
ROOT
HETATM    1  C6  UNL     1      27.200   8.352  49.403  1.00  0.00     0.074 C 
HETATM    2  C7  UNL     1      28.164   9.375  49.316  1.00  0.00     0.011 C 
HETATM    3  C8  UNL     1      27.899  10.853  49.013  1.00  0.00     0.131 C 
HETATM    4  N4  UNL     1      26.956  11.224  48.117  1.00  0.00    -0.253 NA
HETATM    5  C9  UNL     1      26.532  10.316  47.012  1.00  0.00     0.233 C 
HETATM    6  N5  UNL     1      26.586   8.945  46.929  1.00  0.00    -0.240 NA
HETATM    7  C10 UNL     1      27.416   8.147  47.876  1.00  0.00     0.083 C 
HETATM    8  C11 UNL     1      28.350   7.358  47.232  1.00  0.00     0.021 C 
HETATM    9  C12 UNL     1      29.677   7.033  47.914  1.00  0.00     0.077 C 
HETATM   10  C13 UNL     1      30.237   8.210  48.689  1.00  0.00    -0.045 C 
HETATM   11  C14 UNL     1      29.691   9.275  49.385  1.00  0.00     0.023 C 
HETATM   12  C15 UNL     1      31.645   8.584  48.882  1.00  0.00     0.006 C 
HETATM   13  C16 UNL     1      32.704   7.903  49.351  1.00  0.00     0.003 C 
HETATM   14  C17 UNL     1      32.324   6.543  49.731  1.00  0.00     0.237 C 
HETATM   15  O1  UNL     1      33.027   5.588  48.973  1.00  0.00    -0.237 OA
HETATM   16  O2  UNL     1      32.046   4.725  48.636  1.00  0.00    -0.236 OA
HETATM   17  C18 UNL     1      31.877   4.617  47.279  1.00  0.00     0.249 C 
HETATM   18  C19 UNL     1      31.552   5.872  46.568  1.00  0.00    -0.024 A 
HETATM   19  C20 UNL     1      32.337   6.048  45.418  1.00  0.00     0.010 A 
HETATM   20  C21 UNL     1      32.294   7.103  44.531  1.00  0.00     0.001 A 
HETATM   21  C22 UNL     1      31.377   8.096  44.801  1.00  0.00     0.001 A 
HETATM   22  C23 UNL     1      30.587   7.931  45.946  1.00  0.00     0.009 A 
HETATM   23  C24 UNL     1      30.657   6.857  46.818  1.00  0.00    -0.037 A 
ENDROOT
BRANCH   1  24
HETATM   24  N3  UNL     1      26.354   7.743  50.469  1.00  0.00    -0.339 N 
HETATM   25  H10 UNL     1      26.419   8.233  51.394  1.00  0.00     0.167 HD
BRANCH  24  26
HETATM   26  C2  UNL     1      25.592   6.592  50.065  1.00  0.00     0.116 C 
HETATM   27  C3  UNL     1      24.400   6.862  49.507  1.00  0.00     0.134 C 
BRANCH  26  28
HETATM   28  N1  UNL     1      25.922   5.217  50.174  1.00  0.00    -0.380 N 
HETATM   29  C1  UNL     1      26.781   4.639  49.156  1.00  0.00     0.147 C 
HETATM   30  H4  UNL     1      25.567   4.626  50.954  1.00  0.00     0.160 HD
ENDBRANCH  26  28
BRANCH  27  31
HETATM   31  N2  UNL     1      23.552   5.800  49.065  1.00  0.00    -0.384 N 
HETATM   32  C4  UNL     1      22.958   4.720  48.226  1.00  0.00     0.142 A 
HETATM   33  C5  UNL     1      22.400   5.049  49.561  1.00  0.00     0.142 A 
ENDBRANCH  27  31
ENDBRANCH  24  26
ENDBRANCH   1  24
TORSDOF 4
ENDMDL
MODEL 8
REMARK VINA RESULT:      -7.9      3.325      5.927
REMARK  4 active torsions:
REMARK  status: ('A' for Active; 'I' for Inactive)
REMARK    1  A    between atoms: N1_2  and  C2_3 
REMARK    2  A    between atoms: C2_3  and  N3_8 
REMARK    3  A    between atoms: C3_4  and  N2_5 
REMARK    4  A    between atoms: N3_8  and  C6_9 
ROOT
HETATM    1  C6  UNL     1      24.338   3.717  52.108  1.00  0.00     0.074 C 
HETATM    2  C7  UNL     1      24.350   3.281  50.769  1.00  0.00     0.011 C 
HETATM    3  C8  UNL     1      25.409   3.609  49.713  1.00  0.00     0.131 C 
HETATM    4  N4  UNL     1      25.983   4.833  49.656  1.00  0.00    -0.253 NA
HETATM    5  C9  UNL     1      25.288   6.044  50.183  1.00  0.00     0.233 C 
HETATM    6  N5  UNL     1      24.309   6.150  51.143  1.00  0.00    -0.240 NA
HETATM    7  C10 UNL     1      23.545   4.955  51.599  1.00  0.00     0.083 C 
HETATM    8  C11 UNL     1      22.180   5.098  51.429  1.00  0.00     0.021 C 
HETATM    9  C12 UNL     1      21.311   3.873  51.158  1.00  0.00     0.077 C 
HETATM   10  C13 UNL     1      21.983   2.874  50.238  1.00  0.00    -0.045 C 
HETATM   11  C14 UNL     1      23.291   2.484  50.001  1.00  0.00     0.023 C 
HETATM   12  C15 UNL     1      21.362   2.005  49.229  1.00  0.00     0.006 C 
HETATM   13  C16 UNL     1      20.360   1.111  49.299  1.00  0.00     0.003 C 
HETATM   14  C17 UNL     1      19.835   1.023  50.660  1.00  0.00     0.237 C 
HETATM   15  O1  UNL     1      18.475   1.385  50.705  1.00  0.00    -0.237 OA
HETATM   16  O2  UNL     1      18.439   2.193  51.785  1.00  0.00    -0.236 OA
HETATM   17  C18 UNL     1      18.023   3.465  51.482  1.00  0.00     0.249 C 
HETATM   18  C19 UNL     1      18.837   4.189  50.483  1.00  0.00    -0.024 A 
HETATM   19  C20 UNL     1      18.045   4.805  49.501  1.00  0.00     0.010 A 
HETATM   20  C21 UNL     1      18.479   5.554  48.427  1.00  0.00     0.001 A 
HETATM   21  C22 UNL     1      19.842   5.720  48.304  1.00  0.00     0.001 A 
HETATM   22  C23 UNL     1      20.642   5.111  49.280  1.00  0.00     0.009 A 
HETATM   23  C24 UNL     1      20.173   4.362  50.346  1.00  0.00    -0.037 A 
ENDROOT
BRANCH   1  24
HETATM   24  N3  UNL     1      24.853   3.223  53.417  1.00  0.00    -0.339 N 
HETATM   25  H10 UNL     1      24.635   3.854  54.225  1.00  0.00     0.167 HD
BRANCH  24  26
HETATM   26  C2  UNL     1      25.560   1.971  53.365  1.00  0.00     0.116 C 
HETATM   27  C3  UNL     1      26.836   2.017  53.782  1.00  0.00     0.134 C 
BRANCH  26  28
HETATM   28  N1  UNL     1      25.099   0.700  52.935  1.00  0.00    -0.380 N 
HETATM   29  C1  UNL     1      23.777   0.275  53.359  1.00  0.00     0.147 C 
HETATM   30  H4  UNL     1      25.679   0.079  52.334  1.00  0.00     0.160 HD
ENDBRANCH  26  28
BRANCH  27  31
HETATM   31  N2  UNL     1      27.641   0.836  53.777  1.00  0.00    -0.384 N 
HETATM   32  C4  UNL     1      28.363  -0.381  53.308  1.00  0.00     0.142 A 
HETATM   33  C5  UNL     1      28.407   0.036  54.730  1.00  0.00     0.142 A 
ENDBRANCH  27  31
ENDBRANCH  24  26
ENDBRANCH   1  24
TORSDOF 4
ENDMDL
MODEL 9
REMARK VINA RESULT:      -7.6      3.023      5.679
REMARK  4 active torsions:
REMARK  status: ('A' for Active; 'I' for Inactive)
REMARK    1  A    between atoms: N1_2  and  C2_3 
REMARK    2  A    between atoms: C2_3  and  N3_8 
REMARK    3  A    between atoms: C3_4  and  N2_5 
REMARK    4  A    between atoms: N3_8  and  C6_9 
ROOT
HETATM    1  C6  UNL     1      24.729   3.815  51.736  1.00  0.00     0.074 C 
HETATM    2  C7  UNL     1      24.676   3.691  50.335  1.00  0.00     0.011 C 
HETATM    3  C8  UNL     1      25.595   4.382  49.323  1.00  0.00     0.131 C 
HETATM    4  N4  UNL     1      26.015   5.653  49.516  1.00  0.00    -0.253 NA
HETATM    5  C9  UNL     1      25.232   6.615  50.347  1.00  0.00     0.233 C 
HETATM    6  N5  UNL     1      24.335   6.374  51.361  1.00  0.00    -0.240 NA
HETATM    7  C10 UNL     1      23.757   5.018  51.573  1.00  0.00     0.083 C 
HETATM    8  C11 UNL     1      22.375   5.013  51.519  1.00  0.00     0.021 C 
HETATM    9  C12 UNL     1      21.634   3.774  51.024  1.00  0.00     0.077 C 
HETATM   10  C13 UNL     1      22.335   3.101  49.862  1.00  0.00    -0.045 C 
HETATM   11  C14 UNL     1      23.654   2.950  49.466  1.00  0.00     0.023 C 
HETATM   12  C15 UNL     1      21.734   2.403  48.717  1.00  0.00     0.006 C 
HETATM   13  C16 UNL     1      20.853   1.390  48.638  1.00  0.00     0.003 C 
HETATM   14  C17 UNL     1      20.461   0.934  49.970  1.00  0.00     0.237 C 
HETATM   15  O1  UNL     1      19.077   1.095  50.176  1.00  0.00    -0.237 OA
HETATM   16  O2  UNL     1      19.041   1.632  51.413  1.00  0.00    -0.236 OA
HETATM   17  C18 UNL     1      18.456   2.872  51.436  1.00  0.00     0.249 C 
HETATM   18  C19 UNL     1      19.090   3.901  50.585  1.00  0.00    -0.024 A 
HETATM   19  C20 UNL     1      18.151   4.608  49.818  1.00  0.00     0.010 A 
HETATM   20  C21 UNL     1      18.400   5.627  48.923  1.00  0.00     0.001 A 
HETATM   21  C22 UNL     1      19.720   5.995  48.763  1.00  0.00     0.001 A 
HETATM   22  C23 UNL     1      20.666   5.297  49.524  1.00  0.00     0.009 A 
HETATM   23  C24 UNL     1      20.381   4.275  50.415  1.00  0.00    -0.037 A 
ENDROOT
BRANCH   1  24
HETATM   24  N3  UNL     1      25.409   3.116  52.864  1.00  0.00    -0.339 N 
HETATM   25  H10 UNL     1      26.166   3.681  53.318  1.00  0.00     0.167 HD
BRANCH  24  26
HETATM   26  C2  UNL     1      24.924   1.792  53.147  1.00  0.00     0.116 C 
HETATM   27  C3  UNL     1      23.587   1.669  53.190  1.00  0.00     0.134 C 
BRANCH  26  28
HETATM   28  N1  UNL     1      25.658   0.601  53.386  1.00  0.00    -0.380 N 
HETATM   29  C1  UNL     1      26.459   0.525  54.595  1.00  0.00     0.147 C 
HETATM   30  H4  UNL     1      25.635  -0.202  52.725  1.00  0.00     0.160 HD
ENDBRANCH  26  28
BRANCH  27  31
HETATM   31  N2  UNL     1      22.986   0.401  53.463  1.00  0.00    -0.384 N 
HETATM   32  C4  UNL     1      22.543  -0.829  54.179  1.00  0.00     0.142 A 
HETATM   33  C5  UNL     1      22.215  -0.615  52.748  1.00  0.00     0.142 A 
ENDBRANCH  27  31
ENDBRANCH  24  26
ENDBRANCH   1  24
TORSDOF 4
ENDMDL
