MODEL 1
REMARK VINA RESULT:      -7.5      0.000      0.000
REMARK  0 active torsions:
REMARK  status: ('A' for Active; 'I' for Inactive)
ROOT
HETATM    1  N1  UNL     1      35.819   5.860  49.281  1.00  0.00    -0.191 NA
HETATM    2  C1  UNL     1      34.975   6.041  48.526  1.00  0.00     0.102 C 
HETATM    3  C2  UNL     1      33.929   6.288  47.601  1.00  0.00     0.078 C 
HETATM    4  C3  UNL     1      33.943   7.397  46.738  1.00  0.00     0.036 C 
HETATM    5  C4  UNL     1      33.232   8.682  47.010  1.00  0.00     0.137 C 
HETATM    6  S1  UNL     1      31.450   8.807  46.953  1.00  0.00    -0.128 SA
HETATM    7  C5  UNL     1      30.627   7.469  47.814  1.00  0.00    -0.017 C 
HETATM    8  C6  UNL     1      29.629   6.570  47.497  1.00  0.00     0.015 C 
HETATM    9  C7  UNL     1      30.403   5.304  47.881  1.00  0.00     0.009 C 
HETATM   10  C8  UNL     1      31.625   5.775  48.314  1.00  0.00    -0.042 C 
HETATM   11  C9  UNL     1      31.079   6.927  49.199  1.00  0.00     0.085 C 
HETATM   12  C10 UNL     1      32.861   5.189  47.761  1.00  0.00    -0.010 C 
HETATM   13  C11 UNL     1      32.424   3.955  47.601  1.00  0.00    -0.001 C 
HETATM   14  C12 UNL     1      32.515   2.563  47.154  1.00  0.00     0.082 C 
HETATM   15  C13 UNL     1      33.747   2.900  46.653  1.00  0.00     0.094 A 
HETATM   16  F1  UNL     1      35.005   2.945  46.061  1.00  0.00    -0.341 F 
HETATM   17  C14 UNL     1      34.315   4.075  45.896  1.00  0.00     0.198 A 
HETATM   18 CL1  UNL     1      32.668   4.395  45.192  1.00  0.00    -0.164 Cl
HETATM   19  C15 UNL     1      34.471   5.247  45.229  1.00  0.00     0.145 A 
HETATM   20  C16 UNL     1      33.970   6.551  44.624  1.00  0.00     0.143 C 
HETATM   21  N2  UNL     1      34.598   7.565  45.430  1.00  0.00    -0.390 N 
HETATM   22  H12 UNL     1      35.175   8.337  45.792  1.00  0.00     0.159 HD
ENDROOT
TORSDOF 0
ENDMDL
MODEL 2
REMARK VINA RESULT:      -6.8     11.076     12.997
REMARK  0 active torsions:
REMARK  status: ('A' for Active; 'I' for Inactive)
ROOT
HETATM    1  N1  UNL     1      21.745   0.927  47.955  1.00  0.00    -0.191 NA
HETATM    2  C1  UNL     1      21.801   1.543  48.921  1.00  0.00     0.102 C 
HETATM    3  C2  UNL     1      21.883   2.322  50.103  1.00  0.00     0.078 C 
HETATM    4  C3  UNL     1      21.602   3.699  50.111  1.00  0.00     0.036 C 
HETATM    5  C4  UNL     1      22.641   4.768  50.019  1.00  0.00     0.137 C 
HETATM    6  S1  UNL     1      23.767   5.109  51.363  1.00  0.00    -0.128 SA
HETATM    7  C5  UNL     1      24.490   3.626  52.064  1.00  0.00    -0.017 C 
HETATM    8  C6  UNL     1      24.622   3.111  53.337  1.00  0.00     0.015 C 
HETATM    9  C7  UNL     1      24.014   1.736  53.034  1.00  0.00     0.009 C 
HETATM   10  C8  UNL     1      23.692   1.798  51.695  1.00  0.00    -0.042 C 
HETATM   11  C9  UNL     1      25.020   2.439  51.212  1.00  0.00     0.085 C 
HETATM   12  C10 UNL     1      22.336   1.412  51.261  1.00  0.00    -0.010 C 
HETATM   13  C11 UNL     1      22.120   0.465  52.153  1.00  0.00    -0.001 C 
HETATM   14  C12 UNL     1      21.318  -0.543  52.851  1.00  0.00     0.082 C 
HETATM   15  C13 UNL     1      20.284  -0.152  52.038  1.00  0.00     0.094 A 
HETATM   16  F1  UNL     1      19.081   0.027  51.363  1.00  0.00    -0.341 F 
HETATM   17  C14 UNL     1      19.748   1.169  51.541  1.00  0.00     0.198 A 
HETATM   18 CL1  UNL     1      20.391   1.973  53.040  1.00  0.00    -0.164 Cl
HETATM   19  C15 UNL     1      19.536   2.490  51.315  1.00  0.00     0.145 A 
HETATM   20  C16 UNL     1      19.824   3.972  51.507  1.00  0.00     0.143 C 
HETATM   21  N2  UNL     1      20.309   4.396  50.220  1.00  0.00    -0.390 N 
HETATM   22  H12 UNL     1      20.439   4.828  49.295  1.00  0.00     0.159 HD
ENDROOT
TORSDOF 0
ENDMDL
MODEL 3
REMARK VINA RESULT:      -6.8      9.124     10.813
REMARK  0 active torsions:
REMARK  status: ('A' for Active; 'I' for Inactive)
ROOT
HETATM    1  N1  UNL     1      23.747   5.118  54.049  1.00  0.00    -0.191 NA
HETATM    2  C1  UNL     1      23.888   4.475  53.110  1.00  0.00     0.102 C 
HETATM    3  C2  UNL     1      24.050   3.697  51.935  1.00  0.00     0.078 C 
HETATM    4  C3  UNL     1      24.617   4.225  50.763  1.00  0.00     0.036 C 
HETATM    5  C4  UNL     1      23.826   4.756  49.613  1.00  0.00     0.137 C 
HETATM    6  S1  UNL     1      22.888   3.684  48.536  1.00  0.00    -0.128 SA
HETATM    7  C5  UNL     1      21.914   2.473  49.429  1.00  0.00    -0.017 C 
HETATM    8  C6  UNL     1      21.758   1.103  49.365  1.00  0.00     0.015 C 
HETATM    9  C7  UNL     1      22.038   0.825  50.847  1.00  0.00     0.009 C 
HETATM   10  C8  UNL     1      22.278   2.073  51.384  1.00  0.00    -0.042 C 
HETATM   11  C9  UNL     1      21.089   2.802  50.705  1.00  0.00     0.085 C 
HETATM   12  C10 UNL     1      23.490   2.286  52.198  1.00  0.00    -0.010 C 
HETATM   13  C11 UNL     1      23.557   1.088  52.746  1.00  0.00    -0.001 C 
HETATM   14  C12 UNL     1      24.170   0.030  53.552  1.00  0.00     0.082 C 
HETATM   15  C13 UNL     1      25.208   0.906  53.747  1.00  0.00     0.094 A 
HETATM   16  F1  UNL     1      26.375   1.567  54.116  1.00  0.00    -0.341 F 
HETATM   17  C14 UNL     1      25.979   1.869  52.879  1.00  0.00     0.198 A 
HETATM   18 CL1  UNL     1      25.622   0.824  51.433  1.00  0.00    -0.164 Cl
HETATM   19  C15 UNL     1      26.453   2.592  51.832  1.00  0.00     0.145 A 
HETATM   20  C16 UNL     1      26.500   3.006  50.368  1.00  0.00     0.143 C 
HETATM   21  N2  UNL     1      26.033   4.367  50.383  1.00  0.00    -0.390 N 
HETATM   22  H12 UNL     1      25.939   5.391  50.327  1.00  0.00     0.159 HD
ENDROOT
TORSDOF 0
ENDMDL
MODEL 4
REMARK VINA RESULT:      -6.6      3.679      5.288
REMARK  0 active torsions:
REMARK  status: ('A' for Active; 'I' for Inactive)
ROOT
HETATM    1  N1  UNL     1      28.537   5.180  48.501  1.00  0.00    -0.191 NA
HETATM    2  C1  UNL     1      28.852   6.254  48.250  1.00  0.00     0.102 C 
HETATM    3  C2  UNL     1      29.218   7.589  47.939  1.00  0.00     0.078 C 
HETATM    4  C3  UNL     1      28.744   8.684  48.681  1.00  0.00     0.036 C 
HETATM    5  C4  UNL     1      27.571   9.520  48.288  1.00  0.00     0.137 C 
HETATM    6  S1  UNL     1      27.632  10.639  46.896  1.00  0.00    -0.128 SA
HETATM    7  C5  UNL     1      28.362   9.900  45.436  1.00  0.00    -0.017 C 
HETATM    8  C6  UNL     1      29.363  10.256  44.556  1.00  0.00     0.015 C 
HETATM    9  C7  UNL     1      30.165   8.954  44.666  1.00  0.00     0.009 C 
HETATM   10  C8  UNL     1      29.445   8.189  45.558  1.00  0.00    -0.042 C 
HETATM   11  C9  UNL     1      28.044   8.459  44.948  1.00  0.00     0.085 C 
HETATM   12  C10 UNL     1      30.139   7.572  46.704  1.00  0.00    -0.010 C 
HETATM   13  C11 UNL     1      31.297   7.342  46.116  1.00  0.00    -0.001 C 
HETATM   14  C12 UNL     1      32.701   6.927  46.066  1.00  0.00     0.082 C 
HETATM   15  C13 UNL     1      32.591   6.715  47.417  1.00  0.00     0.094 A 
HETATM   16  F1  UNL     1      32.773   6.410  48.762  1.00  0.00    -0.341 F 
HETATM   17  C14 UNL     1      31.962   7.453  48.573  1.00  0.00     0.198 A 
HETATM   18 CL1  UNL     1      32.195   9.019  47.676  1.00  0.00    -0.164 Cl
HETATM   19  C15 UNL     1      31.321   8.367  49.346  1.00  0.00     0.145 A 
HETATM   20  C16 UNL     1      30.584   9.677  49.584  1.00  0.00     0.143 C 
HETATM   21  N2  UNL     1      29.252   9.261  49.937  1.00  0.00    -0.390 N 
HETATM   22  H12 UNL     1      28.364   9.056  50.417  1.00  0.00     0.159 HD
ENDROOT
TORSDOF 0
ENDMDL
MODEL 5
REMARK VINA RESULT:      -6.6      9.314     11.028
REMARK  0 active torsions:
REMARK  status: ('A' for Active; 'I' for Inactive)
ROOT
HETATM    1  N1  UNL     1      22.397   1.829  47.753  1.00  0.00    -0.191 NA
HETATM    2  C1  UNL     1      22.503   2.649  48.548  1.00  0.00     0.102 C 
HETATM    3  C2  UNL     1      22.622   3.677  49.518  1.00  0.00     0.078 C 
HETATM    4  C3  UNL     1      21.501   4.350  50.033  1.00  0.00     0.036 C 
HETATM    5  C4  UNL     1      21.008   5.667  49.531  1.00  0.00     0.137 C 
HETATM    6  S1  UNL     1      21.905   7.185  49.820  1.00  0.00    -0.128 SA
HETATM    7  C5  UNL     1      23.660   7.033  49.492  1.00  0.00    -0.017 C 
HETATM    8  C6  UNL     1      24.814   7.327  50.190  1.00  0.00     0.015 C 
HETATM    9  C7  UNL     1      25.460   5.943  50.054  1.00  0.00     0.009 C 
HETATM   10  C8  UNL     1      24.542   5.213  49.329  1.00  0.00    -0.042 C 
HETATM   11  C9  UNL     1      24.247   6.295  48.256  1.00  0.00     0.085 C 
HETATM   12  C10 UNL     1      24.116   3.892  49.828  1.00  0.00    -0.010 C 
HETATM   13  C11 UNL     1      25.256   3.528  50.383  1.00  0.00    -0.001 C 
HETATM   14  C12 UNL     1      26.128   2.658  51.174  1.00  0.00     0.082 C 
HETATM   15  C13 UNL     1      25.017   1.877  51.372  1.00  0.00     0.094 A 
HETATM   16  F1  UNL     1      24.085   0.909  51.731  1.00  0.00    -0.341 F 
HETATM   17  C14 UNL     1      23.563   2.136  51.684  1.00  0.00     0.198 A 
HETATM   18 CL1  UNL     1      24.036   3.684  52.514  1.00  0.00    -0.164 Cl
HETATM   19  C15 UNL     1      22.374   2.723  51.974  1.00  0.00     0.145 A 
HETATM   20  C16 UNL     1      21.476   3.915  52.269  1.00  0.00     0.143 C 
HETATM   21  N2  UNL     1      20.596   3.969  51.131  1.00  0.00    -0.390 N 
HETATM   22  H12 UNL     1      19.791   3.941  50.488  1.00  0.00     0.159 HD
ENDROOT
TORSDOF 0
ENDMDL
MODEL 6
REMARK VINA RESULT:      -6.0      2.436      3.291
REMARK  0 active torsions:
REMARK  status: ('A' for Active; 'I' for Inactive)
ROOT
HETATM    1  N1  UNL     1      35.357   9.237  47.757  1.00  0.00    -0.191 NA
HETATM    2  C1  UNL     1      34.261   9.070  47.462  1.00  0.00     0.102 C 
HETATM    3  C2  UNL     1      32.906   8.885  47.088  1.00  0.00     0.078 C 
HETATM    4  C3  UNL     1      32.443   9.177  45.794  1.00  0.00     0.036 C 
HETATM    5  C4  UNL     1      31.777  10.458  45.409  1.00  0.00     0.137 C 
HETATM    6  S1  UNL     1      30.131  10.872  45.966  1.00  0.00    -0.128 SA
HETATM    7  C5  UNL     1      29.886  10.566  47.715  1.00  0.00    -0.017 C 
HETATM    8  C6  UNL     1      28.947   9.890  48.467  1.00  0.00     0.015 C 
HETATM    9  C7  UNL     1      29.941   9.022  49.248  1.00  0.00     0.009 C 
HETATM   10  C8  UNL     1      31.175   9.404  48.765  1.00  0.00    -0.042 C 
HETATM   11  C9  UNL     1      30.926  10.935  48.809  1.00  0.00     0.085 C 
HETATM   12  C10 UNL     1      32.123   8.370  48.311  1.00  0.00    -0.010 C 
HETATM   13  C11 UNL     1      31.793   7.427  49.172  1.00  0.00    -0.001 C 
HETATM   14  C12 UNL     1      31.837   6.079  49.745  1.00  0.00     0.082 C 
HETATM   15  C13 UNL     1      32.707   5.773  48.729  1.00  0.00     0.094 A 
HETATM   16  F1  UNL     1      33.593   5.187  47.832  1.00  0.00    -0.341 F 
HETATM   17  C14 UNL     1      32.782   6.073  47.252  1.00  0.00     0.198 A 
HETATM   18 CL1  UNL     1      30.968   6.201  47.204  1.00  0.00    -0.164 Cl
HETATM   19  C15 UNL     1      32.521   6.507  45.992  1.00  0.00     0.145 A 
HETATM   20  C16 UNL     1      31.679   7.210  44.937  1.00  0.00     0.143 C 
HETATM   21  N2  UNL     1      32.475   8.354  44.573  1.00  0.00    -0.390 N 
HETATM   22  H12 UNL     1      33.064   9.048  44.093  1.00  0.00     0.159 HD
ENDROOT
TORSDOF 0
ENDMDL
MODEL 7
REMARK VINA RESULT:      -5.9     10.440     12.408
REMARK  0 active torsions:
REMARK  status: ('A' for Active; 'I' for Inactive)
ROOT
HETATM    1  N1  UNL     1      21.513   6.812  51.203  1.00  0.00    -0.191 NA
HETATM    2  C1  UNL     1      21.341   5.771  50.754  1.00  0.00     0.102 C 
HETATM    3  C2  UNL     1      21.106   4.483  50.208  1.00  0.00     0.078 C 
HETATM    4  C3  UNL     1      20.021   4.222  49.355  1.00  0.00     0.036 C 
HETATM    5  C4  UNL     1      18.721   3.640  49.805  1.00  0.00     0.137 C 
HETATM    6  S1  UNL     1      18.576   1.935  50.319  1.00  0.00    -0.128 SA
HETATM    7  C5  UNL     1      19.882   1.429  51.437  1.00  0.00    -0.017 C 
HETATM    8  C6  UNL     1      20.777   0.379  51.484  1.00  0.00     0.015 C 
HETATM    9  C7  UNL     1      22.041   1.233  51.635  1.00  0.00     0.009 C 
HETATM   10  C8  UNL     1      21.574   2.530  51.638  1.00  0.00    -0.042 C 
HETATM   11  C9  UNL     1      20.393   2.301  52.618  1.00  0.00     0.085 C 
HETATM   12  C10 UNL     1      22.188   3.520  50.734  1.00  0.00    -0.010 C 
HETATM   13  C11 UNL     1      23.421   3.052  50.758  1.00  0.00    -0.001 C 
HETATM   14  C12 UNL     1      24.825   2.990  50.345  1.00  0.00     0.082 C 
HETATM   15  C13 UNL     1      24.516   3.997  49.465  1.00  0.00     0.094 A 
HETATM   16  F1  UNL     1      24.501   4.998  48.500  1.00  0.00    -0.341 F 
HETATM   17  C14 UNL     1      23.367   4.295  48.533  1.00  0.00     0.198 A 
HETATM   18 CL1  UNL     1      23.047   2.510  48.387  1.00  0.00    -0.164 Cl
HETATM   19  C15 UNL     1      22.215   4.230  47.818  1.00  0.00     0.145 A 
HETATM   20  C16 UNL     1      20.922   3.566  47.369  1.00  0.00     0.143 C 
HETATM   21  N2  UNL     1      19.895   4.423  47.901  1.00  0.00    -0.390 N 
HETATM   22  H12 UNL     1      19.120   5.087  48.037  1.00  0.00     0.159 HD
ENDROOT
TORSDOF 0
ENDMDL
MODEL 8
REMARK VINA RESULT:      -5.9      9.881     11.983
REMARK  0 active torsions:
REMARK  status: ('A' for Active; 'I' for Inactive)
ROOT
HETATM    1  N1  UNL     1      21.941   3.598  45.879  1.00  0.00    -0.191 NA
HETATM    2  C1  UNL     1      22.045   3.845  46.994  1.00  0.00     0.102 C 
HETATM    3  C2  UNL     1      22.192   4.166  48.368  1.00  0.00     0.078 C 
HETATM    4  C3  UNL     1      22.102   5.488  48.838  1.00  0.00     0.036 C 
HETATM    5  C4  UNL     1      23.280   6.368  49.096  1.00  0.00     0.137 C 
HETATM    6  S1  UNL     1      24.394   6.081  50.462  1.00  0.00    -0.128 SA
HETATM    7  C5  UNL     1      24.881   4.363  50.619  1.00  0.00    -0.017 C 
HETATM    8  C6  UNL     1      24.895   3.441  51.646  1.00  0.00     0.015 C 
HETATM    9  C7  UNL     1      24.116   2.346  50.909  1.00  0.00     0.009 C 
HETATM   10  C8  UNL     1      23.853   2.893  49.671  1.00  0.00    -0.042 C 
HETATM   11  C9  UNL     1      25.273   3.464  49.414  1.00  0.00     0.085 C 
HETATM   12  C10 UNL     1      22.473   2.869  49.150  1.00  0.00    -0.010 C 
HETATM   13  C11 UNL     1      22.098   1.720  49.677  1.00  0.00    -0.001 C 
HETATM   14  C12 UNL     1      21.140   0.662  50.008  1.00  0.00     0.082 C 
HETATM   15  C13 UNL     1      20.200   1.443  49.384  1.00  0.00     0.094 A 
HETATM   16  F1  UNL     1      19.058   2.004  48.823  1.00  0.00    -0.341 F 
HETATM   17  C14 UNL     1      19.869   2.915  49.363  1.00  0.00     0.198 A 
HETATM   18 CL1  UNL     1      20.561   3.077  51.038  1.00  0.00    -0.164 Cl
HETATM   19  C15 UNL     1      19.848   4.253  49.594  1.00  0.00     0.145 A 
HETATM   20  C16 UNL     1      20.329   5.530  50.267  1.00  0.00     0.143 C 
HETATM   21  N2  UNL     1      20.914   6.284  49.189  1.00  0.00    -0.390 N 
HETATM   22  H12 UNL     1      21.135   6.977  48.460  1.00  0.00     0.159 HD
ENDROOT
TORSDOF 0
ENDMDL
MODEL 9
REMARK VINA RESULT:      -5.9      3.977      5.916
REMARK  0 active torsions:
REMARK  status: ('A' for Active; 'I' for Inactive)
ROOT
HETATM    1  N1  UNL     1      29.889   9.490  44.122  1.00  0.00    -0.191 NA
HETATM    2  C1  UNL     1      30.170   9.272  45.212  1.00  0.00     0.102 C 
HETATM    3  C2  UNL     1      30.542   9.001  46.554  1.00  0.00     0.078 C 
HETATM    4  C3  UNL     1      31.529   9.747  47.220  1.00  0.00     0.036 C 
HETATM    5  C4  UNL     1      32.957   9.327  47.343  1.00  0.00     0.137 C 
HETATM    6  S1  UNL     1      33.455   7.961  48.381  1.00  0.00    -0.128 SA
HETATM    7  C5  UNL     1      32.417   6.514  48.178  1.00  0.00    -0.017 C 
HETATM    8  C6  UNL     1      31.725   5.679  49.032  1.00  0.00     0.015 C 
HETATM    9  C7  UNL     1      30.368   5.792  48.329  1.00  0.00     0.009 C 
HETATM   10  C8  UNL     1      30.607   6.643  47.269  1.00  0.00    -0.042 C 
HETATM   11  C9  UNL     1      31.932   5.987  46.798  1.00  0.00     0.085 C 
HETATM   12  C10 UNL     1      29.718   7.801  47.059  1.00  0.00    -0.010 C 
HETATM   13  C11 UNL     1      28.597   7.251  47.482  1.00  0.00    -0.001 C 
HETATM   14  C12 UNL     1      27.180   7.245  47.855  1.00  0.00     0.082 C 
HETATM   15  C13 UNL     1      27.193   8.587  47.568  1.00  0.00     0.094 A 
HETATM   16  F1  UNL     1      26.909   9.931  47.354  1.00  0.00    -0.341 F 
HETATM   17  C14 UNL     1      28.138   9.734  47.834  1.00  0.00     0.198 A 
HETATM   18 CL1  UNL     1      28.730   8.877  49.325  1.00  0.00    -0.164 Cl
HETATM   19  C15 UNL     1      29.176  10.500  48.256  1.00  0.00     0.145 A 
HETATM   20  C16 UNL     1      30.489  10.736  48.988  1.00  0.00     0.143 C 
HETATM   21  N2  UNL     1      31.420  11.032  47.931  1.00  0.00    -0.390 N 
HETATM   22  H12 UNL     1      32.084  11.474  47.279  1.00  0.00     0.159 HD
ENDROOT
TORSDOF 0
ENDMDL
