MODEL 1
REMARK VINA RESULT:      -7.8      0.000      0.000
REMARK  6 active torsions:
REMARK  status: ('A' for Active; 'I' for Inactive)
REMARK    1  A    between atoms: N2_4  and  C3_5 
REMARK    2  A    between atoms: C4_7  and  O1_8 
REMARK    3  A    between atoms: C6_11  and  C7_12 
REMARK    4  A    between atoms: C7_12  and  C8_13 
REMARK    5  A    between atoms: C9_14  and  C10_15 
REMARK    6  A    between atoms: C13_19  and  O2_20 
ROOT
HETATM    1  C1  UNL     1      26.410   4.602  49.698  1.00  0.00     0.067 C 
HETATM    2  C2  UNL     1      25.613   3.385  50.141  1.00  0.00     0.029 C 
HETATM    3  N1  UNL     1      26.270   2.876  51.166  1.00  0.00    -0.179 NA
HETATM    4  N2  UNL     1      25.868   2.105  52.301  1.00  0.00    -0.237 N 
HETATM    5  C6  UNL     1      24.522   1.869  52.860  1.00  0.00     0.147 C 
HETATM    6  C12 UNL     1      23.557   2.384  51.807  1.00  0.00    -0.025 C 
HETATM    7  C13 UNL     1      22.842   3.411  51.283  1.00  0.00     0.052 C 
HETATM    8  C14 UNL     1      23.129   2.923  49.894  1.00  0.00     0.052 C 
HETATM    9  C15 UNL     1      24.428   3.168  49.315  1.00  0.00     0.067 C 
HETATM   10  C16 UNL     1      22.953   1.623  50.637  1.00  0.00     0.050 C 
ENDROOT
BRANCH   4  11
HETATM   11  C3  UNL     1      27.025   1.543  52.886  1.00  0.00     0.192 A 
HETATM   12  N3  UNL     1      27.860   2.300  53.592  1.00  0.00    -0.198 NA
HETATM   13  C4  UNL     1      28.905   1.696  54.101  1.00  0.00     0.171 A 
HETATM   14  C5  UNL     1      29.175   0.193  53.911  1.00  0.00     0.111 A 
HETATM   15  S1  UNL     1      27.738  -0.225  52.911  1.00  0.00    -0.058 SA
BRANCH  13  16
HETATM   16  O1  UNL     1      29.834   2.450  54.859  1.00  0.00    -0.344 OA
HETATM   17  H4  UNL     1      30.523   1.986  55.436  1.00  0.00     0.219 HD
ENDBRANCH  13  16
ENDBRANCH   4  11
BRANCH   5  18
HETATM   18  C7  UNL     1      24.237   0.402  53.069  1.00  0.00     0.059 C 
BRANCH  18  19
HETATM   19  C8  UNL     1      22.861   0.360  53.698  1.00  0.00    -0.025 C 
HETATM   20  C9  UNL     1      22.052  -0.667  53.467  1.00  0.00     0.005 C 
BRANCH  20  21
HETATM   21  C10 UNL     1      20.700  -0.660  54.115  1.00  0.00     0.188 C 
HETATM   22  C11 UNL     1      19.641  -0.339  53.094  1.00  0.00     0.049 C 
HETATM   23  F1  UNL     1      20.487  -1.974  54.538  1.00  0.00    -0.246 F 
ENDBRANCH  20  21
ENDBRANCH  18  19
ENDBRANCH   5  18
BRANCH   7  24
HETATM   24  O2  UNL     1      22.052   4.581  51.487  1.00  0.00    -0.364 OA
HETATM   25  H15 UNL     1      22.543   5.452  51.772  1.00  0.00     0.217 HD
ENDBRANCH   7  24
TORSDOF 6
ENDMDL
MODEL 2
REMARK VINA RESULT:      -7.8      3.276      5.450
REMARK  6 active torsions:
REMARK  status: ('A' for Active; 'I' for Inactive)
REMARK    1  A    between atoms: N2_4  and  C3_5 
REMARK    2  A    between atoms: C4_7  and  O1_8 
REMARK    3  A    between atoms: C6_11  and  C7_12 
REMARK    4  A    between atoms: C7_12  and  C8_13 
REMARK    5  A    between atoms: C9_14  and  C10_15 
REMARK    6  A    between atoms: C13_19  and  O2_20 
ROOT
HETATM    1  C1  UNL     1      22.414  -1.635  53.640  1.00  0.00     0.067 C 
HETATM    2  C2  UNL     1      23.071  -0.278  53.438  1.00  0.00     0.029 C 
HETATM    3  N1  UNL     1      24.350  -0.522  53.235  1.00  0.00    -0.179 NA
HETATM    4  N2  UNL     1      25.379   0.174  52.525  1.00  0.00    -0.237 N 
HETATM    5  C6  UNL     1      25.278   1.258  51.530  1.00  0.00     0.147 C 
HETATM    6  C12 UNL     1      23.836   1.726  51.594  1.00  0.00    -0.025 C 
HETATM    7  C13 UNL     1      22.552   1.611  51.170  1.00  0.00     0.052 C 
HETATM    8  C14 UNL     1      22.053   1.875  52.559  1.00  0.00     0.052 C 
HETATM    9  C15 UNL     1      22.113   0.821  53.543  1.00  0.00     0.067 C 
HETATM   10  C16 UNL     1      23.239   2.803  52.487  1.00  0.00     0.050 C 
ENDROOT
BRANCH   4  11
HETATM   11  C3  UNL     1      26.627  -0.354  52.926  1.00  0.00     0.192 A 
HETATM   12  N3  UNL     1      26.929  -1.627  52.687  1.00  0.00    -0.198 NA
HETATM   13  C4  UNL     1      28.109  -2.031  53.090  1.00  0.00     0.171 A 
HETATM   14  C5  UNL     1      29.111  -1.104  53.801  1.00  0.00     0.111 A 
HETATM   15  S1  UNL     1      28.135   0.408  53.811  1.00  0.00    -0.058 SA
BRANCH  13  16
HETATM   16  O1  UNL     1      28.487  -3.377  52.868  1.00  0.00    -0.344 OA
HETATM   17  H4  UNL     1      29.459  -3.654  52.922  1.00  0.00     0.219 HD
ENDBRANCH  13  16
ENDBRANCH   4  11
BRANCH   5  18
HETATM   18  C7  UNL     1      26.161   2.434  51.870  1.00  0.00     0.059 C 
BRANCH  18  19
HETATM   19  C8  UNL     1      26.548   3.029  50.534  1.00  0.00    -0.025 C 
HETATM   20  C9  UNL     1      26.059   4.204  50.158  1.00  0.00     0.005 C 
BRANCH  20  21
HETATM   21  C10 UNL     1      26.476   4.749  48.824  1.00  0.00     0.188 C 
HETATM   22  C11 UNL     1      26.713   6.233  48.925  1.00  0.00     0.049 C 
HETATM   23  F1  UNL     1      27.706   4.148  48.549  1.00  0.00    -0.246 F 
ENDBRANCH  20  21
ENDBRANCH  18  19
ENDBRANCH   5  18
BRANCH   7  24
HETATM   24  O2  UNL     1      21.632   1.378  50.105  1.00  0.00    -0.364 OA
HETATM   25  H15 UNL     1      21.937   0.757  49.330  1.00  0.00     0.217 HD
ENDBRANCH   7  24
TORSDOF 6
ENDMDL
MODEL 3
REMARK VINA RESULT:      -7.7      3.483      6.977
REMARK  6 active torsions:
REMARK  status: ('A' for Active; 'I' for Inactive)
REMARK    1  A    between atoms: N2_4  and  C3_5 
REMARK    2  A    between atoms: C4_7  and  O1_8 
REMARK    3  A    between atoms: C6_11  and  C7_12 
REMARK    4  A    between atoms: C7_12  and  C8_13 
REMARK    5  A    between atoms: C9_14  and  C10_15 
REMARK    6  A    between atoms: C13_19  and  O2_20 
ROOT
HETATM    1  C1  UNL     1      24.885  -0.871  55.067  1.00  0.00     0.067 C 
HETATM    2  C2  UNL     1      25.117  -0.191  53.727  1.00  0.00     0.029 C 
HETATM    3  N1  UNL     1      23.973   0.385  53.411  1.00  0.00    -0.179 NA
HETATM    4  N2  UNL     1      23.638   1.526  52.617  1.00  0.00    -0.237 N 
HETATM    5  C6  UNL     1      24.494   2.622  52.122  1.00  0.00     0.147 C 
HETATM    6  C12 UNL     1      25.918   2.162  52.377  1.00  0.00    -0.025 C 
HETATM    7  C13 UNL     1      26.989   2.091  53.207  1.00  0.00     0.052 C 
HETATM    8  C14 UNL     1      27.279   0.697  52.737  1.00  0.00     0.052 C 
HETATM    9  C15 UNL     1      26.476  -0.396  53.230  1.00  0.00     0.067 C 
HETATM   10  C16 UNL     1      26.820   1.353  51.459  1.00  0.00     0.050 C 
ENDROOT
BRANCH   4  11
HETATM   11  C3  UNL     1      22.254   1.479  52.338  1.00  0.00     0.192 A 
HETATM   12  N3  UNL     1      21.508   2.576  52.436  1.00  0.00    -0.198 NA
HETATM   13  C4  UNL     1      20.235   2.443  52.156  1.00  0.00     0.171 A 
HETATM   14  C5  UNL     1      19.611   1.102  51.730  1.00  0.00     0.111 A 
HETATM   15  S1  UNL     1      21.087   0.074  51.790  1.00  0.00    -0.058 SA
BRANCH  13  16
HETATM   16  O1  UNL     1      19.388   3.574  52.247  1.00  0.00    -0.344 OA
HETATM   17  H4  UNL     1      19.603   4.327  52.888  1.00  0.00     0.219 HD
ENDBRANCH  13  16
ENDBRANCH   4  11
BRANCH   5  18
HETATM   18  C7  UNL     1      24.340   2.844  50.637  1.00  0.00     0.059 C 
BRANCH  18  19
HETATM   19  C8  UNL     1      25.042   4.157  50.366  1.00  0.00    -0.025 C 
HETATM   20  C9  UNL     1      25.851   4.278  49.320  1.00  0.00     0.005 C 
BRANCH  20  21
HETATM   21  C10 UNL     1      26.522   5.601  49.096  1.00  0.00     0.188 C 
HETATM   22  C11 UNL     1      27.879   5.392  48.477  1.00  0.00     0.049 C 
HETATM   23  F1  UNL     1      25.730   6.261  48.155  1.00  0.00    -0.246 F 
ENDBRANCH  20  21
ENDBRANCH  18  19
ENDBRANCH   5  18
BRANCH   7  24
HETATM   24  O2  UNL     1      27.820   2.708  54.189  1.00  0.00    -0.364 OA
HETATM   25  H15 UNL     1      28.822   2.850  53.953  1.00  0.00     0.217 HD
ENDBRANCH   7  24
TORSDOF 6
ENDMDL
MODEL 4
REMARK VINA RESULT:      -7.5      3.358      5.651
REMARK  6 active torsions:
REMARK  status: ('A' for Active; 'I' for Inactive)
REMARK    1  A    between atoms: N2_4  and  C3_5 
REMARK    2  A    between atoms: C4_7  and  O1_8 
REMARK    3  A    between atoms: C6_11  and  C7_12 
REMARK    4  A    between atoms: C7_12  and  C8_13 
REMARK    5  A    between atoms: C9_14  and  C10_15 
REMARK    6  A    between atoms: C13_19  and  O2_20 
ROOT
HETATM    1  C1  UNL     1      18.984   3.122  51.726  1.00  0.00     0.067 C 
HETATM    2  C2  UNL     1      20.228   2.251  51.650  1.00  0.00     0.029 C 
HETATM    3  N1  UNL     1      21.248   3.083  51.566  1.00  0.00    -0.179 NA
HETATM    4  N2  UNL     1      22.623   2.990  51.950  1.00  0.00    -0.237 N 
HETATM    5  C6  UNL     1      23.294   2.027  52.845  1.00  0.00     0.147 C 
HETATM    6  C12 UNL     1      22.277   0.926  53.083  1.00  0.00    -0.025 C 
HETATM    7  C13 UNL     1      21.241   0.432  53.807  1.00  0.00     0.052 C 
HETATM    8  C14 UNL     1      20.598  -0.091  52.557  1.00  0.00     0.052 C 
HETATM    9  C15 UNL     1      19.909   0.825  51.681  1.00  0.00     0.067 C 
HETATM   10  C16 UNL     1      22.057  -0.338  52.268  1.00  0.00     0.050 C 
ENDROOT
BRANCH   4  11
HETATM   11  C3  UNL     1      23.331   4.032  51.313  1.00  0.00     0.192 A 
HETATM   12  N3  UNL     1      23.390   5.243  51.862  1.00  0.00    -0.198 NA
HETATM   13  C4  UNL     1      24.072   6.149  51.205  1.00  0.00     0.171 A 
HETATM   14  C5  UNL     1      24.778   5.854  49.870  1.00  0.00     0.111 A 
HETATM   15  S1  UNL     1      24.332   4.120  49.692  1.00  0.00    -0.058 SA
BRANCH  13  16
HETATM   16  O1  UNL     1      24.166   7.457  51.736  1.00  0.00    -0.344 OA
HETATM   17  H4  UNL     1      24.787   7.654  52.510  1.00  0.00     0.219 HD
ENDBRANCH  13  16
ENDBRANCH   4  11
BRANCH   5  18
HETATM   18  C7  UNL     1      24.510   1.402  52.207  1.00  0.00     0.059 C 
BRANCH  18  19
HETATM   19  C8  UNL     1      25.413   1.037  53.365  1.00  0.00    -0.025 C 
HETATM   20  C9  UNL     1      26.514   0.325  53.155  1.00  0.00     0.005 C 
BRANCH  20  21
HETATM   21  C10 UNL     1      27.374  -0.008  54.338  1.00  0.00     0.188 C 
HETATM   22  C11 UNL     1      28.628   0.825  54.314  1.00  0.00     0.049 C 
HETATM   23  F1  UNL     1      26.634   0.383  55.455  1.00  0.00    -0.246 F 
ENDBRANCH  20  21
ENDBRANCH  18  19
ENDBRANCH   5  18
BRANCH   7  24
HETATM   24  O2  UNL     1      20.616   0.238  55.075  1.00  0.00    -0.364 OA
HETATM   25  H15 UNL     1      20.935   0.832  55.866  1.00  0.00     0.217 HD
ENDBRANCH   7  24
TORSDOF 6
ENDMDL
MODEL 5
REMARK VINA RESULT:      -7.3      6.477      8.706
REMARK  6 active torsions:
REMARK  status: ('A' for Active; 'I' for Inactive)
REMARK    1  A    between atoms: N2_4  and  C3_5 
REMARK    2  A    between atoms: C4_7  and  O1_8 
REMARK    3  A    between atoms: C6_11  and  C7_12 
REMARK    4  A    between atoms: C7_12  and  C8_13 
REMARK    5  A    between atoms: C9_14  and  C10_15 
REMARK    6  A    between atoms: C13_19  and  O2_20 
ROOT
HETATM    1  C1  UNL     1      30.955  11.581  48.989  1.00  0.00     0.067 C 
HETATM    2  C2  UNL     1      30.018  10.531  48.413  1.00  0.00     0.029 C 
HETATM    3  N1  UNL     1      30.734   9.430  48.297  1.00  0.00    -0.179 NA
HETATM    4  N2  UNL     1      30.402   8.039  48.314  1.00  0.00    -0.237 N 
HETATM    5  C6  UNL     1      29.169   7.363  48.762  1.00  0.00     0.147 C 
HETATM    6  C12 UNL     1      28.153   8.474  48.955  1.00  0.00    -0.025 C 
HETATM    7  C13 UNL     1      27.586   9.410  49.759  1.00  0.00     0.052 C 
HETATM    8  C14 UNL     1      27.492  10.365  48.606  1.00  0.00     0.052 C 
HETATM    9  C15 UNL     1      28.678  11.060  48.168  1.00  0.00     0.067 C 
HETATM   10  C16 UNL     1      27.189   9.051  47.931  1.00  0.00     0.050 C 
ENDROOT
BRANCH   4  11
HETATM   11  C3  UNL     1      31.503   7.316  47.803  1.00  0.00     0.192 A 
HETATM   12  N3  UNL     1      32.145   6.435  48.566  1.00  0.00    -0.198 NA
HETATM   13  C4  UNL     1      33.151   5.807  48.010  1.00  0.00     0.171 A 
HETATM   14  C5  UNL     1      33.587   6.053  46.555  1.00  0.00     0.111 A 
HETATM   15  S1  UNL     1      32.368   7.296  46.103  1.00  0.00    -0.058 SA
BRANCH  13  16
HETATM   16  O1  UNL     1      33.877   4.860  48.773  1.00  0.00    -0.344 OA
HETATM   17  H4  UNL     1      34.567   5.164  49.447  1.00  0.00     0.219 HD
ENDBRANCH  13  16
ENDBRANCH   4  11
BRANCH   5  18
HETATM   18  C7  UNL     1      28.624   6.415  47.724  1.00  0.00     0.059 C 
BRANCH  18  19
HETATM   19  C8  UNL     1      28.064   5.253  48.515  1.00  0.00    -0.025 C 
HETATM   20  C9  UNL     1      26.775   5.222  48.835  1.00  0.00     0.005 C 
BRANCH  20  21
HETATM   21  C10 UNL     1      26.271   4.047  49.619  1.00  0.00     0.188 C 
HETATM   22  C11 UNL     1      24.788   3.888  49.412  1.00  0.00     0.049 C 
HETATM   23  F1  UNL     1      26.893   2.932  49.053  1.00  0.00    -0.246 F 
ENDBRANCH  20  21
ENDBRANCH  18  19
ENDBRANCH   5  18
BRANCH   7  24
HETATM   24  O2  UNL     1      27.116   9.791  51.051  1.00  0.00    -0.364 OA
HETATM   25  H15 UNL     1      27.268  10.775  51.349  1.00  0.00     0.217 HD
ENDBRANCH   7  24
TORSDOF 6
ENDMDL
MODEL 6
REMARK VINA RESULT:      -7.2      3.645      7.315
REMARK  6 active torsions:
REMARK  status: ('A' for Active; 'I' for Inactive)
REMARK    1  A    between atoms: N2_4  and  C3_5 
REMARK    2  A    between atoms: C4_7  and  O1_8 
REMARK    3  A    between atoms: C6_11  and  C7_12 
REMARK    4  A    between atoms: C7_12  and  C8_13 
REMARK    5  A    between atoms: C9_14  and  C10_15 
REMARK    6  A    between atoms: C13_19  and  O2_20 
ROOT
HETATM    1  C1  UNL     1      22.554  -0.132  54.141  1.00  0.00     0.067 C 
HETATM    2  C2  UNL     1      23.634   0.091  53.094  1.00  0.00     0.029 C 
HETATM    3  N1  UNL     1      23.221   1.101  52.355  1.00  0.00    -0.179 NA
HETATM    4  N2  UNL     1      23.902   2.096  51.585  1.00  0.00    -0.237 N 
HETATM    5  C6  UNL     1      25.322   2.500  51.602  1.00  0.00     0.147 C 
HETATM    6  C12 UNL     1      26.030   1.434  52.418  1.00  0.00    -0.025 C 
HETATM    7  C13 UNL     1      26.449   0.975  53.625  1.00  0.00     0.052 C 
HETATM    8  C14 UNL     1      26.116  -0.431  53.222  1.00  0.00     0.052 C 
HETATM    9  C15 UNL     1      24.738  -0.859  53.227  1.00  0.00     0.067 C 
HETATM   10  C16 UNL     1      26.646   0.133  51.928  1.00  0.00     0.050 C 
ENDROOT
BRANCH   4  11
HETATM   11  C3  UNL     1      22.964   2.710  50.726  1.00  0.00     0.192 A 
HETATM   12  N3  UNL     1      22.231   1.977  49.893  1.00  0.00    -0.198 NA
HETATM   13  C4  UNL     1      21.383   2.628  49.135  1.00  0.00     0.171 A 
HETATM   14  C5  UNL     1      21.221   4.158  49.189  1.00  0.00     0.111 A 
HETATM   15  S1  UNL     1      22.440   4.525  50.460  1.00  0.00    -0.058 SA
BRANCH  13  16
HETATM   16  O1  UNL     1      20.578   1.903  48.223  1.00  0.00    -0.344 OA
HETATM   17  H4  UNL     1      19.749   1.419  48.542  1.00  0.00     0.219 HD
ENDBRANCH  13  16
ENDBRANCH   4  11
BRANCH   5  18
HETATM   18  C7  UNL     1      25.932   2.506  50.222  1.00  0.00     0.059 C 
BRANCH  18  19
HETATM   19  C8  UNL     1      26.256   3.959  49.947  1.00  0.00    -0.025 C 
HETATM   20  C9  UNL     1      27.171   4.279  49.039  1.00  0.00     0.005 C 
BRANCH  20  21
HETATM   21  C10 UNL     1      27.453   5.733  48.805  1.00  0.00     0.188 C 
HETATM   22  C11 UNL     1      28.778   5.895  48.108  1.00  0.00     0.049 C 
HETATM   23  F1  UNL     1      26.462   6.163  47.920  1.00  0.00    -0.246 F 
ENDBRANCH  20  21
ENDBRANCH  18  19
ENDBRANCH   5  18
BRANCH   7  24
HETATM   24  O2  UNL     1      26.992   1.246  54.916  1.00  0.00    -0.364 OA
HETATM   25  H15 UNL     1      27.961   1.616  54.964  1.00  0.00     0.217 HD
ENDBRANCH   7  24
TORSDOF 6
ENDMDL
MODEL 7
REMARK VINA RESULT:      -6.6      2.741      3.550
REMARK  6 active torsions:
REMARK  status: ('A' for Active; 'I' for Inactive)
REMARK    1  A    between atoms: N2_4  and  C3_5 
REMARK    2  A    between atoms: C4_7  and  O1_8 
REMARK    3  A    between atoms: C6_11  and  C7_12 
REMARK    4  A    between atoms: C7_12  and  C8_13 
REMARK    5  A    between atoms: C9_14  and  C10_15 
REMARK    6  A    between atoms: C13_19  and  O2_20 
ROOT
HETATM    1  C1  UNL     1      21.717   6.604  50.922  1.00  0.00     0.067 C 
HETATM    2  C2  UNL     1      21.527   5.141  50.556  1.00  0.00     0.029 C 
HETATM    3  N1  UNL     1      22.512   4.490  51.144  1.00  0.00    -0.179 NA
HETATM    4  N2  UNL     1      22.652   3.148  51.620  1.00  0.00    -0.237 N 
HETATM    5  C6  UNL     1      21.625   2.120  51.876  1.00  0.00     0.147 C 
HETATM    6  C12 UNL     1      20.352   2.663  51.252  1.00  0.00    -0.025 C 
HETATM    7  C13 UNL     1      19.221   3.405  51.366  1.00  0.00     0.052 C 
HETATM    8  C14 UNL     1      19.390   3.906  49.962  1.00  0.00     0.052 C 
HETATM    9  C15 UNL     1      20.367   4.932  49.692  1.00  0.00     0.067 C 
HETATM   10  C16 UNL     1      19.853   2.477  49.827  1.00  0.00     0.050 C 
ENDROOT
BRANCH   4  11
HETATM   11  C3  UNL     1      24.025   2.899  51.842  1.00  0.00     0.192 A 
HETATM   12  N3  UNL     1      24.460   2.546  53.048  1.00  0.00    -0.198 NA
HETATM   13  C4  UNL     1      25.748   2.331  53.164  1.00  0.00     0.171 A 
HETATM   14  C5  UNL     1      26.725   2.471  51.983  1.00  0.00     0.111 A 
HETATM   15  S1  UNL     1      25.554   2.948  50.703  1.00  0.00    -0.058 SA
BRANCH  13  16
HETATM   16  O1  UNL     1      26.272   1.956  54.424  1.00  0.00    -0.344 OA
HETATM   17  H4  UNL     1      25.659   1.830  55.219  1.00  0.00     0.219 HD
ENDBRANCH  13  16
ENDBRANCH   4  11
BRANCH   5  18
HETATM   18  C7  UNL     1      21.945   0.808  51.203  1.00  0.00     0.059 C 
BRANCH  18  19
HETATM   19  C8  UNL     1      21.662  -0.246  52.251  1.00  0.00    -0.025 C 
HETATM   20  C9  UNL     1      22.464  -0.376  53.301  1.00  0.00     0.005 C 
BRANCH  20  21
HETATM   21  C10 UNL     1      22.138  -1.436  54.311  1.00  0.00     0.188 C 
HETATM   22  C11 UNL     1      23.110  -1.370  55.459  1.00  0.00     0.049 C 
HETATM   23  F1  UNL     1      20.879  -1.095  54.809  1.00  0.00    -0.246 F 
ENDBRANCH  20  21
ENDBRANCH  18  19
ENDBRANCH   5  18
BRANCH   7  24
HETATM   24  O2  UNL     1      18.113   3.833  52.156  1.00  0.00    -0.364 OA
HETATM   25  H15 UNL     1      18.066   4.837  52.417  1.00  0.00     0.217 HD
ENDBRANCH   7  24
TORSDOF 6
ENDMDL
MODEL 8
REMARK VINA RESULT:      -6.5      3.377      4.829
REMARK  6 active torsions:
REMARK  status: ('A' for Active; 'I' for Inactive)
REMARK    1  A    between atoms: N2_4  and  C3_5 
REMARK    2  A    between atoms: C4_7  and  O1_8 
REMARK    3  A    between atoms: C6_11  and  C7_12 
REMARK    4  A    between atoms: C7_12  and  C8_13 
REMARK    5  A    between atoms: C9_14  and  C10_15 
REMARK    6  A    between atoms: C13_19  and  O2_20 
ROOT
HETATM    1  C1  UNL     1      26.673   2.081  53.613  1.00  0.00     0.067 C 
HETATM    2  C2  UNL     1      25.684   1.968  52.463  1.00  0.00     0.029 C 
HETATM    3  N1  UNL     1      24.598   1.420  52.972  1.00  0.00    -0.179 NA
HETATM    4  N2  UNL     1      23.212   1.487  52.625  1.00  0.00    -0.237 N 
HETATM    5  C6  UNL     1      22.499   2.436  51.748  1.00  0.00     0.147 C 
HETATM    6  C12 UNL     1      23.588   3.201  51.018  1.00  0.00    -0.025 C 
HETATM    7  C13 UNL     1      24.444   4.254  50.973  1.00  0.00     0.052 C 
HETATM    8  C14 UNL     1      25.504   3.385  50.365  1.00  0.00     0.052 C 
HETATM    9  C15 UNL     1      26.237   2.470  51.207  1.00  0.00     0.067 C 
HETATM   10  C16 UNL     1      24.261   2.848  49.701  1.00  0.00     0.050 C 
ENDROOT
BRANCH   4  11
HETATM   11  C3  UNL     1      22.539   0.437  53.288  1.00  0.00     0.192 A 
HETATM   12  N3  UNL     1      23.150  -0.260  54.242  1.00  0.00    -0.198 NA
HETATM   13  C4  UNL     1      22.450  -1.213  54.807  1.00  0.00     0.171 A 
HETATM   14  C5  UNL     1      20.998  -1.528  54.409  1.00  0.00     0.111 A 
HETATM   15  S1  UNL     1      20.781  -0.284  53.128  1.00  0.00    -0.058 SA
BRANCH  13  16
HETATM   16  O1  UNL     1      23.047  -1.993  55.826  1.00  0.00    -0.344 OA
HETATM   17  H4  UNL     1      23.600  -1.555  56.552  1.00  0.00     0.219 HD
ENDBRANCH  13  16
ENDBRANCH   4  11
BRANCH   5  18
HETATM   18  C7  UNL     1      21.654   1.736  50.712  1.00  0.00     0.059 C 
BRANCH  18  19
HETATM   19  C8  UNL     1      20.438   2.619  50.541  1.00  0.00    -0.025 C 
HETATM   20  C9  UNL     1      19.720   2.980  51.598  1.00  0.00     0.005 C 
BRANCH  20  21
HETATM   21  C10 UNL     1      18.525   3.858  51.374  1.00  0.00     0.188 C 
HETATM   22  C11 UNL     1      18.664   4.594  50.068  1.00  0.00     0.049 C 
HETATM   23  F1  UNL     1      17.444   2.983  51.247  1.00  0.00    -0.246 F 
ENDBRANCH  20  21
ENDBRANCH  18  19
ENDBRANCH   5  18
BRANCH   7  24
HETATM   24  O2  UNL     1      24.701   5.633  51.229  1.00  0.00    -0.364 OA
HETATM   25  H15 UNL     1      25.244   5.873  52.082  1.00  0.00     0.217 HD
ENDBRANCH   7  24
TORSDOF 6
ENDMDL
MODEL 9
REMARK VINA RESULT:      -6.5      4.575      7.876
REMARK  6 active torsions:
REMARK  status: ('A' for Active; 'I' for Inactive)
REMARK    1  A    between atoms: N2_4  and  C3_5 
REMARK    2  A    between atoms: C4_7  and  O1_8 
REMARK    3  A    between atoms: C6_11  and  C7_12 
REMARK    4  A    between atoms: C7_12  and  C8_13 
REMARK    5  A    between atoms: C9_14  and  C10_15 
REMARK    6  A    between atoms: C13_19  and  O2_20 
ROOT
HETATM    1  C1  UNL     1      21.208   0.257  54.471  1.00  0.00     0.067 C 
HETATM    2  C2  UNL     1      21.751   0.783  53.151  1.00  0.00     0.029 C 
HETATM    3  N1  UNL     1      20.811   1.567  52.659  1.00  0.00    -0.179 NA
HETATM    4  N2  UNL     1      20.838   2.699  51.786  1.00  0.00    -0.237 N 
HETATM    5  C6  UNL     1      21.968   3.553  51.374  1.00  0.00     0.147 C 
HETATM    6  C12 UNL     1      23.213   2.820  51.840  1.00  0.00    -0.025 C 
HETATM    7  C13 UNL     1      24.129   2.576  52.812  1.00  0.00     0.052 C 
HETATM    8  C14 UNL     1      24.163   1.125  52.437  1.00  0.00     0.052 C 
HETATM    9  C15 UNL     1      23.084   0.263  52.854  1.00  0.00     0.067 C 
HETATM   10  C16 UNL     1      24.025   1.779  51.086  1.00  0.00     0.050 C 
ENDROOT
BRANCH   4  11
HETATM   11  C3  UNL     1      19.524   2.929  51.320  1.00  0.00     0.192 A 
HETATM   12  N3  UNL     1      18.640   3.567  52.083  1.00  0.00    -0.198 NA
HETATM   13  C4  UNL     1      17.446   3.741  51.570  1.00  0.00     0.171 A 
HETATM   14  C5  UNL     1      17.062   3.245  50.165  1.00  0.00     0.111 A 
HETATM   15  S1  UNL     1      18.631   2.505  49.689  1.00  0.00    -0.058 SA
BRANCH  13  16
HETATM   16  O1  UNL     1      16.460   4.409  52.335  1.00  0.00    -0.344 OA
HETATM   17  H4  UNL     1      16.291   4.146  53.298  1.00  0.00     0.219 HD
ENDBRANCH  13  16
ENDBRANCH   4  11
BRANCH   5  18
HETATM   18  C7  UNL     1      22.057   3.706  49.875  1.00  0.00     0.059 C 
BRANCH  18  19
HETATM   19  C8  UNL     1      22.880   4.957  49.660  1.00  0.00    -0.025 C 
HETATM   20  C9  UNL     1      24.051   4.887  49.037  1.00  0.00     0.005 C 
BRANCH  20  21
HETATM   21  C10 UNL     1      24.827   6.157  48.849  1.00  0.00     0.188 C 
HETATM   22  C11 UNL     1      26.301   5.855  48.789  1.00  0.00     0.049 C 
HETATM   23  F1  UNL     1      24.448   6.637  47.594  1.00  0.00    -0.246 F 
ENDBRANCH  20  21
ENDBRANCH  18  19
ENDBRANCH   5  18
BRANCH   7  24
HETATM   24  O2  UNL     1      24.943   3.066  53.876  1.00  0.00    -0.364 OA
HETATM   25  H15 UNL     1      25.477   2.372  54.434  1.00  0.00     0.217 HD
ENDBRANCH   7  24
TORSDOF 6
ENDMDL
