MODEL 1
REMARK VINA RESULT:      -7.0      0.000      0.000
REMARK  5 active torsions:
REMARK  status: ('A' for Active; 'I' for Inactive)
REMARK    1  A    between atoms: C7_9  and  N3_10 
REMARK    2  A    between atoms: N3_10  and  C8_11 
REMARK    3  A    between atoms: C12_15  and  N4_16 
REMARK    4  A    between atoms: N4_16  and  C13_17 
REMARK    5  A    between atoms: C18_22  and  O1_23 
ROOT
HETATM    1  C1  UNL     1      23.771   4.917  53.452  1.00  0.00     0.047 C 
HETATM    2  C2  UNL     1      22.847   4.380  52.427  1.00  0.00    -0.042 C 
HETATM    3  C3  UNL     1      21.587   4.857  52.358  1.00  0.00     0.008 C 
HETATM    4  C4  UNL     1      20.812   4.236  51.292  1.00  0.00     0.031 C 
HETATM    5  C5  UNL     1      21.680   3.386  50.766  1.00  0.00     0.076 C 
HETATM    6  N1  UNL     1      21.494   2.496  49.637  1.00  0.00    -0.243 NA
HETATM    7  C6  UNL     1      22.593   2.131  48.999  1.00  0.00     0.235 C 
HETATM    8  N2  UNL     1      23.805   2.600  49.487  1.00  0.00    -0.225 NA
HETATM    9  C7  UNL     1      24.114   3.317  50.488  1.00  0.00     0.144 C 
HETATM   10  C12 UNL     1      22.953   3.261  51.409  1.00  0.00     0.156 C 
ENDROOT
BRANCH  10  11
HETATM   11  N4  UNL     1      23.167   2.144  52.295  1.00  0.00    -0.388 N 
HETATM   12  H11 UNL     1      23.892   2.304  53.038  1.00  0.00     0.155 HD
BRANCH  11  13
HETATM   13  C13 UNL     1      22.351   1.053  52.465  1.00  0.00     0.136 A 
HETATM   14  C14 UNL     1      21.136   1.180  53.257  1.00  0.00     0.001 A 
HETATM   15  C15 UNL     1      20.690   0.375  54.245  1.00  0.00    -0.002 A 
HETATM   16  C16 UNL     1      21.447  -0.828  54.667  1.00  0.00    -0.002 A 
HETATM   17  C17 UNL     1      22.556  -0.960  53.956  1.00  0.00     0.009 A 
HETATM   18  C18 UNL     1      23.179  -0.196  52.872  1.00  0.00     0.194 A 
BRANCH  18  19
HETATM   19  O1  UNL     1      24.442   0.269  53.319  1.00  0.00    -0.272 OA
HETATM   20 CL1  UNL     1      25.112  -0.836  54.412  1.00  0.00     0.062 Cl
ENDBRANCH  18  19
ENDBRANCH  11  13
ENDBRANCH  10  11
BRANCH   9  21
HETATM   21  N3  UNL     1      25.308   3.848  51.020  1.00  0.00    -0.342 N 
HETATM   22  H7  UNL     1      25.718   3.684  51.954  1.00  0.00     0.167 HD
BRANCH  21  23
HETATM   23  C8  UNL     1      25.900   4.689  49.998  1.00  0.00     0.033 A 
HETATM   24  C9  UNL     1      25.902   5.827  49.321  1.00  0.00     0.029 A 
HETATM   25  C10 UNL     1      27.058   5.482  48.502  1.00  0.00     0.004 A 
HETATM   26  C11 UNL     1      27.072   4.325  49.175  1.00  0.00     0.029 A 
ENDBRANCH  21  23
ENDBRANCH   9  21
TORSDOF 5
ENDMDL
MODEL 2
REMARK VINA RESULT:      -6.9      2.474      3.465
REMARK  5 active torsions:
REMARK  status: ('A' for Active; 'I' for Inactive)
REMARK    1  A    between atoms: C7_9  and  N3_10 
REMARK    2  A    between atoms: N3_10  and  C8_11 
REMARK    3  A    between atoms: C12_15  and  N4_16 
REMARK    4  A    between atoms: N4_16  and  C13_17 
REMARK    5  A    between atoms: C18_22  and  O1_23 
ROOT
HETATM    1  C1  UNL     1      24.691   2.683  50.481  1.00  0.00     0.047 C 
HETATM    2  C2  UNL     1      23.469   3.192  51.145  1.00  0.00    -0.042 C 
HETATM    3  C3  UNL     1      23.571   4.200  52.036  1.00  0.00     0.008 C 
HETATM    4  C4  UNL     1      22.282   4.591  52.588  1.00  0.00     0.031 C 
HETATM    5  C5  UNL     1      21.448   3.762  51.981  1.00  0.00     0.076 C 
HETATM    6  N1  UNL     1      20.005   3.690  52.102  1.00  0.00    -0.243 NA
HETATM    7  C6  UNL     1      19.361   3.160  51.076  1.00  0.00     0.235 C 
HETATM    8  N2  UNL     1      20.122   2.697  50.011  1.00  0.00    -0.225 NA
HETATM    9  C7  UNL     1      21.373   2.636  49.805  1.00  0.00     0.144 C 
HETATM   10  C12 UNL     1      22.016   2.756  51.136  1.00  0.00     0.156 C 
ENDROOT
BRANCH  10  11
HETATM   11  N4  UNL     1      22.159   1.420  51.661  1.00  0.00    -0.388 N 
HETATM   12  H11 UNL     1      22.520   0.713  50.973  1.00  0.00     0.155 HD
BRANCH  11  13
HETATM   13  C13 UNL     1      22.170   1.046  52.982  1.00  0.00     0.136 A 
HETATM   14  C14 UNL     1      23.318   0.329  53.517  1.00  0.00     0.001 A 
HETATM   15  C15 UNL     1      23.333  -0.794  54.266  1.00  0.00    -0.002 A 
HETATM   16  C16 UNL     1      22.078  -1.478  54.662  1.00  0.00    -0.002 A 
HETATM   17  C17 UNL     1      21.022  -0.839  54.184  1.00  0.00     0.009 A 
HETATM   18  C18 UNL     1      20.830   0.365  53.372  1.00  0.00     0.194 A 
BRANCH  18  19
HETATM   19  O1  UNL     1      20.185  -0.007  52.165  1.00  0.00    -0.272 OA
HETATM   20 CL1  UNL     1      18.599  -0.506  52.485  1.00  0.00     0.062 Cl
ENDBRANCH  18  19
ENDBRANCH  11  13
ENDBRANCH  10  11
BRANCH   9  21
HETATM   21  N3  UNL     1      22.203   2.208  48.747  1.00  0.00    -0.342 N 
HETATM   22  H7  UNL     1      22.768   1.345  48.688  1.00  0.00     0.167 HD
BRANCH  21  23
HETATM   23  C8  UNL     1      22.126   3.212  47.704  1.00  0.00     0.033 A 
HETATM   24  C9  UNL     1      21.838   3.534  46.452  1.00  0.00     0.029 A 
HETATM   25  C10 UNL     1      22.192   4.941  46.601  1.00  0.00     0.004 A 
HETATM   26  C11 UNL     1      22.488   4.635  47.870  1.00  0.00     0.029 A 
ENDBRANCH  21  23
ENDBRANCH   9  21
TORSDOF 5
ENDMDL
MODEL 3
REMARK VINA RESULT:      -6.9      1.993      4.990
REMARK  5 active torsions:
REMARK  status: ('A' for Active; 'I' for Inactive)
REMARK    1  A    between atoms: C7_9  and  N3_10 
REMARK    2  A    between atoms: N3_10  and  C8_11 
REMARK    3  A    between atoms: C12_15  and  N4_16 
REMARK    4  A    between atoms: N4_16  and  C13_17 
REMARK    5  A    between atoms: C18_22  and  O1_23 
ROOT
HETATM    1  C1  UNL     1      22.282   1.732  48.236  1.00  0.00     0.047 C 
HETATM    2  C2  UNL     1      22.900   2.749  49.118  1.00  0.00    -0.042 C 
HETATM    3  C3  UNL     1      23.881   3.538  48.632  1.00  0.00     0.008 C 
HETATM    4  C4  UNL     1      24.373   4.490  49.617  1.00  0.00     0.031 C 
HETATM    5  C5  UNL     1      23.638   4.206  50.680  1.00  0.00     0.076 C 
HETATM    6  N1  UNL     1      23.651   4.849  51.980  1.00  0.00    -0.243 NA
HETATM    7  C6  UNL     1      22.539   4.748  52.689  1.00  0.00     0.235 C 
HETATM    8  N2  UNL     1      21.494   4.015  52.143  1.00  0.00    -0.225 NA
HETATM    9  C7  UNL     1      21.372   3.353  51.066  1.00  0.00     0.144 C 
HETATM   10  C12 UNL     1      22.750   3.085  50.589  1.00  0.00     0.156 C 
ENDROOT
BRANCH  10  11
HETATM   11  N4  UNL     1      23.166   1.833  51.170  1.00  0.00    -0.388 N 
HETATM   12  H11 UNL     1      22.798   0.979  50.682  1.00  0.00     0.155 HD
BRANCH  11  13
HETATM   13  C13 UNL     1      24.190   1.631  52.062  1.00  0.00     0.136 A 
HETATM   14  C14 UNL     1      25.547   1.451  51.570  1.00  0.00     0.001 A 
HETATM   15  C15 UNL     1      26.444   0.500  51.908  1.00  0.00    -0.002 A 
HETATM   16  C16 UNL     1      26.120  -0.553  52.901  1.00  0.00    -0.002 A 
HETATM   17  C17 UNL     1      24.887  -0.404  53.360  1.00  0.00     0.009 A 
HETATM   18  C18 UNL     1      23.804   0.550  53.107  1.00  0.00     0.194 A 
BRANCH  18  19
HETATM   19  O1  UNL     1      22.695  -0.160  52.582  1.00  0.00    -0.272 OA
HETATM   20 CL1  UNL     1      22.201  -1.355  53.676  1.00  0.00     0.062 Cl
ENDBRANCH  18  19
ENDBRANCH  11  13
ENDBRANCH  10  11
BRANCH   9  21
HETATM   21  N3  UNL     1      20.342   2.616  50.444  1.00  0.00    -0.342 N 
HETATM   22  H7  UNL     1      19.971   2.722  49.486  1.00  0.00     0.167 HD
BRANCH  21  23
HETATM   23  C8  UNL     1      19.872   1.637  51.404  1.00  0.00     0.033 A 
HETATM   24  C9  UNL     1      19.660   1.289  52.665  1.00  0.00     0.029 A 
HETATM   25  C10 UNL     1      19.110  -0.022  52.340  1.00  0.00     0.004 A 
HETATM   26  C11 UNL     1      19.316   0.312  51.061  1.00  0.00     0.029 A 
ENDBRANCH  21  23
ENDBRANCH   9  21
TORSDOF 5
ENDMDL
MODEL 4
REMARK VINA RESULT:      -6.9      1.692      2.092
REMARK  5 active torsions:
REMARK  status: ('A' for Active; 'I' for Inactive)
REMARK    1  A    between atoms: C7_9  and  N3_10 
REMARK    2  A    between atoms: N3_10  and  C8_11 
REMARK    3  A    between atoms: C12_15  and  N4_16 
REMARK    4  A    between atoms: N4_16  and  C13_17 
REMARK    5  A    between atoms: C18_22  and  O1_23 
ROOT
HETATM    1  C1  UNL     1      23.424   5.351  52.743  1.00  0.00     0.047 C 
HETATM    2  C2  UNL     1      22.718   4.308  51.965  1.00  0.00    -0.042 C 
HETATM    3  C3  UNL     1      21.463   3.958  52.315  1.00  0.00     0.008 C 
HETATM    4  C4  UNL     1      20.905   2.932  51.446  1.00  0.00     0.031 C 
HETATM    5  C5  UNL     1      21.894   2.710  50.596  1.00  0.00     0.076 C 
HETATM    6  N1  UNL     1      21.921   1.802  49.465  1.00  0.00    -0.243 NA
HETATM    7  C6  UNL     1      22.776   2.100  48.501  1.00  0.00     0.235 C 
HETATM    8  N2  UNL     1      23.580   3.219  48.679  1.00  0.00    -0.225 NA
HETATM    9  C7  UNL     1      23.708   4.048  49.631  1.00  0.00     0.144 C 
HETATM   10  C12 UNL     1      23.132   3.392  50.830  1.00  0.00     0.156 C 
ENDROOT
BRANCH  10  11
HETATM   11  N4  UNL     1      24.201   2.671  51.475  1.00  0.00    -0.388 N 
HETATM   12  H11 UNL     1      24.867   3.269  52.022  1.00  0.00     0.155 HD
BRANCH  11  13
HETATM   13  C13 UNL     1      24.270   1.318  51.701  1.00  0.00     0.136 A 
HETATM   14  C14 UNL     1      23.449   0.720  52.743  1.00  0.00     0.001 A 
HETATM   15  C15 UNL     1      23.820  -0.142  53.713  1.00  0.00    -0.002 A 
HETATM   16  C16 UNL     1      25.219  -0.616  53.836  1.00  0.00    -0.002 A 
HETATM   17  C17 UNL     1      25.982  -0.082  52.895  1.00  0.00     0.009 A 
HETATM   18  C18 UNL     1      25.748   0.850  51.788  1.00  0.00     0.194 A 
BRANCH  18  19
HETATM   19  O1  UNL     1      26.540   2.007  52.001  1.00  0.00    -0.272 OA
HETATM   20 CL1  UNL     1      27.925   1.605  52.888  1.00  0.00     0.062 Cl
ENDBRANCH  18  19
ENDBRANCH  11  13
ENDBRANCH  10  11
BRANCH   9  21
HETATM   21  N3  UNL     1      24.476   5.209  49.863  1.00  0.00    -0.342 N 
HETATM   22  H7  UNL     1      24.171   6.102  50.282  1.00  0.00     0.167 HD
BRANCH  21  23
HETATM   23  C8  UNL     1      25.825   4.932  49.409  1.00  0.00     0.033 A 
HETATM   24  C9  UNL     1      26.839   4.087  49.303  1.00  0.00     0.029 A 
HETATM   25  C10 UNL     1      27.707   5.024  48.599  1.00  0.00     0.004 A 
HETATM   26  C11 UNL     1      26.693   5.892  48.696  1.00  0.00     0.029 A 
ENDBRANCH  21  23
ENDBRANCH   9  21
TORSDOF 5
ENDMDL
MODEL 5
REMARK VINA RESULT:      -6.9      2.120      3.385
REMARK  5 active torsions:
REMARK  status: ('A' for Active; 'I' for Inactive)
REMARK    1  A    between atoms: C7_9  and  N3_10 
REMARK    2  A    between atoms: N3_10  and  C8_11 
REMARK    3  A    between atoms: C12_15  and  N4_16 
REMARK    4  A    between atoms: N4_16  and  C13_17 
REMARK    5  A    between atoms: C18_22  and  O1_23 
ROOT
HETATM    1  C1  UNL     1      20.346   4.048  50.858  1.00  0.00     0.047 C 
HETATM    2  C2  UNL     1      21.595   3.655  50.167  1.00  0.00    -0.042 C 
HETATM    3  C3  UNL     1      21.522   3.001  48.989  1.00  0.00     0.008 C 
HETATM    4  C4  UNL     1      22.834   2.699  48.434  1.00  0.00     0.031 C 
HETATM    5  C5  UNL     1      23.651   3.201  49.345  1.00  0.00     0.076 C 
HETATM    6  N1  UNL     1      25.101   3.233  49.333  1.00  0.00    -0.243 NA
HETATM    7  C6  UNL     1      25.667   4.185  50.054  1.00  0.00     0.235 C 
HETATM    8  N2  UNL     1      24.831   5.028  50.773  1.00  0.00    -0.225 NA
HETATM    9  C7  UNL     1      23.572   5.072  50.928  1.00  0.00     0.144 C 
HETATM   10  C12 UNL     1      23.063   3.735  50.537  1.00  0.00     0.156 C 
ENDROOT
BRANCH  10  11
HETATM   11  N4  UNL     1      23.060   2.917  51.725  1.00  0.00    -0.388 N 
HETATM   12  H11 UNL     1      22.646   3.377  52.574  1.00  0.00     0.155 HD
BRANCH  11  13
HETATM   13  C13 UNL     1      23.245   1.558  51.797  1.00  0.00     0.136 A 
HETATM   14  C14 UNL     1      22.184   0.715  52.326  1.00  0.00     0.001 A 
HETATM   15  C15 UNL     1      22.272  -0.263  53.254  1.00  0.00    -0.002 A 
HETATM   16  C16 UNL     1      23.565  -0.616  53.888  1.00  0.00    -0.002 A 
HETATM   17  C17 UNL     1      24.543   0.142  53.418  1.00  0.00     0.009 A 
HETATM   18  C18 UNL     1      24.622   1.224  52.433  1.00  0.00     0.194 A 
BRANCH  18  19
HETATM   19  O1  UNL     1      25.073   2.397  53.090  1.00  0.00    -0.272 OA
HETATM   20 CL1  UNL     1      26.567   2.107  53.832  1.00  0.00     0.062 Cl
ENDBRANCH  18  19
ENDBRANCH  11  13
ENDBRANCH  10  11
BRANCH   9  21
HETATM   21  N3  UNL     1      22.666   5.909  51.614  1.00  0.00    -0.342 N 
HETATM   22  H7  UNL     1      22.220   5.748  52.531  1.00  0.00     0.167 HD
BRANCH  21  23
HETATM   23  C8  UNL     1      22.462   7.087  50.794  1.00  0.00     0.033 A 
HETATM   24  C9  UNL     1      22.970   8.096  50.104  1.00  0.00     0.029 A 
HETATM   25  C10 UNL     1      21.677   8.639  49.707  1.00  0.00     0.004 A 
HETATM   26  C11 UNL     1      21.144   7.626  50.400  1.00  0.00     0.029 A 
ENDBRANCH  21  23
ENDBRANCH   9  21
TORSDOF 5
ENDMDL
MODEL 6
REMARK VINA RESULT:      -6.7      7.246     11.371
REMARK  5 active torsions:
REMARK  status: ('A' for Active; 'I' for Inactive)
REMARK    1  A    between atoms: C7_9  and  N3_10 
REMARK    2  A    between atoms: N3_10  and  C8_11 
REMARK    3  A    between atoms: C12_15  and  N4_16 
REMARK    4  A    between atoms: N4_16  and  C13_17 
REMARK    5  A    between atoms: C18_22  and  O1_23 
ROOT
HETATM    1  C1  UNL     1      30.909   8.069  44.498  1.00  0.00     0.047 C 
HETATM    2  C2  UNL     1      31.699   8.289  45.731  1.00  0.00    -0.042 C 
HETATM    3  C3  UNL     1      32.664   9.232  45.738  1.00  0.00     0.008 C 
HETATM    4  C4  UNL     1      33.338   9.333  47.025  1.00  0.00     0.031 C 
HETATM    5  C5  UNL     1      32.723   8.408  47.743  1.00  0.00     0.076 C 
HETATM    6  N1  UNL     1      32.940   8.057  49.133  1.00  0.00    -0.243 NA
HETATM    7  C6  UNL     1      31.920   7.489  49.754  1.00  0.00     0.235 C 
HETATM    8  N2  UNL     1      30.768   7.256  49.016  1.00  0.00    -0.225 NA
HETATM    9  C7  UNL     1      30.469   7.446  47.797  1.00  0.00     0.144 C 
HETATM   10  C12 UNL     1      31.756   7.589  47.075  1.00  0.00     0.156 C 
ENDROOT
BRANCH  10  11
HETATM   11  N4  UNL     1      32.153   6.271  46.647  1.00  0.00    -0.388 N 
HETATM   12  H11 UNL     1      31.472   5.793  46.005  1.00  0.00     0.155 HD
BRANCH  11  13
HETATM   13  C13 UNL     1      33.405   5.714  46.730  1.00  0.00     0.136 A 
HETATM   14  C14 UNL     1      34.139   5.409  45.510  1.00  0.00     0.001 A 
HETATM   15  C15 UNL     1      34.780   4.269  45.179  1.00  0.00    -0.002 A 
HETATM   16  C16 UNL     1      34.813   3.103  46.095  1.00  0.00    -0.002 A 
HETATM   17  C17 UNL     1      34.150   3.362  47.211  1.00  0.00     0.009 A 
HETATM   18  C18 UNL     1      33.412   4.521  47.723  1.00  0.00     0.194 A 
BRANCH  18  19
HETATM   19  O1  UNL     1      32.062   4.138  47.924  1.00  0.00    -0.272 OA
HETATM   20 CL1  UNL     1      31.588   3.035  46.730  1.00  0.00     0.062 Cl
ENDBRANCH  18  19
ENDBRANCH  11  13
ENDBRANCH  10  11
BRANCH   9  21
HETATM   21  N3  UNL     1      29.321   7.258  46.997  1.00  0.00    -0.342 N 
HETATM   22  H7  UNL     1      29.167   7.563  46.023  1.00  0.00     0.167 HD
BRANCH  21  23
HETATM   23  C8  UNL     1      28.354   6.529  47.794  1.00  0.00     0.033 A 
HETATM   24  C9  UNL     1      27.191   6.499  48.426  1.00  0.00     0.029 A 
HETATM   25  C10 UNL     1      27.333   5.122  48.883  1.00  0.00     0.004 A 
HETATM   26  C11 UNL     1      28.513   5.133  48.250  1.00  0.00     0.029 A 
ENDBRANCH  21  23
ENDBRANCH   9  21
TORSDOF 5
ENDMDL
MODEL 7
REMARK VINA RESULT:      -6.7      2.465      6.048
REMARK  5 active torsions:
REMARK  status: ('A' for Active; 'I' for Inactive)
REMARK    1  A    between atoms: C7_9  and  N3_10 
REMARK    2  A    between atoms: N3_10  and  C8_11 
REMARK    3  A    between atoms: C12_15  and  N4_16 
REMARK    4  A    between atoms: N4_16  and  C13_17 
REMARK    5  A    between atoms: C18_22  and  O1_23 
ROOT
HETATM    1  C1  UNL     1      21.964   1.352  49.426  1.00  0.00     0.047 C 
HETATM    2  C2  UNL     1      21.793   2.494  50.353  1.00  0.00    -0.042 C 
HETATM    3  C3  UNL     1      20.565   3.025  50.529  1.00  0.00     0.008 C 
HETATM    4  C4  UNL     1      20.563   4.129  51.478  1.00  0.00     0.031 C 
HETATM    5  C5  UNL     1      21.837   4.207  51.827  1.00  0.00     0.076 C 
HETATM    6  N1  UNL     1      22.454   5.110  52.780  1.00  0.00    -0.243 NA
HETATM    7  C6  UNL     1      23.586   4.695  53.322  1.00  0.00     0.235 C 
HETATM    8  N2  UNL     1      24.086   3.468  52.906  1.00  0.00    -0.225 NA
HETATM    9  C7  UNL     1      23.693   2.622  52.046  1.00  0.00     0.144 C 
HETATM   10  C12 UNL     1      22.760   3.347  51.150  1.00  0.00     0.156 C 
ENDROOT
BRANCH  10  11
HETATM   11  N4  UNL     1      23.546   3.897  50.073  1.00  0.00    -0.388 N 
HETATM   12  H11 UNL     1      23.791   3.214  49.314  1.00  0.00     0.155 HD
BRANCH  11  13
HETATM   13  C13 UNL     1      23.743   5.225  49.784  1.00  0.00     0.136 A 
HETATM   14  C14 UNL     1      23.181   5.786  48.564  1.00  0.00     0.001 A 
HETATM   15  C15 UNL     1      23.788   6.557  47.637  1.00  0.00    -0.002 A 
HETATM   16  C16 UNL     1      25.211   6.951  47.768  1.00  0.00    -0.002 A 
HETATM   17  C17 UNL     1      25.739   6.450  48.873  1.00  0.00     0.009 A 
HETATM   18  C18 UNL     1      25.235   5.613  49.965  1.00  0.00     0.194 A 
BRANCH  18  19
HETATM   19  O1  UNL     1      25.980   4.406  49.985  1.00  0.00    -0.272 OA
HETATM   20 CL1  UNL     1      27.271   4.503  48.894  1.00  0.00     0.062 Cl
ENDBRANCH  18  19
ENDBRANCH  11  13
ENDBRANCH  10  11
BRANCH   9  21
HETATM   21  N3  UNL     1      24.134   1.358  51.598  1.00  0.00    -0.342 N 
HETATM   22  H7  UNL     1      24.600   1.125  50.706  1.00  0.00     0.167 HD
BRANCH  21  23
HETATM   23  C8  UNL     1      23.822   0.398  52.639  1.00  0.00     0.033 A 
HETATM   24  C9  UNL     1      24.238  -0.449  53.568  1.00  0.00     0.029 A 
HETATM   25  C10 UNL     1      22.898  -0.848  53.981  1.00  0.00     0.004 A 
HETATM   26  C11 UNL     1      22.458   0.002  53.046  1.00  0.00     0.029 A 
ENDBRANCH  21  23
ENDBRANCH   9  21
TORSDOF 5
ENDMDL
MODEL 8
REMARK VINA RESULT:      -6.7      1.911      2.166
REMARK  5 active torsions:
REMARK  status: ('A' for Active; 'I' for Inactive)
REMARK    1  A    between atoms: C7_9  and  N3_10 
REMARK    2  A    between atoms: N3_10  and  C8_11 
REMARK    3  A    between atoms: C12_15  and  N4_16 
REMARK    4  A    between atoms: N4_16  and  C13_17 
REMARK    5  A    between atoms: C18_22  and  O1_23 
ROOT
HETATM    1  C1  UNL     1      24.167   3.594  53.138  1.00  0.00     0.047 C 
HETATM    2  C2  UNL     1      23.078   3.653  52.136  1.00  0.00    -0.042 C 
HETATM    3  C3  UNL     1      22.013   4.449  52.362  1.00  0.00     0.008 C 
HETATM    4  C4  UNL     1      21.040   4.403  51.280  1.00  0.00     0.031 C 
HETATM    5  C5  UNL     1      21.593   3.547  50.435  1.00  0.00     0.076 C 
HETATM    6  N1  UNL     1      21.099   3.115  49.142  1.00  0.00    -0.243 NA
HETATM    7  C6  UNL     1      22.010   2.674  48.291  1.00  0.00     0.235 C 
HETATM    8  N2  UNL     1      23.329   2.635  48.726  1.00  0.00    -0.225 NA
HETATM    9  C7  UNL     1      23.882   2.912  49.833  1.00  0.00     0.144 C 
HETATM   10  C12 UNL     1      22.801   2.900  50.849  1.00  0.00     0.156 C 
ENDROOT
BRANCH  10  11
HETATM   11  N4  UNL     1      22.718   1.556  51.365  1.00  0.00    -0.388 N 
HETATM   12  H11 UNL     1      23.247   0.839  50.811  1.00  0.00     0.155 HD
BRANCH  11  13
HETATM   13  C13 UNL     1      22.297   1.173  52.615  1.00  0.00     0.136 A 
HETATM   14  C14 UNL     1      23.136   0.295  53.417  1.00  0.00     0.001 A 
HETATM   15  C15 UNL     1      22.783  -0.825  54.084  1.00  0.00    -0.002 A 
HETATM   16  C16 UNL     1      21.388  -1.326  54.073  1.00  0.00    -0.002 A 
HETATM   17  C17 UNL     1      20.609  -0.539  53.348  1.00  0.00     0.009 A 
HETATM   18  C18 UNL     1      20.823   0.688  52.574  1.00  0.00     0.194 A 
BRANCH  18  19
HETATM   19  O1  UNL     1      20.509   0.422  51.217  1.00  0.00    -0.272 OA
HETATM   20 CL1  UNL     1      18.830   0.336  51.018  1.00  0.00     0.062 Cl
ENDBRANCH  18  19
ENDBRANCH  11  13
ENDBRANCH  10  11
BRANCH   9  21
HETATM   21  N3  UNL     1      25.204   2.920  50.328  1.00  0.00    -0.342 N 
HETATM   22  H7  UNL     1      25.634   2.273  51.008  1.00  0.00     0.167 HD
BRANCH  21  23
HETATM   23  C8  UNL     1      25.895   4.027  49.696  1.00  0.00     0.033 A 
HETATM   24  C9  UNL     1      26.922   4.473  48.988  1.00  0.00     0.029 A 
HETATM   25  C10 UNL     1      26.479   5.862  48.988  1.00  0.00     0.004 A 
HETATM   26  C11 UNL     1      25.434   5.430  49.704  1.00  0.00     0.029 A 
ENDBRANCH  21  23
ENDBRANCH   9  21
TORSDOF 5
ENDMDL
MODEL 9
REMARK VINA RESULT:      -6.6      1.904      2.573
REMARK  5 active torsions:
REMARK  status: ('A' for Active; 'I' for Inactive)
REMARK    1  A    between atoms: C7_9  and  N3_10 
REMARK    2  A    between atoms: N3_10  and  C8_11 
REMARK    3  A    between atoms: C12_15  and  N4_16 
REMARK    4  A    between atoms: N4_16  and  C13_17 
REMARK    5  A    between atoms: C18_22  and  O1_23 
ROOT
HETATM    1  C1  UNL     1      23.791   4.469  53.207  1.00  0.00     0.047 C 
HETATM    2  C2  UNL     1      22.845   4.250  52.089  1.00  0.00    -0.042 C 
HETATM    3  C3  UNL     1      21.518   4.302  52.326  1.00  0.00     0.008 C 
HETATM    4  C4  UNL     1      20.726   4.079  51.125  1.00  0.00     0.031 C 
HETATM    5  C5  UNL     1      21.655   3.892  50.201  1.00  0.00     0.076 C 
HETATM    6  N1  UNL     1      21.476   3.653  48.782  1.00  0.00    -0.243 NA
HETATM    7  C6  UNL     1      22.492   3.989  48.004  1.00  0.00     0.235 C 
HETATM    8  N2  UNL     1      23.629   4.498  48.617  1.00  0.00    -0.225 NA
HETATM    9  C7  UNL     1      23.942   4.693  49.832  1.00  0.00     0.144 C 
HETATM   10  C12 UNL     1      23.019   3.855  50.635  1.00  0.00     0.156 C 
ENDROOT
BRANCH  10  11
HETATM   11  N4  UNL     1      23.650   2.570  50.805  1.00  0.00    -0.388 N 
HETATM   12  H11 UNL     1      23.652   1.964  49.947  1.00  0.00     0.155 HD
BRANCH  11  13
HETATM   13  C13 UNL     1      24.483   2.183  51.825  1.00  0.00     0.136 A 
HETATM   14  C14 UNL     1      25.875   1.871  51.538  1.00  0.00     0.001 A 
HETATM   15  C15 UNL     1      26.593   0.796  51.927  1.00  0.00    -0.002 A 
HETATM   16  C16 UNL     1      25.995  -0.275  52.761  1.00  0.00    -0.002 A 
HETATM   17  C17 UNL     1      24.727  -0.007  53.033  1.00  0.00     0.009 A 
HETATM   18  C18 UNL     1      23.813   1.088  52.699  1.00  0.00     0.194 A 
BRANCH  18  19
HETATM   19  O1  UNL     1      22.734   0.558  51.946  1.00  0.00    -0.272 OA
HETATM   20 CL1  UNL     1      21.292   0.703  52.820  1.00  0.00     0.062 Cl
ENDBRANCH  18  19
ENDBRANCH  11  13
ENDBRANCH  10  11
BRANCH   9  21
HETATM   21  N3  UNL     1      25.057   5.225  50.514  1.00  0.00    -0.342 N 
HETATM   22  H7  UNL     1      25.089   5.630  51.464  1.00  0.00     0.167 HD
BRANCH  21  23
HETATM   23  C8  UNL     1      26.202   5.100  49.635  1.00  0.00     0.033 A 
HETATM   24  C9  UNL     1      27.122   4.335  49.065  1.00  0.00     0.029 A 
HETATM   25  C10 UNL     1      27.758   5.428  48.339  1.00  0.00     0.004 A 
HETATM   26  C11 UNL     1      26.837   6.217  48.905  1.00  0.00     0.029 A 
ENDBRANCH  21  23
ENDBRANCH   9  21
TORSDOF 5
ENDMDL
