MODEL 1
REMARK VINA RESULT:      -8.6      0.000      0.000
REMARK  5 active torsions:
REMARK  status: ('A' for Active; 'I' for Inactive)
REMARK    1  A    between atoms: N2_8  and  C7_9 
REMARK       I    between atoms: N3_12  and  C10_13 
REMARK    2  A    between atoms: C10_13  and  C11_15 
REMARK    3  A    between atoms: C11_15  and  N4_16 
REMARK    4  A    between atoms: N4_16  and  C12_17 
REMARK    5  A    between atoms: C14_22  and  O2_23 
ROOT
HETATM    1  C11 UNL     1      24.777   1.343  52.429  1.00  0.00     0.149 A 
HETATM    2  C15 UNL     1      24.462   1.980  51.126  1.00  0.00     0.032 A 
HETATM    3  C16 UNL     1      24.443   3.307  51.162  1.00  0.00     0.082 A 
HETATM    4  N8  UNL     1      24.746   3.675  52.516  1.00  0.00    -0.396 N 
HETATM    5  C17 UNL     1      24.881   2.517  53.377  1.00  0.00     0.164 A 
HETATM    6  H22 UNL     1      24.854   4.650  52.831  1.00  0.00     0.159 HD
ENDROOT
BRANCH   1   7
HETATM    7  C10 UNL     1      23.743   0.377  52.854  1.00  0.00     0.261 C 
HETATM    8  N3  UNL     1      22.340   0.418  52.991  1.00  0.00    -0.302 N 
HETATM    9  C9  UNL     1      21.755  -0.790  53.451  1.00  0.00     0.098 A 
HETATM   10  C18 UNL     1      21.622   1.602  52.679  1.00  0.00     0.098 A 
HETATM   11  C8  UNL     1      20.438  -0.773  53.586  1.00  0.00     0.019 A 
HETATM   12  C7  UNL     1      19.505   0.375  53.305  1.00  0.00     0.128 A 
HETATM   13  C19 UNL     1      20.315   1.506  52.850  1.00  0.00     0.019 A 
HETATM   14  O1  UNL     1      24.400  -0.666  53.119  1.00  0.00    -0.269 OA
BRANCH  12  15
HETATM   15  N2  UNL     1      18.543  -0.087  52.384  1.00  0.00    -0.395 N 
HETATM   16  C2  UNL     1      17.905   0.778  51.498  1.00  0.00     0.093 C 
HETATM   17  C1  UNL     1      17.856   0.079  50.128  1.00  0.00     0.033 C 
HETATM   18  C3  UNL     1      16.479   1.078  51.910  1.00  0.00     0.140 C 
HETATM   19  N1  UNL     1      15.759  -0.110  52.129  1.00  0.00    -0.413 N 
HETATM   20  C4  UNL     1      14.635  -0.378  51.304  1.00  0.00     0.143 C 
HETATM   21  C5  UNL     1      16.377  -1.210  52.739  1.00  0.00     0.136 C 
HETATM   22  C6  UNL     1      17.868  -1.287  52.738  1.00  0.00     0.137 C 
ENDBRANCH  12  15
ENDBRANCH   1   7
BRANCH   1  23
HETATM   23  N4  UNL     1      26.065   0.685  52.267  1.00  0.00    -0.349 N 
HETATM   24  H17 UNL     1      26.212  -0.121  51.621  1.00  0.00     0.163 HD
BRANCH  23  25
HETATM   25  C12 UNL     1      27.199   1.127  53.000  1.00  0.00     0.183 A 
HETATM   26  N5  UNL     1      27.924   2.226  52.746  1.00  0.00    -0.110 NA
HETATM   27  N6  UNL     1      28.968   2.606  53.444  1.00  0.00    -0.042 NA
HETATM   28  N7  UNL     1      29.420   1.935  54.485  1.00  0.00    -0.140 NA
HETATM   29  C13 UNL     1      28.776   0.812  54.841  1.00  0.00     0.183 A 
HETATM   30  C14 UNL     1      27.681   0.435  54.090  1.00  0.00     0.132 A 
BRANCH  30  31
HETATM   31  O2  UNL     1      27.050  -0.746  54.509  1.00  0.00    -0.356 OA
HETATM   32  H19 UNL     1      26.106  -0.753  54.908  1.00  0.00     0.218 HD
ENDBRANCH  30  31
ENDBRANCH  23  25
ENDBRANCH   1  23
TORSDOF 5
ENDMDL
MODEL 2
REMARK VINA RESULT:      -8.5      4.478      8.729
REMARK  5 active torsions:
REMARK  status: ('A' for Active; 'I' for Inactive)
REMARK    1  A    between atoms: N2_8  and  C7_9 
REMARK       I    between atoms: N3_12  and  C10_13 
REMARK    2  A    between atoms: C10_13  and  C11_15 
REMARK    3  A    between atoms: C11_15  and  N4_16 
REMARK    4  A    between atoms: N4_16  and  C12_17 
REMARK    5  A    between atoms: C14_22  and  O2_23 
ROOT
HETATM    1  C11 UNL     1      25.152   2.493  52.173  1.00  0.00     0.149 A 
HETATM    2  C15 UNL     1      23.810   3.110  52.319  1.00  0.00     0.032 A 
HETATM    3  C16 UNL     1      22.812   2.235  52.348  1.00  0.00     0.082 A 
HETATM    4  N8  UNL     1      23.413   0.938  52.220  1.00  0.00    -0.396 N 
HETATM    5  C17 UNL     1      24.846   1.020  52.021  1.00  0.00     0.164 A 
HETATM    6  H22 UNL     1      22.881   0.056  52.264  1.00  0.00     0.159 HD
ENDROOT
BRANCH   1   7
HETATM    7  C10 UNL     1      25.899   3.027  51.016  1.00  0.00     0.261 C 
HETATM    8  N3  UNL     1      25.872   4.233  50.284  1.00  0.00    -0.302 N 
HETATM    9  C9  UNL     1      26.802   4.298  49.215  1.00  0.00     0.098 A 
HETATM   10  C18 UNL     1      24.964   5.265  50.637  1.00  0.00     0.098 A 
HETATM   11  C8  UNL     1      26.793   5.422  48.517  1.00  0.00     0.019 A 
HETATM   12  C7  UNL     1      25.915   6.626  48.733  1.00  0.00     0.128 A 
HETATM   13  C19 UNL     1      25.042   6.341  49.873  1.00  0.00     0.019 A 
HETATM   14  O1  UNL     1      26.702   2.099  50.725  1.00  0.00    -0.269 OA
BRANCH  12  15
HETATM   15  N2  UNL     1      26.766   7.738  48.889  1.00  0.00    -0.395 N 
HETATM   16  C2  UNL     1      26.333   8.908  49.509  1.00  0.00     0.093 C 
HETATM   17  C1  UNL     1      27.463   9.380  50.441  1.00  0.00     0.033 C 
HETATM   18  C3  UNL     1      26.063  10.021  48.519  1.00  0.00     0.140 C 
HETATM   19  N1  UNL     1      27.171  10.225  47.678  1.00  0.00    -0.413 N 
HETATM   20  C4  UNL     1      27.826  11.485  47.720  1.00  0.00     0.143 C 
HETATM   21  C5  UNL     1      27.921   9.135  47.216  1.00  0.00     0.136 C 
HETATM   22  C6  UNL     1      27.834   7.841  47.956  1.00  0.00     0.137 C 
ENDBRANCH  12  15
ENDBRANCH   1   7
BRANCH   1  23
HETATM   23  N4  UNL     1      25.865   2.755  53.415  1.00  0.00    -0.349 N 
HETATM   24  H17 UNL     1      25.754   3.640  53.956  1.00  0.00     0.163 HD
BRANCH  23  25
HETATM   25  C12 UNL     1      26.760   1.790  53.952  1.00  0.00     0.183 A 
HETATM   26  N5  UNL     1      26.423   0.738  54.712  1.00  0.00    -0.110 NA
HETATM   27  N6  UNL     1      27.276  -0.135  55.193  1.00  0.00    -0.042 NA
HETATM   28  N7  UNL     1      28.574  -0.069  54.973  1.00  0.00    -0.140 NA
HETATM   29  C13 UNL     1      29.036   0.944  54.221  1.00  0.00     0.183 A 
HETATM   30  C14 UNL     1      28.119   1.848  53.729  1.00  0.00     0.132 A 
BRANCH  30  31
HETATM   31  O2  UNL     1      28.660   2.883  52.951  1.00  0.00    -0.356 OA
HETATM   32  H19 UNL     1      29.582   2.815  52.510  1.00  0.00     0.218 HD
ENDBRANCH  30  31
ENDBRANCH  23  25
ENDBRANCH   1  23
TORSDOF 5
ENDMDL
MODEL 3
REMARK VINA RESULT:      -8.3      2.638      3.569
REMARK  5 active torsions:
REMARK  status: ('A' for Active; 'I' for Inactive)
REMARK    1  A    between atoms: N2_8  and  C7_9 
REMARK       I    between atoms: N3_12  and  C10_13 
REMARK    2  A    between atoms: C10_13  and  C11_15 
REMARK    3  A    between atoms: C11_15  and  N4_16 
REMARK    4  A    between atoms: N4_16  and  C12_17 
REMARK    5  A    between atoms: C14_22  and  O2_23 
ROOT
HETATM    1  C11 UNL     1      25.312   0.999  53.298  1.00  0.00     0.149 A 
HETATM    2  C15 UNL     1      25.943   0.645  52.002  1.00  0.00     0.032 A 
HETATM    3  C16 UNL     1      26.632   1.634  51.446  1.00  0.00     0.082 A 
HETATM    4  N8  UNL     1      26.515   2.753  52.338  1.00  0.00    -0.396 N 
HETATM    5  C17 UNL     1      25.646   2.465  53.461  1.00  0.00     0.164 A 
HETATM    6  H22 UNL     1      26.997   3.652  52.190  1.00  0.00     0.159 HD
ENDROOT
BRANCH   1   7
HETATM    7  C10 UNL     1      23.855   0.758  53.305  1.00  0.00     0.261 C 
HETATM    8  N3  UNL     1      22.719   1.515  52.952  1.00  0.00    -0.302 N 
HETATM    9  C9  UNL     1      21.481   0.849  53.138  1.00  0.00     0.098 A 
HETATM   10  C18 UNL     1      22.865   2.836  52.454  1.00  0.00     0.098 A 
HETATM   11  C8  UNL     1      20.403   1.542  52.812  1.00  0.00     0.019 A 
HETATM   12  C7  UNL     1      20.347   2.945  52.268  1.00  0.00     0.128 A 
HETATM   13  C19 UNL     1      21.723   3.435  52.160  1.00  0.00     0.019 A 
HETATM   14  O1  UNL     1      23.750  -0.420  53.744  1.00  0.00    -0.269 OA
BRANCH  12  15
HETATM   15  N2  UNL     1      19.630   2.893  51.056  1.00  0.00    -0.395 N 
HETATM   16  C2  UNL     1      19.726   1.800  50.196  1.00  0.00     0.093 C 
HETATM   17  C1  UNL     1      18.304   1.475  49.705  1.00  0.00     0.033 C 
HETATM   18  C3  UNL     1      20.574   2.097  48.977  1.00  0.00     0.140 C 
HETATM   19  N1  UNL     1      20.133   3.265  48.331  1.00  0.00    -0.413 N 
HETATM   20  C4  UNL     1      19.652   3.157  46.999  1.00  0.00     0.143 C 
HETATM   21  C5  UNL     1      19.691   4.365  49.078  1.00  0.00     0.136 C 
HETATM   22  C6  UNL     1      19.266   4.146  50.493  1.00  0.00     0.137 C 
ENDBRANCH  12  15
ENDBRANCH   1   7
BRANCH   1  23
HETATM   23  N4  UNL     1      25.975   0.195  54.314  1.00  0.00    -0.349 N 
HETATM   24  H17 UNL     1      25.666   0.172  55.310  1.00  0.00     0.163 HD
BRANCH  23  25
HETATM   25  C12 UNL     1      27.097  -0.611  53.979  1.00  0.00     0.183 A 
HETATM   26  N5  UNL     1      27.055  -1.820  53.400  1.00  0.00    -0.110 NA
HETATM   27  N6  UNL     1      28.112  -2.539  53.103  1.00  0.00    -0.042 NA
HETATM   28  N7  UNL     1      29.345  -2.141  53.347  1.00  0.00    -0.140 NA
HETATM   29  C13 UNL     1      29.517  -0.942  53.927  1.00  0.00     0.183 A 
HETATM   30  C14 UNL     1      28.390  -0.206  54.229  1.00  0.00     0.132 A 
BRANCH  30  31
HETATM   31  O2  UNL     1      28.633   1.037  54.833  1.00  0.00    -0.356 OA
HETATM   32  H19 UNL     1      28.243   1.291  55.745  1.00  0.00     0.218 HD
ENDBRANCH  30  31
ENDBRANCH  23  25
ENDBRANCH   1  23
TORSDOF 5
ENDMDL
MODEL 4
REMARK VINA RESULT:      -8.1      1.882      2.156
REMARK  5 active torsions:
REMARK  status: ('A' for Active; 'I' for Inactive)
REMARK    1  A    between atoms: N2_8  and  C7_9 
REMARK       I    between atoms: N3_12  and  C10_13 
REMARK    2  A    between atoms: C10_13  and  C11_15 
REMARK    3  A    between atoms: C11_15  and  N4_16 
REMARK    4  A    between atoms: N4_16  and  C12_17 
REMARK    5  A    between atoms: C14_22  and  O2_23 
ROOT
HETATM    1  C11 UNL     1      25.351   0.967  53.358  1.00  0.00     0.149 A 
HETATM    2  C15 UNL     1      25.993   0.678  52.050  1.00  0.00     0.032 A 
HETATM    3  C16 UNL     1      26.437   1.756  51.415  1.00  0.00     0.082 A 
HETATM    4  N8  UNL     1      26.123   2.874  52.258  1.00  0.00    -0.396 N 
HETATM    5  C17 UNL     1      25.377   2.477  53.434  1.00  0.00     0.164 A 
HETATM    6  H22 UNL     1      26.399   3.844  52.044  1.00  0.00     0.159 HD
ENDROOT
BRANCH   1   7
HETATM    7  C10 UNL     1      23.979   0.429  53.448  1.00  0.00     0.261 C 
HETATM    8  N3  UNL     1      22.697   0.912  53.111  1.00  0.00    -0.302 N 
HETATM    9  C9  UNL     1      21.634   0.015  53.391  1.00  0.00     0.098 A 
HETATM   10  C18 UNL     1      22.544   2.201  52.539  1.00  0.00     0.098 A 
HETATM   11  C8  UNL     1      20.423   0.449  53.082  1.00  0.00     0.019 A 
HETATM   12  C7  UNL     1      20.054   1.774  52.469  1.00  0.00     0.128 A 
HETATM   13  C19 UNL     1      21.292   2.531  52.269  1.00  0.00     0.019 A 
HETATM   14  O1  UNL     1      24.139  -0.716  53.951  1.00  0.00    -0.269 OA
BRANCH  12  15
HETATM   15  N2  UNL     1      19.320   1.500  51.298  1.00  0.00    -0.395 N 
HETATM   16  C2  UNL     1      18.672   2.510  50.589  1.00  0.00     0.093 C 
HETATM   17  C1  UNL     1      18.930   2.260  49.092  1.00  0.00     0.033 C 
HETATM   18  C3  UNL     1      17.173   2.496  50.803  1.00  0.00     0.140 C 
HETATM   19  N1  UNL     1      16.642   1.219  50.547  1.00  0.00    -0.413 N 
HETATM   20  C4  UNL     1      15.702   1.080  49.491  1.00  0.00     0.143 C 
HETATM   21  C5  UNL     1      17.347   0.068  50.926  1.00  0.00     0.136 C 
HETATM   22  C6  UNL     1      18.815   0.178  51.174  1.00  0.00     0.137 C 
ENDBRANCH  12  15
ENDBRANCH   1   7
BRANCH   1  23
HETATM   23  N4  UNL     1      26.206   0.376  54.377  1.00  0.00    -0.349 N 
HETATM   24  H17 UNL     1      25.934   0.319  55.382  1.00  0.00     0.163 HD
BRANCH  23  25
HETATM   25  C12 UNL     1      27.477  -0.159  54.032  1.00  0.00     0.183 A 
HETATM   26  N5  UNL     1      27.728  -1.427  53.673  1.00  0.00    -0.110 NA
HETATM   27  N6  UNL     1      28.915  -1.890  53.361  1.00  0.00    -0.042 NA
HETATM   28  N7  UNL     1      30.003  -1.144  53.366  1.00  0.00    -0.140 NA
HETATM   29  C13 UNL     1      29.880   0.149  53.710  1.00  0.00     0.183 A 
HETATM   30  C14 UNL     1      28.621   0.610  54.034  1.00  0.00     0.132 A 
BRANCH  30  31
HETATM   31  O2  UNL     1      28.555   1.967  54.384  1.00  0.00    -0.356 OA
HETATM   32  H19 UNL     1      28.362   2.703  53.698  1.00  0.00     0.218 HD
ENDBRANCH  30  31
ENDBRANCH  23  25
ENDBRANCH   1  23
TORSDOF 5
ENDMDL
MODEL 5
REMARK VINA RESULT:      -7.8      3.929      6.077
REMARK  5 active torsions:
REMARK  status: ('A' for Active; 'I' for Inactive)
REMARK    1  A    between atoms: N2_8  and  C7_9 
REMARK       I    between atoms: N3_12  and  C10_13 
REMARK    2  A    between atoms: C10_13  and  C11_15 
REMARK    3  A    between atoms: C11_15  and  N4_16 
REMARK    4  A    between atoms: N4_16  and  C12_17 
REMARK    5  A    between atoms: C14_22  and  O2_23 
ROOT
HETATM    1  C11 UNL     1      26.414   1.060  52.834  1.00  0.00     0.149 A 
HETATM    2  C15 UNL     1      27.684   0.291  52.847  1.00  0.00     0.032 A 
HETATM    3  C16 UNL     1      28.294   0.274  54.026  1.00  0.00     0.082 A 
HETATM    4  N8  UNL     1      27.471   1.043  54.914  1.00  0.00    -0.396 N 
HETATM    5  C17 UNL     1      26.337   1.633  54.231  1.00  0.00     0.164 A 
HETATM    6  H22 UNL     1      27.669   1.159  55.919  1.00  0.00     0.159 HD
ENDROOT
BRANCH   1   7
HETATM    7  C10 UNL     1      26.400   2.115  51.800  1.00  0.00     0.261 C 
HETATM    8  N3  UNL     1      25.418   2.656  50.944  1.00  0.00    -0.302 N 
HETATM    9  C9  UNL     1      25.882   3.686  50.086  1.00  0.00     0.098 A 
HETATM   10  C18 UNL     1      24.086   2.168  50.982  1.00  0.00     0.098 A 
HETATM   11  C8  UNL     1      24.976   4.208  49.276  1.00  0.00     0.019 A 
HETATM   12  C7  UNL     1      23.521   3.832  49.167  1.00  0.00     0.128 A 
HETATM   13  C19 UNL     1      23.265   2.760  50.131  1.00  0.00     0.019 A 
HETATM   14  O1  UNL     1      27.588   2.537  51.788  1.00  0.00    -0.269 OA
BRANCH  12  15
HETATM   15  N2  UNL     1      22.773   5.010  49.364  1.00  0.00    -0.395 N 
HETATM   16  C2  UNL     1      21.665   5.039  50.208  1.00  0.00     0.093 C 
HETATM   17  C1  UNL     1      21.744   6.339  51.028  1.00  0.00     0.033 C 
HETATM   18  C3  UNL     1      20.357   5.059  49.445  1.00  0.00     0.140 C 
HETATM   19  N1  UNL     1      20.348   6.095  48.493  1.00  0.00    -0.413 N 
HETATM   20  C4  UNL     1      19.380   7.126  48.629  1.00  0.00     0.143 C 
HETATM   21  C5  UNL     1      21.508   6.404  47.770  1.00  0.00     0.136 C 
HETATM   22  C6  UNL     1      22.828   5.966  48.313  1.00  0.00     0.137 C 
ENDBRANCH  12  15
ENDBRANCH   1   7
BRANCH   1  23
HETATM   23  N4  UNL     1      25.350   0.095  52.604  1.00  0.00    -0.349 N 
HETATM   24  H17 UNL     1      25.063  -0.215  51.650  1.00  0.00     0.163 HD
BRANCH  23  25
HETATM   25  C12 UNL     1      24.643  -0.476  53.697  1.00  0.00     0.183 A 
HETATM   26  N5  UNL     1      25.189  -0.985  54.810  1.00  0.00    -0.110 NA
HETATM   27  N6  UNL     1      24.507  -1.505  55.803  1.00  0.00    -0.042 NA
HETATM   28  N7  UNL     1      23.191  -1.583  55.808  1.00  0.00    -0.140 NA
HETATM   29  C13 UNL     1      22.526  -1.104  54.743  1.00  0.00     0.183 A 
HETATM   30  C14 UNL     1      23.267  -0.563  53.714  1.00  0.00     0.132 A 
BRANCH  30  31
HETATM   31  O2  UNL     1      22.519  -0.079  52.630  1.00  0.00    -0.356 OA
HETATM   32  H19 UNL     1      22.072   0.842  52.638  1.00  0.00     0.218 HD
ENDBRANCH  30  31
ENDBRANCH  23  25
ENDBRANCH   1  23
TORSDOF 5
ENDMDL
MODEL 6
REMARK VINA RESULT:      -7.7      3.366      4.454
REMARK  5 active torsions:
REMARK  status: ('A' for Active; 'I' for Inactive)
REMARK    1  A    between atoms: N2_8  and  C7_9 
REMARK       I    between atoms: N3_12  and  C10_13 
REMARK    2  A    between atoms: C10_13  and  C11_15 
REMARK    3  A    between atoms: C11_15  and  N4_16 
REMARK    4  A    between atoms: N4_16  and  C12_17 
REMARK    5  A    between atoms: C14_22  and  O2_23 
ROOT
HETATM    1  C11 UNL     1      24.547   1.638  52.461  1.00  0.00     0.149 A 
HETATM    2  C15 UNL     1      23.301   1.509  53.257  1.00  0.00     0.032 A 
HETATM    3  C16 UNL     1      23.001   0.261  53.595  1.00  0.00     0.082 A 
HETATM    4  N8  UNL     1      24.038  -0.563  53.043  1.00  0.00    -0.396 N 
HETATM    5  C17 UNL     1      24.983   0.205  52.258  1.00  0.00     0.164 A 
HETATM    6  H22 UNL     1      24.097  -1.581  53.193  1.00  0.00     0.159 HD
ENDROOT
BRANCH   1   7
HETATM    7  C10 UNL     1      24.333   2.341  51.180  1.00  0.00     0.261 C 
HETATM    8  N3  UNL     1      23.337   2.308  50.181  1.00  0.00    -0.302 N 
HETATM    9  C9  UNL     1      23.564   3.186  49.090  1.00  0.00     0.098 A 
HETATM   10  C18 UNL     1      22.219   1.444  50.312  1.00  0.00     0.098 A 
HETATM   11  C8  UNL     1      22.640   3.171  48.143  1.00  0.00     0.019 A 
HETATM   12  C7  UNL     1      21.388   2.335  48.098  1.00  0.00     0.128 A 
HETATM   13  C19 UNL     1      21.360   1.512  49.309  1.00  0.00     0.019 A 
HETATM   14  O1  UNL     1      25.332   3.105  51.088  1.00  0.00    -0.269 OA
BRANCH  12  15
HETATM   15  N2  UNL     1      20.303   3.220  47.947  1.00  0.00    -0.395 N 
HETATM   16  C2  UNL     1      19.332   3.362  48.936  1.00  0.00     0.093 C 
HETATM   17  C1  UNL     1      19.035   4.866  49.077  1.00  0.00     0.033 C 
HETATM   18  C3  UNL     1      18.033   2.672  48.574  1.00  0.00     0.140 C 
HETATM   19  N1  UNL     1      17.585   3.078  47.305  1.00  0.00    -0.413 N 
HETATM   20  C4  UNL     1      16.339   3.754  47.215  1.00  0.00     0.143 C 
HETATM   21  C5  UNL     1      18.500   3.292  46.265  1.00  0.00     0.136 C 
HETATM   22  C6  UNL     1      19.933   3.530  46.609  1.00  0.00     0.137 C 
ENDBRANCH  12  15
ENDBRANCH   1   7
BRANCH   1  23
HETATM   23  N4  UNL     1      25.497   2.360  53.295  1.00  0.00    -0.349 N 
HETATM   24  H17 UNL     1      25.384   3.369  53.539  1.00  0.00     0.163 HD
BRANCH  23  25
HETATM   25  C12 UNL     1      26.641   1.703  53.822  1.00  0.00     0.183 A 
HETATM   26  N5  UNL     1      26.647   0.806  54.819  1.00  0.00    -0.110 NA
HETATM   27  N6  UNL     1      27.723   0.217  55.283  1.00  0.00    -0.042 NA
HETATM   28  N7  UNL     1      28.931   0.449  54.809  1.00  0.00    -0.140 NA
HETATM   29  C13 UNL     1      29.056   1.332  53.804  1.00  0.00     0.183 A 
HETATM   30  C14 UNL     1      27.909   1.937  53.336  1.00  0.00     0.132 A 
BRANCH  30  31
HETATM   31  O2  UNL     1      28.102   2.849  52.287  1.00  0.00    -0.356 OA
HETATM   32  H19 UNL     1      27.387   3.528  52.010  1.00  0.00     0.218 HD
ENDBRANCH  30  31
ENDBRANCH  23  25
ENDBRANCH   1  23
TORSDOF 5
ENDMDL
MODEL 7
REMARK VINA RESULT:      -7.7      4.876      7.775
REMARK  5 active torsions:
REMARK  status: ('A' for Active; 'I' for Inactive)
REMARK    1  A    between atoms: N2_8  and  C7_9 
REMARK       I    between atoms: N3_12  and  C10_13 
REMARK    2  A    between atoms: C10_13  and  C11_15 
REMARK    3  A    between atoms: C11_15  and  N4_16 
REMARK    4  A    between atoms: N4_16  and  C12_17 
REMARK    5  A    between atoms: C14_22  and  O2_23 
ROOT
HETATM    1  C11 UNL     1      23.228   6.068  50.089  1.00  0.00     0.149 A 
HETATM    2  C15 UNL     1      21.793   5.918  49.739  1.00  0.00     0.032 A 
HETATM    3  C16 UNL     1      21.141   7.068  49.621  1.00  0.00     0.082 A 
HETATM    4  N8  UNL     1      22.100   8.101  49.889  1.00  0.00    -0.396 N 
HETATM    5  C17 UNL     1      23.390   7.560  50.269  1.00  0.00     0.164 A 
HETATM    6  H22 UNL     1      21.889   9.107  49.817  1.00  0.00     0.159 HD
ENDROOT
BRANCH   1   7
HETATM    7  C10 UNL     1      23.597   5.318  51.307  1.00  0.00     0.261 C 
HETATM    8  N3  UNL     1      23.830   3.960  51.606  1.00  0.00    -0.302 N 
HETATM    9  C9  UNL     1      24.165   3.700  52.960  1.00  0.00     0.098 A 
HETATM   10  C18 UNL     1      23.725   2.973  50.591  1.00  0.00     0.098 A 
HETATM   11  C8  UNL     1      24.390   2.432  53.261  1.00  0.00     0.019 A 
HETATM   12  C7  UNL     1      24.331   1.247  52.334  1.00  0.00     0.128 A 
HETATM   13  C19 UNL     1      23.970   1.741  51.003  1.00  0.00     0.019 A 
HETATM   14  O1  UNL     1      23.691   6.212  52.191  1.00  0.00    -0.269 OA
BRANCH  12  15
HETATM   15  N2  UNL     1      25.577   0.594  52.415  1.00  0.00    -0.395 N 
HETATM   16  C2  UNL     1      25.792  -0.462  53.298  1.00  0.00     0.093 C 
HETATM   17  C1  UNL     1      26.586  -1.542  52.541  1.00  0.00     0.033 C 
HETATM   18  C3  UNL     1      26.613  -0.051  54.503  1.00  0.00     0.140 C 
HETATM   19  N1  UNL     1      27.805   0.581  54.105  1.00  0.00    -0.413 N 
HETATM   20  C4  UNL     1      29.039  -0.028  54.453  1.00  0.00     0.143 C 
HETATM   21  C5  UNL     1      27.814   1.450  53.005  1.00  0.00     0.136 C 
HETATM   22  C6  UNL     1      26.707   1.353  52.007  1.00  0.00     0.137 C 
ENDBRANCH  12  15
ENDBRANCH   1   7
BRANCH   1  23
HETATM   23  N4  UNL     1      23.985   5.594  48.940  1.00  0.00    -0.349 N 
HETATM   24  H17 UNL     1      23.732   4.731  48.411  1.00  0.00     0.163 HD
BRANCH  23  25
HETATM   25  C12 UNL     1      25.126   6.308  48.482  1.00  0.00     0.183 A 
HETATM   26  N5  UNL     1      25.120   7.341  47.627  1.00  0.00    -0.110 NA
HETATM   27  N6  UNL     1      26.193   7.978  47.224  1.00  0.00    -0.042 NA
HETATM   28  N7  UNL     1      27.409   7.665  47.625  1.00  0.00    -0.140 NA
HETATM   29  C13 UNL     1      27.546   6.643  48.486  1.00  0.00     0.183 A 
HETATM   30  C14 UNL     1      26.402   5.989  48.894  1.00  0.00     0.132 A 
BRANCH  30  31
HETATM   31  O2  UNL     1      26.607   4.932  49.792  1.00  0.00    -0.356 OA
HETATM   32  H19 UNL     1      27.234   4.148  49.586  1.00  0.00     0.218 HD
ENDBRANCH  30  31
ENDBRANCH  23  25
ENDBRANCH   1  23
TORSDOF 5
ENDMDL
MODEL 8
REMARK VINA RESULT:      -7.7      5.787      8.599
REMARK  5 active torsions:
REMARK  status: ('A' for Active; 'I' for Inactive)
REMARK    1  A    between atoms: N2_8  and  C7_9 
REMARK       I    between atoms: N3_12  and  C10_13 
REMARK    2  A    between atoms: C10_13  and  C11_15 
REMARK    3  A    between atoms: C11_15  and  N4_16 
REMARK    4  A    between atoms: N4_16  and  C12_17 
REMARK    5  A    between atoms: C14_22  and  O2_23 
ROOT
HETATM    1  C11 UNL     1      27.108   8.070  48.688  1.00  0.00     0.149 A 
HETATM    2  C15 UNL     1      27.334   7.555  47.314  1.00  0.00     0.032 A 
HETATM    3  C16 UNL     1      27.203   8.474  46.364  1.00  0.00     0.082 A 
HETATM    4  N8  UNL     1      26.872   9.698  47.034  1.00  0.00    -0.396 N 
HETATM    5  C17 UNL     1      26.711   9.511  48.462  1.00  0.00     0.164 A 
HETATM    6  H22 UNL     1      26.763  10.601  46.550  1.00  0.00     0.159 HD
ENDROOT
BRANCH   1   7
HETATM    7  C10 UNL     1      26.067   7.314  49.413  1.00  0.00     0.261 C 
HETATM    8  N3  UNL     1      25.870   5.956  49.742  1.00  0.00    -0.302 N 
HETATM    9  C9  UNL     1      24.681   5.690  50.469  1.00  0.00     0.098 A 
HETATM   10  C18 UNL     1      26.821   4.978  49.351  1.00  0.00     0.098 A 
HETATM   11  C8  UNL     1      24.478   4.422  50.789  1.00  0.00     0.019 A 
HETATM   12  C7  UNL     1      25.363   3.245  50.471  1.00  0.00     0.128 A 
HETATM   13  C19 UNL     1      26.518   3.746  49.723  1.00  0.00     0.019 A 
HETATM   14  O1  UNL     1      25.238   8.201  49.756  1.00  0.00    -0.269 OA
BRANCH  12  15
HETATM   15  N2  UNL     1      25.666   2.611  51.692  1.00  0.00    -0.395 N 
HETATM   16  C2  UNL     1      26.789   1.799  51.835  1.00  0.00     0.093 C 
HETATM   17  C1  UNL     1      27.435   2.142  53.189  1.00  0.00     0.033 C 
HETATM   18  C3  UNL     1      26.439   0.326  51.856  1.00  0.00     0.140 C 
HETATM   19  N1  UNL     1      25.445   0.060  52.814  1.00  0.00    -0.413 N 
HETATM   20  C4  UNL     1      25.766  -0.805  53.895  1.00  0.00     0.143 C 
HETATM   21  C5  UNL     1      24.393   0.964  53.015  1.00  0.00     0.136 C 
HETATM   22  C6  UNL     1      24.566   2.376  52.562  1.00  0.00     0.137 C 
ENDBRANCH  12  15
ENDBRANCH   1   7
BRANCH   1  23
HETATM   23  N4  UNL     1      28.387   7.980  49.377  1.00  0.00    -0.349 N 
HETATM   24  H17 UNL     1      28.467   7.872  50.412  1.00  0.00     0.163 HD
BRANCH  23  25
HETATM   25  C12 UNL     1      29.606   8.038  48.649  1.00  0.00     0.183 A 
HETATM   26  N5  UNL     1      30.078   9.102  47.983  1.00  0.00    -0.110 NA
HETATM   27  N6  UNL     1      31.210   9.122  47.320  1.00  0.00    -0.042 NA
HETATM   28  N7  UNL     1      32.014   8.080  47.238  1.00  0.00    -0.140 NA
HETATM   29  C13 UNL     1      31.649   6.950  47.866  1.00  0.00     0.183 A 
HETATM   30  C14 UNL     1      30.455   6.956  48.556  1.00  0.00     0.132 A 
BRANCH  30  31
HETATM   31  O2  UNL     1      30.128   5.749  49.191  1.00  0.00    -0.356 OA
HETATM   32  H19 UNL     1      29.677   4.973  48.698  1.00  0.00     0.218 HD
ENDBRANCH  30  31
ENDBRANCH  23  25
ENDBRANCH   1  23
TORSDOF 5
ENDMDL
MODEL 9
REMARK VINA RESULT:      -7.7      5.284      8.185
REMARK  5 active torsions:
REMARK  status: ('A' for Active; 'I' for Inactive)
REMARK    1  A    between atoms: N2_8  and  C7_9 
REMARK       I    between atoms: N3_12  and  C10_13 
REMARK    2  A    between atoms: C10_13  and  C11_15 
REMARK    3  A    between atoms: C11_15  and  N4_16 
REMARK    4  A    between atoms: N4_16  and  C12_17 
REMARK    5  A    between atoms: C14_22  and  O2_23 
ROOT
HETATM    1  C11 UNL     1      25.333   7.466  49.466  1.00  0.00     0.149 A 
HETATM    2  C15 UNL     1      25.055   6.970  48.094  1.00  0.00     0.032 A 
HETATM    3  C16 UNL     1      24.588   7.898  47.268  1.00  0.00     0.082 A 
HETATM    4  N8  UNL     1      24.511   9.111  48.031  1.00  0.00    -0.396 N 
HETATM    5  C17 UNL     1      24.874   8.905  49.419  1.00  0.00     0.164 A 
HETATM    6  H22 UNL     1      24.231  10.019  47.631  1.00  0.00     0.159 HD
ENDROOT
BRANCH   1   7
HETATM    7  C10 UNL     1      24.625   6.690  50.504  1.00  0.00     0.261 C 
HETATM    8  N3  UNL     1      24.488   5.318  50.802  1.00  0.00    -0.302 N 
HETATM    9  C9  UNL     1      23.678   5.034  51.931  1.00  0.00     0.098 A 
HETATM   10  C18 UNL     1      25.135   4.342  49.998  1.00  0.00     0.098 A 
HETATM   11  C8  UNL     1      23.539   3.753  52.228  1.00  0.00     0.019 A 
HETATM   12  C7  UNL     1      24.141   2.576  51.507  1.00  0.00     0.128 A 
HETATM   13  C19 UNL     1      24.927   3.095  50.386  1.00  0.00     0.019 A 
HETATM   14  O1  UNL     1      24.065   7.575  51.208  1.00  0.00    -0.269 OA
BRANCH  12  15
HETATM   15  N2  UNL     1      24.867   1.833  52.459  1.00  0.00    -0.395 N 
HETATM   16  C2  UNL     1      26.251   1.691  52.374  1.00  0.00     0.093 C 
HETATM   17  C1  UNL     1      26.820   1.868  53.793  1.00  0.00     0.033 C 
HETATM   18  C3  UNL     1      26.663   0.319  51.884  1.00  0.00     0.140 C 
HETATM   19  N1  UNL     1      26.055  -0.691  52.652  1.00  0.00    -0.413 N 
HETATM   20  C4  UNL     1      26.891  -1.567  53.394  1.00  0.00     0.143 C 
HETATM   21  C5  UNL     1      24.733  -0.546  53.094  1.00  0.00     0.136 C 
HETATM   22  C6  UNL     1      24.142   0.824  53.147  1.00  0.00     0.137 C 
ENDBRANCH  12  15
ENDBRANCH   1   7
BRANCH   1  23
HETATM   23  N4  UNL     1      26.775   7.382  49.651  1.00  0.00    -0.349 N 
HETATM   24  H17 UNL     1      27.233   6.621  50.199  1.00  0.00     0.163 HD
BRANCH  23  25
HETATM   25  C12 UNL     1      27.635   8.357  49.077  1.00  0.00     0.183 A 
HETATM   26  N5  UNL     1      28.071   8.376  47.809  1.00  0.00    -0.110 NA
HETATM   27  N6  UNL     1      28.866   9.293  47.310  1.00  0.00    -0.042 NA
HETATM   28  N7  UNL     1      29.325  10.308  48.015  1.00  0.00    -0.140 NA
HETATM   29  C13 UNL     1      28.957  10.399  49.303  1.00  0.00     0.183 A 
HETATM   30  C14 UNL     1      28.121   9.423  49.803  1.00  0.00     0.132 A 
BRANCH  30  31
HETATM   31  O2  UNL     1      27.771   9.572  51.153  1.00  0.00    -0.356 OA
HETATM   32  H19 UNL     1      26.983   9.071  51.575  1.00  0.00     0.218 HD
ENDBRANCH  30  31
ENDBRANCH  23  25
ENDBRANCH   1  23
TORSDOF 5
ENDMDL
