MODEL 1
REMARK VINA RESULT:      -9.6      0.000      0.000
REMARK  5 active torsions:
REMARK  status: ('A' for Active; 'I' for Inactive)
REMARK       I    between atoms: N1_1  and  C1_2 
REMARK    1  A    between atoms: C1_2  and  C2_4 
REMARK    2  A    between atoms: C7_10  and  N3_11 
REMARK    3  A    between atoms: C10_15  and  N5_16 
REMARK    4  A    between atoms: N5_16  and  C11_17 
REMARK       I    between atoms: N6_20  and  C14_21 
REMARK    5  A    between atoms: C14_21  and  C15_23 
ROOT
HETATM    1  C2  UNL     1      31.419   8.198  47.083  1.00  0.00     0.127 A 
HETATM    2  N2  UNL     1      32.493   7.530  46.912  1.00  0.00    -0.283 NA
HETATM    3  C3  UNL     1      32.656   6.136  47.144  1.00  0.00     0.154 A 
HETATM    4  C4  UNL     1      31.402   5.447  47.599  1.00  0.00     0.063 A 
HETATM    5  C5  UNL     1      30.258   6.356  47.749  1.00  0.00    -0.015 A 
HETATM    6  C6  UNL     1      30.163   7.656  47.533  1.00  0.00     0.022 A 
HETATM    7  C7  UNL     1      28.823   8.178  47.811  1.00  0.00     0.290 A 
HETATM    8  C8  UNL     1      28.095   6.942  48.245  1.00  0.00     0.027 A 
HETATM    9  C9  UNL     1      26.771   6.907  48.621  1.00  0.00     0.148 A 
HETATM   10  N4  UNL     1      26.271   5.706  48.982  1.00  0.00    -0.075 NA
HETATM   11  C10 UNL     1      27.084   4.609  48.958  1.00  0.00     0.723 A 
HETATM   12  N7  UNL     1      28.357   4.730  48.581  1.00  0.00    -0.062 NA
HETATM   13  C23 UNL     1      28.949   5.867  48.206  1.00  0.00     0.093 A 
ENDROOT
BRANCH  11  14
HETATM   14  N5  UNL     1      26.529   3.352  49.334  1.00  0.00    -0.218 N 
HETATM   15  H11 UNL     1      26.457   2.590  48.628  1.00  0.00     0.178 HD
BRANCH  14  16
HETATM   16  C11 UNL     1      26.092   3.197  50.689  1.00  0.00     0.102 C 
HETATM   17  C12 UNL     1      24.595   2.837  50.651  1.00  0.00     0.045 C 
HETATM   18  C13 UNL     1      24.126   2.693  52.087  1.00  0.00     0.128 C 
HETATM   19  N6  UNL     1      24.892   1.607  52.676  1.00  0.00    -0.348 N 
HETATM   20  C14 UNL     1      24.362   0.401  53.237  1.00  0.00     0.253 C 
HETATM   21  C21 UNL     1      26.332   1.779  52.692  1.00  0.00     0.128 C 
HETATM   22  O2  UNL     1      25.130  -0.495  53.727  1.00  0.00    -0.267 OA
HETATM   23  C22 UNL     1      26.785   1.960  51.261  1.00  0.00     0.045 C 
BRANCH  20  24
HETATM   24  C15 UNL     1      22.997  -0.024  53.359  1.00  0.00     0.032 A 
HETATM   25  C16 UNL     1      22.615  -0.892  54.387  1.00  0.00     0.017 A 
HETATM   26  C17 UNL     1      21.324  -1.352  54.587  1.00  0.00     0.001 A 
HETATM   27  C18 UNL     1      20.346  -0.923  53.711  1.00  0.00     0.000 A 
HETATM   28  C19 UNL     1      20.651  -0.068  52.677  1.00  0.00     0.001 A 
HETATM   29  C20 UNL     1      21.957   0.352  52.534  1.00  0.00     0.017 A 
ENDBRANCH  20  24
ENDBRANCH  14  16
ENDBRANCH  11  14
BRANCH   7  30
HETATM   30  N3  UNL     1      28.164   8.697  46.628  1.00  0.00     0.091 N 
HETATM   31  H8  UNL     1      28.791   9.463  46.278  1.00  0.00     0.314 HD
HETATM   32  H9  UNL     1      27.267   9.121  46.955  1.00  0.00     0.314 HD
ENDBRANCH   7  30
BRANCH   1  33
HETATM   33  C1  UNL     1      31.503   9.626  46.773  1.00  0.00     0.268 C 
HETATM   34  N1  UNL     1      32.324  10.563  47.465  1.00  0.00    -0.365 N 
HETATM   35  H1  UNL     1      32.145  10.582  48.497  1.00  0.00     0.159 HD
HETATM   36  H2  UNL     1      33.048  11.187  47.004  1.00  0.00     0.159 HD
HETATM   37  O1  UNL     1      30.872  10.225  45.866  1.00  0.00    -0.266 OA
ENDBRANCH   1  33
TORSDOF 5
ENDMDL
MODEL 2
REMARK VINA RESULT:      -9.4      5.389      9.190
REMARK  5 active torsions:
REMARK  status: ('A' for Active; 'I' for Inactive)
REMARK       I    between atoms: N1_1  and  C1_2 
REMARK    1  A    between atoms: C1_2  and  C2_4 
REMARK    2  A    between atoms: C7_10  and  N3_11 
REMARK    3  A    between atoms: C10_15  and  N5_16 
REMARK    4  A    between atoms: N5_16  and  C11_17 
REMARK       I    between atoms: N6_20  and  C14_21 
REMARK    5  A    between atoms: C14_21  and  C15_23 
ROOT
HETATM    1  C2  UNL     1      27.244   0.322  53.247  1.00  0.00     0.127 A 
HETATM    2  N2  UNL     1      27.630   1.243  52.454  1.00  0.00    -0.283 NA
HETATM    3  C3  UNL     1      26.786   2.124  51.721  1.00  0.00     0.154 A 
HETATM    4  C4  UNL     1      25.322   1.914  51.979  1.00  0.00     0.063 A 
HETATM    5  C5  UNL     1      25.047   0.814  52.912  1.00  0.00    -0.015 A 
HETATM    6  C6  UNL     1      25.873   0.011  53.559  1.00  0.00     0.022 A 
HETATM    7  C7  UNL     1      25.173  -0.963  54.400  1.00  0.00     0.290 A 
HETATM    8  C8  UNL     1      23.738  -0.608  54.151  1.00  0.00     0.027 A 
HETATM    9  C9  UNL     1      22.664  -1.248  54.728  1.00  0.00     0.148 A 
HETATM   10  N4  UNL     1      21.435  -0.799  54.395  1.00  0.00    -0.075 NA
HETATM   11  C10 UNL     1      21.319   0.245  53.524  1.00  0.00     0.723 A 
HETATM   12  N7  UNL     1      22.412   0.811  53.010  1.00  0.00    -0.062 NA
HETATM   13  C23 UNL     1      23.669   0.444  53.271  1.00  0.00     0.093 A 
ENDROOT
BRANCH  11  14
HETATM   14  N5  UNL     1      20.011   0.708  53.198  1.00  0.00    -0.218 N 
HETATM   15  H11 UNL     1      19.224   0.527  53.854  1.00  0.00     0.178 HD
BRANCH  14  16
HETATM   16  C11 UNL     1      19.844   1.410  51.961  1.00  0.00     0.102 C 
HETATM   17  C12 UNL     1      20.728   2.670  52.024  1.00  0.00     0.045 C 
HETATM   18  C13 UNL     1      20.535   3.426  50.723  1.00  0.00     0.128 C 
HETATM   19  N6  UNL     1      20.981   2.549  49.652  1.00  0.00    -0.348 N 
HETATM   20  C14 UNL     1      22.026   2.820  48.712  1.00  0.00     0.253 C 
HETATM   21  C21 UNL     1      20.287   1.280  49.539  1.00  0.00     0.128 C 
HETATM   22  O2  UNL     1      22.340   1.972  47.810  1.00  0.00    -0.267 OA
HETATM   23  C22 UNL     1      20.452   0.551  50.853  1.00  0.00     0.045 C 
BRANCH  20  24
HETATM   24  C15 UNL     1      22.861   3.980  48.588  1.00  0.00     0.032 A 
HETATM   25  C16 UNL     1      24.113   4.021  49.212  1.00  0.00     0.017 A 
HETATM   26  C17 UNL     1      24.988   5.092  49.147  1.00  0.00     0.001 A 
HETATM   27  C18 UNL     1      24.598   6.196  48.414  1.00  0.00     0.000 A 
HETATM   28  C19 UNL     1      23.380   6.224  47.774  1.00  0.00     0.001 A 
HETATM   29  C20 UNL     1      22.555   5.124  47.880  1.00  0.00     0.017 A 
ENDBRANCH  20  24
ENDBRANCH  14  16
ENDBRANCH  11  14
BRANCH   7  30
HETATM   30  N3  UNL     1      25.442  -0.782  55.814  1.00  0.00     0.091 N 
HETATM   31  H8  UNL     1      26.068  -1.584  56.078  1.00  0.00     0.314 HD
HETATM   32  H9  UNL     1      24.526  -0.897  56.303  1.00  0.00     0.314 HD
ENDBRANCH   7  30
BRANCH   1  33
HETATM   33  C1  UNL     1      28.308  -0.453  53.887  1.00  0.00     0.268 C 
HETATM   34  N1  UNL     1      28.741  -1.745  53.467  1.00  0.00    -0.365 N 
HETATM   35  H1  UNL     1      27.964  -2.445  53.431  1.00  0.00     0.159 HD
HETATM   36  H2  UNL     1      29.741  -1.993  53.213  1.00  0.00     0.159 HD
HETATM   37  O1  UNL     1      28.985  -0.098  54.885  1.00  0.00    -0.266 OA
ENDBRANCH   1  33
TORSDOF 5
ENDMDL
MODEL 3
REMARK VINA RESULT:      -9.3      1.533      2.865
REMARK  5 active torsions:
REMARK  status: ('A' for Active; 'I' for Inactive)
REMARK       I    between atoms: N1_1  and  C1_2 
REMARK    1  A    between atoms: C1_2  and  C2_4 
REMARK    2  A    between atoms: C7_10  and  N3_11 
REMARK    3  A    between atoms: C10_15  and  N5_16 
REMARK    4  A    between atoms: N5_16  and  C11_17 
REMARK       I    between atoms: N6_20  and  C14_21 
REMARK    5  A    between atoms: C14_21  and  C15_23 
ROOT
HETATM    1  C2  UNL     1      28.723  10.537  47.921  1.00  0.00     0.127 A 
HETATM    2  N2  UNL     1      27.782  11.385  48.071  1.00  0.00    -0.283 NA
HETATM    3  C3  UNL     1      26.434  11.087  48.415  1.00  0.00     0.154 A 
HETATM    4  C4  UNL     1      26.176   9.625  48.638  1.00  0.00     0.063 A 
HETATM    5  C5  UNL     1      27.361   8.784  48.422  1.00  0.00    -0.015 A 
HETATM    6  C6  UNL     1      28.596   9.113  48.087  1.00  0.00     0.022 A 
HETATM    7  C7  UNL     1      29.479   7.950  47.975  1.00  0.00     0.290 A 
HETATM    8  C8  UNL     1      28.549   6.823  48.309  1.00  0.00     0.027 A 
HETATM    9  C9  UNL     1      28.911   5.495  48.343  1.00  0.00     0.148 A 
HETATM   10  N4  UNL     1      27.947   4.608  48.665  1.00  0.00    -0.075 NA
HETATM   11  C10 UNL     1      26.687   5.059  48.937  1.00  0.00     0.723 A 
HETATM   12  N7  UNL     1      26.419   6.364  48.881  1.00  0.00    -0.062 NA
HETATM   13  C23 UNL     1      27.297   7.322  48.573  1.00  0.00     0.093 A 
ENDROOT
BRANCH  11  14
HETATM   14  N5  UNL     1      25.690   4.103  49.285  1.00  0.00    -0.218 N 
HETATM   15  H11 UNL     1      25.031   3.759  48.556  1.00  0.00     0.178 HD
BRANCH  14  16
HETATM   16  C11 UNL     1      25.645   3.654  50.644  1.00  0.00     0.102 C 
HETATM   17  C12 UNL     1      24.191   3.249  50.947  1.00  0.00     0.045 C 
HETATM   18  C13 UNL     1      24.138   2.793  52.393  1.00  0.00     0.128 C 
HETATM   19  N6  UNL     1      25.017   1.642  52.508  1.00  0.00    -0.348 N 
HETATM   20  C14 UNL     1      24.643   0.325  52.928  1.00  0.00     0.253 C 
HETATM   21  C21 UNL     1      26.408   1.866  52.161  1.00  0.00     0.128 C 
HETATM   22  O2  UNL     1      25.502  -0.619  52.988  1.00  0.00    -0.267 OA
HETATM   23  C22 UNL     1      26.447   2.357  50.732  1.00  0.00     0.045 C 
BRANCH  20  24
HETATM   24  C15 UNL     1      23.359  -0.171  53.331  1.00  0.00     0.032 A 
HETATM   25  C16 UNL     1      22.235   0.038  52.526  1.00  0.00     0.017 A 
HETATM   26  C17 UNL     1      20.958  -0.406  52.829  1.00  0.00     0.001 A 
HETATM   27  C18 UNL     1      20.783  -1.104  54.008  1.00  0.00     0.000 A 
HETATM   28  C19 UNL     1      21.846  -1.346  54.848  1.00  0.00     0.001 A 
HETATM   29  C20 UNL     1      23.091  -0.876  54.487  1.00  0.00     0.017 A 
ENDBRANCH  20  24
ENDBRANCH  14  16
ENDBRANCH  11  14
BRANCH   7  30
HETATM   30  N3  UNL     1      30.547   7.958  48.956  1.00  0.00     0.091 N 
HETATM   31  H8  UNL     1      31.400   8.274  48.431  1.00  0.00     0.314 HD
HETATM   32  H9  UNL     1      30.683   6.964  49.247  1.00  0.00     0.314 HD
ENDBRANCH   7  30
BRANCH   1  33
HETATM   33  C1  UNL     1      30.029  11.094  47.567  1.00  0.00     0.268 C 
HETATM   34  N1  UNL     1      30.288  11.901  46.421  1.00  0.00    -0.365 N 
HETATM   35  H1  UNL     1      30.005  11.442  45.524  1.00  0.00     0.159 HD
HETATM   36  H2  UNL     1      30.721  12.870  46.450  1.00  0.00     0.159 HD
HETATM   37  O1  UNL     1      31.099  10.943  48.211  1.00  0.00    -0.266 OA
ENDBRANCH   1  33
TORSDOF 5
ENDMDL
MODEL 4
REMARK VINA RESULT:      -9.2      1.518      1.917
REMARK  5 active torsions:
REMARK  status: ('A' for Active; 'I' for Inactive)
REMARK       I    between atoms: N1_1  and  C1_2 
REMARK    1  A    between atoms: C1_2  and  C2_4 
REMARK    2  A    between atoms: C7_10  and  N3_11 
REMARK    3  A    between atoms: C10_15  and  N5_16 
REMARK    4  A    between atoms: N5_16  and  C11_17 
REMARK       I    between atoms: N6_20  and  C14_21 
REMARK    5  A    between atoms: C14_21  and  C15_23 
ROOT
HETATM    1  C2  UNL     1      33.267   6.584  47.544  1.00  0.00     0.127 A 
HETATM    2  N2  UNL     1      33.879   5.487  47.324  1.00  0.00    -0.283 NA
HETATM    3  C3  UNL     1      33.299   4.189  47.334  1.00  0.00     0.154 A 
HETATM    4  C4  UNL     1      31.822   4.188  47.603  1.00  0.00     0.063 A 
HETATM    5  C5  UNL     1      31.271   5.529  47.839  1.00  0.00    -0.015 A 
HETATM    6  C6  UNL     1      31.862   6.711  47.833  1.00  0.00     0.022 A 
HETATM    7  C7  UNL     1      30.934   7.807  48.121  1.00  0.00     0.290 A 
HETATM    8  C8  UNL     1      29.640   7.074  48.309  1.00  0.00     0.027 A 
HETATM    9  C9  UNL     1      28.437   7.676  48.604  1.00  0.00     0.148 A 
HETATM   10  N4  UNL     1      27.367   6.865  48.738  1.00  0.00    -0.075 NA
HETATM   11  C10 UNL     1      27.524   5.518  48.578  1.00  0.00     0.723 A 
HETATM   12  N7  UNL     1      28.725   5.016  48.294  1.00  0.00    -0.062 NA
HETATM   13  C23 UNL     1      29.846   5.727  48.141  1.00  0.00     0.093 A 
ENDROOT
BRANCH  11  14
HETATM   14  N5  UNL     1      26.376   4.686  48.715  1.00  0.00    -0.218 N 
HETATM   15  H11 UNL     1      25.868   4.366  47.864  1.00  0.00     0.178 HD
BRANCH  14  16
HETATM   16  C11 UNL     1      25.971   4.324  50.040  1.00  0.00     0.102 C 
HETATM   17  C12 UNL     1      24.453   4.066  50.003  1.00  0.00     0.045 C 
HETATM   18  C13 UNL     1      24.020   3.703  51.412  1.00  0.00     0.128 C 
HETATM   19  N6  UNL     1      24.729   2.487  51.773  1.00  0.00    -0.348 N 
HETATM   20  C14 UNL     1      24.138   1.236  52.140  1.00  0.00     0.253 C 
HETATM   21  C21 UNL     1      26.178   2.567  51.758  1.00  0.00     0.128 C 
HETATM   22  O2  UNL     1      24.861   0.224  52.436  1.00  0.00    -0.267 OA
HETATM   23  C22 UNL     1      26.597   2.967  50.362  1.00  0.00     0.045 C 
BRANCH  20  24
HETATM   24  C15 UNL     1      22.753   0.879  52.244  1.00  0.00     0.032 A 
HETATM   25  C16 UNL     1      22.180   0.623  53.494  1.00  0.00     0.017 A 
HETATM   26  C17 UNL     1      20.854   0.277  53.694  1.00  0.00     0.001 A 
HETATM   27  C18 UNL     1      20.041   0.178  52.582  1.00  0.00     0.000 A 
HETATM   28  C19 UNL     1      20.538   0.417  51.321  1.00  0.00     0.001 A 
HETATM   29  C20 UNL     1      21.869   0.757  51.192  1.00  0.00     0.017 A 
ENDBRANCH  20  24
ENDBRANCH  14  16
ENDBRANCH  11  14
BRANCH   7  30
HETATM   30  N3  UNL     1      30.776   8.720  47.005  1.00  0.00     0.091 N 
HETATM   31  H8  UNL     1      31.677   9.258  46.961  1.00  0.00     0.314 HD
HETATM   32  H9  UNL     1      30.007   9.375  47.270  1.00  0.00     0.314 HD
ENDBRANCH   7  30
BRANCH   1  33
HETATM   33  C1  UNL     1      34.086   7.795  47.476  1.00  0.00     0.268 C 
HETATM   34  N1  UNL     1      35.457   7.874  47.860  1.00  0.00    -0.365 N 
HETATM   35  H1  UNL     1      35.625   7.562  48.845  1.00  0.00     0.159 HD
HETATM   36  H2  UNL     1      36.242   8.211  47.230  1.00  0.00     0.159 HD
HETATM   37  O1  UNL     1      33.707   8.924  47.075  1.00  0.00    -0.266 OA
ENDBRANCH   1  33
TORSDOF 5
ENDMDL
MODEL 5
REMARK VINA RESULT:      -9.2      6.626     12.657
REMARK  5 active torsions:
REMARK  status: ('A' for Active; 'I' for Inactive)
REMARK       I    between atoms: N1_1  and  C1_2 
REMARK    1  A    between atoms: C1_2  and  C2_4 
REMARK    2  A    between atoms: C7_10  and  N3_11 
REMARK    3  A    between atoms: C10_15  and  N5_16 
REMARK    4  A    between atoms: N5_16  and  C11_17 
REMARK       I    between atoms: N6_20  and  C14_21 
REMARK    5  A    between atoms: C14_21  and  C15_23 
ROOT
HETATM    1  C2  UNL     1      15.200  -1.545  51.580  1.00  0.00     0.127 A 
HETATM    2  N2  UNL     1      14.712  -1.211  50.450  1.00  0.00    -0.283 NA
HETATM    3  C3  UNL     1      15.366  -0.433  49.454  1.00  0.00     0.154 A 
HETATM    4  C4  UNL     1      16.765  -0.032  49.821  1.00  0.00     0.063 A 
HETATM    5  C5  UNL     1      17.173  -0.492  51.155  1.00  0.00    -0.015 A 
HETATM    6  C6  UNL     1      16.516  -1.205  52.053  1.00  0.00     0.022 A 
HETATM    7  C7  UNL     1      17.301  -1.445  53.267  1.00  0.00     0.290 A 
HETATM    8  C8  UNL     1      18.584  -0.738  52.949  1.00  0.00     0.027 A 
HETATM    9  C9  UNL     1      19.669  -0.673  53.793  1.00  0.00     0.148 A 
HETATM   10  N4  UNL     1      20.749   0.004  53.347  1.00  0.00    -0.075 NA
HETATM   11  C10 UNL     1      20.714   0.578  52.109  1.00  0.00     0.723 A 
HETATM   12  N7  UNL     1      19.621   0.468  51.354  1.00  0.00    -0.062 NA
HETATM   13  C23 UNL     1      18.502  -0.177  51.698  1.00  0.00     0.093 A 
ENDROOT
BRANCH  11  14
HETATM   14  N5  UNL     1      21.870   1.277  51.658  1.00  0.00    -0.218 N 
HETATM   15  H11 UNL     1      21.909   1.627  50.678  1.00  0.00     0.178 HD
BRANCH  14  16
HETATM   16  C11 UNL     1      22.938   1.469  52.593  1.00  0.00     0.102 C 
HETATM   17  C12 UNL     1      23.677   0.124  52.728  1.00  0.00     0.045 C 
HETATM   18  C13 UNL     1      24.796   0.321  53.735  1.00  0.00     0.128 C 
HETATM   19  N6  UNL     1      25.685   1.333  53.189  1.00  0.00    -0.348 N 
HETATM   20  C14 UNL     1      27.076   1.171  52.892  1.00  0.00     0.253 C 
HETATM   21  C21 UNL     1      25.088   2.629  52.925  1.00  0.00     0.128 C 
HETATM   22  O2  UNL     1      27.765   2.131  52.407  1.00  0.00    -0.267 OA
HETATM   23  C22 UNL     1      23.950   2.418  51.952  1.00  0.00     0.045 C 
BRANCH  20  24
HETATM   24  C15 UNL     1      27.914   0.018  53.057  1.00  0.00     0.032 A 
HETATM   25  C16 UNL     1      29.217   0.154  53.546  1.00  0.00     0.017 A 
HETATM   26  C17 UNL     1      30.096  -0.898  53.742  1.00  0.00     0.001 A 
HETATM   27  C18 UNL     1      29.655  -2.170  53.433  1.00  0.00     0.000 A 
HETATM   28  C19 UNL     1      28.384  -2.377  52.948  1.00  0.00     0.001 A 
HETATM   29  C20 UNL     1      27.559  -1.285  52.776  1.00  0.00     0.017 A 
ENDBRANCH  20  24
ENDBRANCH  14  16
ENDBRANCH  11  14
BRANCH   7  30
HETATM   30  N3  UNL     1      17.600  -2.848  53.476  1.00  0.00     0.091 N 
HETATM   31  H8  UNL     1      18.645  -2.895  53.573  1.00  0.00     0.314 HD
HETATM   32  H9  UNL     1      17.322  -3.340  52.597  1.00  0.00     0.314 HD
ENDBRANCH   7  30
BRANCH   1  33
HETATM   33  C1  UNL     1      14.328  -2.353  52.435  1.00  0.00     0.268 C 
HETATM   34  N1  UNL     1      13.195  -1.857  53.143  1.00  0.00    -0.365 N 
HETATM   35  H1  UNL     1      13.425  -1.056  53.776  1.00  0.00     0.159 HD
HETATM   36  H2  UNL     1      12.210  -2.244  53.054  1.00  0.00     0.159 HD
HETATM   37  O1  UNL     1      14.450  -3.583  52.666  1.00  0.00    -0.266 OA
ENDBRANCH   1  33
TORSDOF 5
ENDMDL
MODEL 6
REMARK VINA RESULT:      -9.0      7.809     11.986
REMARK  5 active torsions:
REMARK  status: ('A' for Active; 'I' for Inactive)
REMARK       I    between atoms: N1_1  and  C1_2 
REMARK    1  A    between atoms: C1_2  and  C2_4 
REMARK    2  A    between atoms: C7_10  and  N3_11 
REMARK    3  A    between atoms: C10_15  and  N5_16 
REMARK    4  A    between atoms: N5_16  and  C11_17 
REMARK       I    between atoms: N6_20  and  C14_21 
REMARK    5  A    between atoms: C14_21  and  C15_23 
ROOT
HETATM    1  C2  UNL     1      13.380   4.362  51.019  1.00  0.00     0.127 A 
HETATM    2  N2  UNL     1      12.863   4.379  52.185  1.00  0.00    -0.283 NA
HETATM    3  C3  UNL     1      13.562   4.202  53.412  1.00  0.00     0.154 A 
HETATM    4  C4  UNL     1      15.042   4.015  53.244  1.00  0.00     0.063 A 
HETATM    5  C5  UNL     1      15.474   4.017  51.841  1.00  0.00    -0.015 A 
HETATM    6  C6  UNL     1      14.777   4.172  50.729  1.00  0.00     0.022 A 
HETATM    7  C7  UNL     1      15.610   4.105  49.526  1.00  0.00     0.290 A 
HETATM    8  C8  UNL     1      16.972   3.877  50.107  1.00  0.00     0.027 A 
HETATM    9  C9  UNL     1      18.125   3.743  49.366  1.00  0.00     0.148 A 
HETATM   10  N4  UNL     1      19.271   3.544  50.051  1.00  0.00    -0.075 NA
HETATM   11  C10 UNL     1      19.233   3.487  51.414  1.00  0.00     0.723 A 
HETATM   12  N7  UNL     1      18.073   3.627  52.056  1.00  0.00    -0.062 NA
HETATM   13  C23 UNL     1      16.886   3.826  51.476  1.00  0.00     0.093 A 
ENDROOT
BRANCH  11  14
HETATM   14  N5  UNL     1      20.458   3.287  52.113  1.00  0.00    -0.218 N 
HETATM   15  H11 UNL     1      20.835   4.047  52.718  1.00  0.00     0.178 HD
BRANCH  14  16
HETATM   16  C11 UNL     1      21.120   2.028  51.948  1.00  0.00     0.102 C 
HETATM   17  C12 UNL     1      22.635   2.305  51.920  1.00  0.00     0.045 C 
HETATM   18  C13 UNL     1      23.336   0.974  51.723  1.00  0.00     0.128 C 
HETATM   19  N6  UNL     1      22.996   0.142  52.865  1.00  0.00    -0.348 N 
HETATM   20  C14 UNL     1      23.915  -0.434  53.801  1.00  0.00     0.253 C 
HETATM   21  C21 UNL     1      21.583  -0.122  53.062  1.00  0.00     0.128 C 
HETATM   22  O2  UNL     1      23.504  -1.149  54.776  1.00  0.00    -0.267 OA
HETATM   23  C22 UNL     1      20.888   1.211  53.218  1.00  0.00     0.045 C 
BRANCH  20  24
HETATM   24  C15 UNL     1      25.346  -0.345  53.843  1.00  0.00     0.032 A 
HETATM   25  C16 UNL     1      26.117  -0.826  52.780  1.00  0.00     0.017 A 
HETATM   26  C17 UNL     1      27.501  -0.780  52.730  1.00  0.00     0.001 A 
HETATM   27  C18 UNL     1      28.164  -0.221  53.804  1.00  0.00     0.000 A 
HETATM   28  C19 UNL     1      27.468   0.273  54.884  1.00  0.00     0.001 A 
HETATM   29  C20 UNL     1      26.091   0.196  54.871  1.00  0.00     0.017 A 
ENDBRANCH  20  24
ENDBRANCH  14  16
ENDBRANCH  11  14
BRANCH   7  30
HETATM   30  N3  UNL     1      15.638   5.355  48.790  1.00  0.00     0.091 N 
HETATM   31  H8  UNL     1      14.927   5.967  49.262  1.00  0.00     0.314 HD
HETATM   32  H9  UNL     1      15.301   5.133  47.826  1.00  0.00     0.314 HD
ENDBRANCH   7  30
BRANCH   1  33
HETATM   33  C1  UNL     1      12.449   4.571  49.909  1.00  0.00     0.268 C 
HETATM   34  N1  UNL     1      11.285   3.786  49.662  1.00  0.00    -0.365 N 
HETATM   35  H1  UNL     1      11.492   2.763  49.574  1.00  0.00     0.159 HD
HETATM   36  H2  UNL     1      10.301   4.175  49.574  1.00  0.00     0.159 HD
HETATM   37  O1  UNL     1      12.539   5.459  49.024  1.00  0.00    -0.266 OA
ENDBRANCH   1  33
TORSDOF 5
ENDMDL
MODEL 7
REMARK VINA RESULT:      -8.8      6.110      9.030
REMARK  5 active torsions:
REMARK  status: ('A' for Active; 'I' for Inactive)
REMARK       I    between atoms: N1_1  and  C1_2 
REMARK    1  A    between atoms: C1_2  and  C2_4 
REMARK    2  A    between atoms: C7_10  and  N3_11 
REMARK    3  A    between atoms: C10_15  and  N5_16 
REMARK    4  A    between atoms: N5_16  and  C11_17 
REMARK       I    between atoms: N6_20  and  C14_21 
REMARK    5  A    between atoms: C14_21  and  C15_23 
ROOT
HETATM    1  C2  UNL     1      26.906   0.845  54.003  1.00  0.00     0.127 A 
HETATM    2  N2  UNL     1      26.815  -0.044  54.914  1.00  0.00    -0.283 NA
HETATM    3  C3  UNL     1      25.670  -0.840  55.194  1.00  0.00     0.154 A 
HETATM    4  C4  UNL     1      24.512  -0.579  54.275  1.00  0.00     0.063 A 
HETATM    5  C5  UNL     1      24.777   0.474  53.287  1.00  0.00    -0.015 A 
HETATM    6  C6  UNL     1      25.862   1.199  53.077  1.00  0.00     0.022 A 
HETATM    7  C7  UNL     1      25.701   2.151  51.976  1.00  0.00     0.290 A 
HETATM    8  C8  UNL     1      24.294   1.877  51.536  1.00  0.00     0.027 A 
HETATM    9  C9  UNL     1      23.658   2.530  50.504  1.00  0.00     0.148 A 
HETATM   10  N4  UNL     1      22.389   2.158  50.237  1.00  0.00    -0.075 NA
HETATM   11  C10 UNL     1      21.810   1.174  50.985  1.00  0.00     0.723 A 
HETATM   12  N7  UNL     1      22.497   0.591  51.968  1.00  0.00    -0.062 NA
HETATM   13  C23 UNL     1      23.753   0.884  52.314  1.00  0.00     0.093 A 
ENDROOT
BRANCH  11  14
HETATM   14  N5  UNL     1      20.472   0.792  50.676  1.00  0.00    -0.218 N 
HETATM   15  H11 UNL     1      20.216  -0.217  50.663  1.00  0.00     0.178 HD
BRANCH  14  16
HETATM   16  C11 UNL     1      19.531   1.835  50.396  1.00  0.00     0.102 C 
HETATM   17  C12 UNL     1      18.136   1.187  50.321  1.00  0.00     0.045 C 
HETATM   18  C13 UNL     1      17.141   2.288  50.004  1.00  0.00     0.128 C 
HETATM   19  N6  UNL     1      17.197   3.240  51.101  1.00  0.00    -0.348 N 
HETATM   20  C14 UNL     1      16.111   3.619  51.954  1.00  0.00     0.253 C 
HETATM   21  C21 UNL     1      18.487   3.860  51.340  1.00  0.00     0.128 C 
HETATM   22  O2  UNL     1      16.274   4.467  52.895  1.00  0.00    -0.267 OA
HETATM   23  C22 UNL     1      19.479   2.753  51.617  1.00  0.00     0.045 C 
BRANCH  20  24
HETATM   24  C15 UNL     1      14.746   3.178  51.940  1.00  0.00     0.032 A 
HETATM   25  C16 UNL     1      14.378   1.995  52.591  1.00  0.00     0.017 A 
HETATM   26  C17 UNL     1      13.088   1.493  52.636  1.00  0.00     0.001 A 
HETATM   27  C18 UNL     1      12.097   2.208  51.993  1.00  0.00     0.000 A 
HETATM   28  C19 UNL     1      12.389   3.380  51.333  1.00  0.00     0.001 A 
HETATM   29  C20 UNL     1      13.694   3.825  51.326  1.00  0.00     0.017 A 
ENDBRANCH  20  24
ENDBRANCH  14  16
ENDBRANCH  11  14
BRANCH   7  30
HETATM   30  N3  UNL     1      26.584   1.875  50.859  1.00  0.00     0.091 N 
HETATM   31  H8  UNL     1      27.464   2.409  51.066  1.00  0.00     0.314 HD
HETATM   32  H9  UNL     1      26.129   2.293  50.016  1.00  0.00     0.314 HD
ENDBRANCH   7  30
BRANCH   1  33
HETATM   33  C1  UNL     1      28.195   1.531  53.912  1.00  0.00     0.268 C 
HETATM   34  N1  UNL     1      29.412   0.926  53.479  1.00  0.00    -0.365 N 
HETATM   35  H1  UNL     1      29.665   0.075  54.033  1.00  0.00     0.159 HD
HETATM   36  H2  UNL     1      30.014   1.284  52.681  1.00  0.00     0.159 HD
HETATM   37  O1  UNL     1      28.415   2.735  54.197  1.00  0.00    -0.266 OA
ENDBRANCH   1  33
TORSDOF 5
ENDMDL
MODEL 8
REMARK VINA RESULT:      -8.6      2.395      3.859
REMARK  5 active torsions:
REMARK  status: ('A' for Active; 'I' for Inactive)
REMARK       I    between atoms: N1_1  and  C1_2 
REMARK    1  A    between atoms: C1_2  and  C2_4 
REMARK    2  A    between atoms: C7_10  and  N3_11 
REMARK    3  A    between atoms: C10_15  and  N5_16 
REMARK    4  A    between atoms: N5_16  and  C11_17 
REMARK       I    between atoms: N6_20  and  C14_21 
REMARK    5  A    between atoms: C14_21  and  C15_23 
ROOT
HETATM    1  C2  UNL     1      28.651   8.483  45.965  1.00  0.00     0.127 A 
HETATM    2  N2  UNL     1      29.837   8.024  46.072  1.00  0.00    -0.283 NA
HETATM    3  C3  UNL     1      30.281   7.072  47.031  1.00  0.00     0.154 A 
HETATM    4  C4  UNL     1      29.197   6.583  47.947  1.00  0.00     0.063 A 
HETATM    5  C5  UNL     1      27.894   7.212  47.696  1.00  0.00    -0.015 A 
HETATM    6  C6  UNL     1      27.535   8.109  46.794  1.00  0.00     0.022 A 
HETATM    7  C7  UNL     1      26.119   8.471  46.890  1.00  0.00     0.290 A 
HETATM    8  C8  UNL     1      25.660   7.619  48.035  1.00  0.00     0.027 A 
HETATM    9  C9  UNL     1      24.373   7.595  48.524  1.00  0.00     0.148 A 
HETATM   10  N4  UNL     1      24.130   6.766  49.561  1.00  0.00    -0.075 NA
HETATM   11  C10 UNL     1      25.148   6.007  50.062  1.00  0.00     0.723 A 
HETATM   12  N7  UNL     1      26.367   6.090  49.530  1.00  0.00    -0.062 NA
HETATM   13  C23 UNL     1      26.714   6.876  48.507  1.00  0.00     0.093 A 
ENDROOT
BRANCH  11  14
HETATM   14  N5  UNL     1      24.863   5.132  51.150  1.00  0.00    -0.218 N 
HETATM   15  H11 UNL     1      24.671   5.530  52.093  1.00  0.00     0.178 HD
BRANCH  14  16
HETATM   16  C11 UNL     1      24.852   3.724  50.886  1.00  0.00     0.102 C 
HETATM   17  C12 UNL     1      26.285   3.204  51.106  1.00  0.00     0.045 C 
HETATM   18  C13 UNL     1      26.279   1.717  50.806  1.00  0.00     0.128 C 
HETATM   19  N6  UNL     1      25.365   1.096  51.751  1.00  0.00    -0.348 N 
HETATM   20  C14 UNL     1      25.690   0.078  52.704  1.00  0.00     0.253 C 
HETATM   21  C21 UNL     1      23.993   1.566  51.711  1.00  0.00     0.128 C 
HETATM   22  O2  UNL     1      24.805  -0.396  53.494  1.00  0.00    -0.267 OA
HETATM   23  C22 UNL     1      24.013   3.054  51.973  1.00  0.00     0.045 C 
BRANCH  20  24
HETATM   24  C15 UNL     1      26.947  -0.567  52.954  1.00  0.00     0.032 A 
HETATM   25  C16 UNL     1      27.126  -1.917  52.636  1.00  0.00     0.017 A 
HETATM   26  C17 UNL     1      28.301  -2.623  52.836  1.00  0.00     0.001 A 
HETATM   27  C18 UNL     1      29.370  -1.946  53.388  1.00  0.00     0.000 A 
HETATM   28  C19 UNL     1      29.265  -0.615  53.725  1.00  0.00     0.001 A 
HETATM   29  C20 UNL     1      28.066   0.028  53.500  1.00  0.00     0.017 A 
ENDBRANCH  20  24
ENDBRANCH  14  16
ENDBRANCH  11  14
BRANCH   7  30
HETATM   30  N3  UNL     1      25.359   8.092  45.714  1.00  0.00     0.091 N 
HETATM   31  H8  UNL     1      25.401   8.928  45.079  1.00  0.00     0.314 HD
HETATM   32  H9  UNL     1      24.373   7.962  46.033  1.00  0.00     0.314 HD
ENDBRANCH   7  30
BRANCH   1  33
HETATM   33  C1  UNL     1      28.441   9.456  44.893  1.00  0.00     0.268 C 
HETATM   34  N1  UNL     1      28.967  10.781  44.880  1.00  0.00    -0.365 N 
HETATM   35  H1  UNL     1      28.698  11.338  45.725  1.00  0.00     0.159 HD
HETATM   36  H2  UNL     1      29.572  11.183  44.106  1.00  0.00     0.159 HD
HETATM   37  O1  UNL     1      27.776   9.270  43.843  1.00  0.00    -0.266 OA
ENDBRANCH   1  33
TORSDOF 5
ENDMDL
MODEL 9
REMARK VINA RESULT:      -8.5      5.638      8.893
REMARK  5 active torsions:
REMARK  status: ('A' for Active; 'I' for Inactive)
REMARK       I    between atoms: N1_1  and  C1_2 
REMARK    1  A    between atoms: C1_2  and  C2_4 
REMARK    2  A    between atoms: C7_10  and  N3_11 
REMARK    3  A    between atoms: C10_15  and  N5_16 
REMARK    4  A    between atoms: N5_16  and  C11_17 
REMARK       I    between atoms: N6_20  and  C14_21 
REMARK    5  A    between atoms: C14_21  and  C15_23 
ROOT
HETATM    1  C2  UNL     1      24.217  -0.427  54.126  1.00  0.00     0.127 A 
HETATM    2  N2  UNL     1      23.133  -1.059  54.356  1.00  0.00    -0.283 NA
HETATM    3  C3  UNL     1      21.923  -0.940  53.617  1.00  0.00     0.154 A 
HETATM    4  C4  UNL     1      22.012   0.009  52.457  1.00  0.00     0.063 A 
HETATM    5  C5  UNL     1      23.325   0.656  52.333  1.00  0.00    -0.015 A 
HETATM    6  C6  UNL     1      24.419   0.520  53.060  1.00  0.00     0.022 A 
HETATM    7  C7  UNL     1      25.520   1.363  52.588  1.00  0.00     0.290 A 
HETATM    8  C8  UNL     1      24.895   2.056  51.415  1.00  0.00     0.027 A 
HETATM    9  C9  UNL     1      25.540   2.972  50.615  1.00  0.00     0.148 A 
HETATM   10  N4  UNL     1      24.828   3.501  49.597  1.00  0.00    -0.075 NA
HETATM   11  C10 UNL     1      23.533   3.110  49.413  1.00  0.00     0.723 A 
HETATM   12  N7  UNL     1      22.983   2.215  50.234  1.00  0.00    -0.062 NA
HETATM   13  C23 UNL     1      23.596   1.634  51.269  1.00  0.00     0.093 A 
ENDROOT
BRANCH  11  14
HETATM   14  N5  UNL     1      22.807   3.674  48.325  1.00  0.00    -0.218 N 
HETATM   15  H11 UNL     1      23.318   3.986  47.473  1.00  0.00     0.178 HD
BRANCH  14  16
HETATM   16  C11 UNL     1      21.386   3.785  48.460  1.00  0.00     0.102 C 
HETATM   17  C12 UNL     1      20.834   2.365  48.684  1.00  0.00     0.045 C 
HETATM   18  C13 UNL     1      19.325   2.479  48.806  1.00  0.00     0.128 C 
HETATM   19  N6  UNL     1      19.055   3.315  49.964  1.00  0.00    -0.348 N 
HETATM   20  C14 UNL     1      18.308   2.941  51.127  1.00  0.00     0.253 C 
HETATM   21  C21 UNL     1      19.602   4.658  49.921  1.00  0.00     0.128 C 
HETATM   22  O2  UNL     1      18.134   3.758  52.094  1.00  0.00    -0.267 OA
HETATM   23  C22 UNL     1      21.100   4.534  49.760  1.00  0.00     0.045 C 
BRANCH  20  24
HETATM   24  C15 UNL     1      17.657   1.698  51.430  1.00  0.00     0.032 A 
HETATM   25  C16 UNL     1      18.411   0.558  51.725  1.00  0.00     0.017 A 
HETATM   26  C17 UNL     1      17.874  -0.681  52.032  1.00  0.00     0.001 A 
HETATM   27  C18 UNL     1      16.498  -0.798  52.049  1.00  0.00     0.000 A 
HETATM   28  C19 UNL     1      15.694   0.284  51.769  1.00  0.00     0.001 A 
HETATM   29  C20 UNL     1      16.294   1.489  51.470  1.00  0.00     0.017 A 
ENDBRANCH  20  24
ENDBRANCH  14  16
ENDBRANCH  11  14
BRANCH   7  30
HETATM   30  N3  UNL     1      26.652   0.594  52.106  1.00  0.00     0.091 N 
HETATM   31  H8  UNL     1      26.558   0.594  51.059  1.00  0.00     0.314 HD
HETATM   32  H9  UNL     1      26.512  -0.381  52.454  1.00  0.00     0.314 HD
ENDBRANCH   7  30
BRANCH   1  33
HETATM   33  C1  UNL     1      25.329  -0.724  55.029  1.00  0.00     0.268 C 
HETATM   34  N1  UNL     1      25.189  -1.196  56.367  1.00  0.00    -0.365 N 
HETATM   35  H1  UNL     1      24.597  -0.571  56.962  1.00  0.00     0.159 HD
HETATM   36  H2  UNL     1      25.630  -2.085  56.743  1.00  0.00     0.159 HD
HETATM   37  O1  UNL     1      26.552  -0.608  54.762  1.00  0.00    -0.266 OA
ENDBRANCH   1  33
TORSDOF 5
ENDMDL
