MODEL 1
REMARK VINA RESULT:      -7.4      0.000      0.000
REMARK  7 active torsions:
REMARK  status: ('A' for Active; 'I' for Inactive)
REMARK    1  A    between atoms: C2_2  and  O1_3 
REMARK    2  A    between atoms: O1_3  and  C3_4 
REMARK    3  A    between atoms: C3_4  and  C4_5 
REMARK    4  A    between atoms: C4_5  and  C5_6 
REMARK    5  A    between atoms: C5_6  and  C6_7 
REMARK    6  A    between atoms: C10_13  and  C11_14 
REMARK    7  A    between atoms: C14_17  and  N3_18 
REMARK       I    between atoms: N3_18  and  C15_19 
ROOT
HETATM    1  C6  UNL     1      23.138   0.043  53.619  1.00  0.00     0.018 A 
HETATM    2  C7  UNL     1      22.325  -0.696  54.443  1.00  0.00     0.044 A 
HETATM    3  C8  UNL     1      22.853  -1.757  55.333  1.00  0.00     0.071 C 
HETATM    4  N1  UNL     1      21.001  -0.516  54.585  1.00  0.00    -0.246 NA
HETATM    5  C9  UNL     1      20.343   0.424  53.921  1.00  0.00     0.234 A 
HETATM    6  N2  UNL     1      21.063   1.193  53.094  1.00  0.00    -0.240 NA
HETATM    7  C10 UNL     1      22.400   0.996  52.961  1.00  0.00     0.080 A 
ENDROOT
BRANCH   7   8
HETATM    8  C11 UNL     1      23.038   1.898  52.008  1.00  0.00    -0.006 A 
HETATM    9  C12 UNL     1      23.185   1.819  50.631  1.00  0.00     0.016 A 
HETATM   10  C13 UNL     1      23.850   2.796  49.939  1.00  0.00     0.030 A 
HETATM   11  C14 UNL     1      24.405   3.890  50.529  1.00  0.00     0.034 A 
HETATM   12  C17 UNL     1      24.287   4.015  51.888  1.00  0.00     0.030 A 
HETATM   13  C18 UNL     1      23.618   3.035  52.589  1.00  0.00     0.016 A 
BRANCH  11  14
HETATM   14  N3  UNL     1      25.084   4.869  49.755  1.00  0.00    -0.328 N 
HETATM   15  C15 UNL     1      26.421   4.895  49.268  1.00  0.00     0.218 C 
HETATM   16  C16 UNL     1      26.883   6.059  48.470  1.00  0.00     0.117 C 
HETATM   17  O2  UNL     1      27.214   3.948  49.505  1.00  0.00    -0.274 OA
HETATM   18  H16 UNL     1      24.397   5.652  49.570  1.00  0.00     0.169 HD
ENDBRANCH  11  14
ENDBRANCH   7   8
BRANCH   1  19
HETATM   19  C5  UNL     1      24.534  -0.134  53.338  1.00  0.00     0.014 C 
BRANCH  19  20
HETATM   20  C4  UNL     1      25.607   0.174  54.059  1.00  0.00     0.000 C 
BRANCH  20  21
HETATM   21  C3  UNL     1      26.760   0.442  54.883  1.00  0.00     0.195 C 
BRANCH  21  22
HETATM   22  O1  UNL     1      27.790  -0.520  54.806  1.00  0.00    -0.388 OA
BRANCH  22  23
HETATM   23  C2  UNL     1      28.921   0.035  54.205  1.00  0.00     0.163 C 
HETATM   24  C1  UNL     1      29.800  -1.036  53.586  1.00  0.00     0.033 C 
ENDBRANCH  22  23
ENDBRANCH  21  22
ENDBRANCH  20  21
ENDBRANCH  19  20
ENDBRANCH   1  19
TORSDOF 7
ENDMDL
MODEL 2
REMARK VINA RESULT:      -7.1      3.011      6.750
REMARK  7 active torsions:
REMARK  status: ('A' for Active; 'I' for Inactive)
REMARK    1  A    between atoms: C2_2  and  O1_3 
REMARK    2  A    between atoms: O1_3  and  C3_4 
REMARK    3  A    between atoms: C3_4  and  C4_5 
REMARK    4  A    between atoms: C4_5  and  C5_6 
REMARK    5  A    between atoms: C5_6  and  C6_7 
REMARK    6  A    between atoms: C10_13  and  C11_14 
REMARK    7  A    between atoms: C14_17  and  N3_18 
REMARK       I    between atoms: N3_18  and  C15_19 
ROOT
HETATM    1  C6  UNL     1      26.396   1.093  53.792  1.00  0.00     0.018 A 
HETATM    2  C7  UNL     1      27.744   1.176  53.547  1.00  0.00     0.044 A 
HETATM    3  C8  UNL     1      28.460   2.473  53.485  1.00  0.00     0.071 C 
HETATM    4  N1  UNL     1      28.569   0.125  53.397  1.00  0.00    -0.246 NA
HETATM    5  C9  UNL     1      28.136  -1.125  53.477  1.00  0.00     0.234 A 
HETATM    6  N2  UNL     1      26.829  -1.297  53.716  1.00  0.00    -0.240 NA
HETATM    7  C10 UNL     1      26.011  -0.223  53.863  1.00  0.00     0.080 A 
ENDROOT
BRANCH   7   8
HETATM    8  C11 UNL     1      24.613  -0.574  54.096  1.00  0.00    -0.006 A 
HETATM    9  C12 UNL     1      23.950  -0.973  55.248  1.00  0.00     0.016 A 
HETATM   10  C13 UNL     1      22.614  -1.271  55.220  1.00  0.00     0.030 A 
HETATM   11  C14 UNL     1      21.852  -1.203  54.095  1.00  0.00     0.034 A 
HETATM   12  C17 UNL     1      22.460  -0.813  52.931  1.00  0.00     0.030 A 
HETATM   13  C18 UNL     1      23.804  -0.511  52.953  1.00  0.00     0.016 A 
BRANCH  11  14
HETATM   14  N3  UNL     1      20.468  -1.527  54.131  1.00  0.00    -0.328 N 
HETATM   15  C15 UNL     1      19.376  -0.994  53.391  1.00  0.00     0.218 C 
HETATM   16  C16 UNL     1      18.009  -1.522  53.629  1.00  0.00     0.117 C 
HETATM   17  O2  UNL     1      19.554  -0.084  52.542  1.00  0.00    -0.274 OA
HETATM   18  H16 UNL     1      20.347  -2.293  54.851  1.00  0.00     0.169 HD
ENDBRANCH  11  14
ENDBRANCH   7   8
BRANCH   1  19
HETATM   19  C5  UNL     1      25.430   2.151  53.877  1.00  0.00     0.014 C 
BRANCH  19  20
HETATM   20  C4  UNL     1      24.853   2.875  52.924  1.00  0.00     0.000 C 
BRANCH  20  21
HETATM   21  C3  UNL     1      24.217   3.594  51.848  1.00  0.00     0.195 C 
BRANCH  21  22
HETATM   22  O1  UNL     1      24.673   3.265  50.553  1.00  0.00    -0.388 OA
BRANCH  22  23
HETATM   23  C2  UNL     1      26.068   3.216  50.533  1.00  0.00     0.163 C 
HETATM   24  C1  UNL     1      26.633   4.049  49.398  1.00  0.00     0.033 C 
ENDBRANCH  22  23
ENDBRANCH  21  22
ENDBRANCH  20  21
ENDBRANCH  19  20
ENDBRANCH   1  19
TORSDOF 7
ENDMDL
MODEL 3
REMARK VINA RESULT:      -6.8      1.649      2.548
REMARK  7 active torsions:
REMARK  status: ('A' for Active; 'I' for Inactive)
REMARK    1  A    between atoms: C2_2  and  O1_3 
REMARK    2  A    between atoms: O1_3  and  C3_4 
REMARK    3  A    between atoms: C3_4  and  C4_5 
REMARK    4  A    between atoms: C4_5  and  C5_6 
REMARK    5  A    between atoms: C5_6  and  C6_7 
REMARK    6  A    between atoms: C10_13  and  C11_14 
REMARK    7  A    between atoms: C14_17  and  N3_18 
REMARK       I    between atoms: N3_18  and  C15_19 
ROOT
HETATM    1  C6  UNL     1      23.563   1.648  52.107  1.00  0.00     0.018 A 
HETATM    2  C7  UNL     1      22.493   0.814  52.321  1.00  0.00     0.044 A 
HETATM    3  C8  UNL     1      22.207   0.216  53.647  1.00  0.00     0.071 C 
HETATM    4  N1  UNL     1      21.568   0.493  51.400  1.00  0.00    -0.246 NA
HETATM    5  C9  UNL     1      21.610   0.972  50.165  1.00  0.00     0.234 A 
HETATM    6  N2  UNL     1      22.623   1.798  49.872  1.00  0.00    -0.240 NA
HETATM    7  C10 UNL     1      23.549   2.110  50.814  1.00  0.00     0.080 A 
ENDROOT
BRANCH   7   8
HETATM    8  C11 UNL     1      24.601   3.002  50.336  1.00  0.00    -0.006 A 
HETATM    9  C12 UNL     1      25.916   2.752  49.970  1.00  0.00     0.016 A 
HETATM   10  C13 UNL     1      26.736   3.770  49.562  1.00  0.00     0.030 A 
HETATM   11  C14 UNL     1      26.339   5.070  49.484  1.00  0.00     0.034 A 
HETATM   12  C17 UNL     1      25.049   5.368  49.834  1.00  0.00     0.030 A 
HETATM   13  C18 UNL     1      24.219   4.348  50.246  1.00  0.00     0.016 A 
BRANCH  11  14
HETATM   14  N3  UNL     1      27.240   6.082  49.054  1.00  0.00    -0.328 N 
HETATM   15  C15 UNL     1      28.501   5.978  48.404  1.00  0.00     0.218 C 
HETATM   16  C16 UNL     1      29.246   7.216  48.059  1.00  0.00     0.117 C 
HETATM   17  O2  UNL     1      28.991   4.856  48.119  1.00  0.00    -0.274 OA
HETATM   18  H16 UNL     1      26.804   7.013  49.305  1.00  0.00     0.169 HD
ENDBRANCH  11  14
ENDBRANCH   7   8
BRANCH   1  19
HETATM   19  C5  UNL     1      24.641   1.975  52.997  1.00  0.00     0.014 C 
BRANCH  19  20
HETATM   20  C4  UNL     1      25.711   1.274  53.353  1.00  0.00     0.000 C 
BRANCH  20  21
HETATM   21  C3  UNL     1      26.910   0.540  53.675  1.00  0.00     0.195 C 
BRANCH  21  22
HETATM   22  O1  UNL     1      27.637   1.030  54.781  1.00  0.00    -0.388 OA
BRANCH  22  23
HETATM   23  C2  UNL     1      28.992   0.726  54.637  1.00  0.00     0.163 C 
HETATM   24  C1  UNL     1      29.190  -0.556  53.850  1.00  0.00     0.033 C 
ENDBRANCH  22  23
ENDBRANCH  21  22
ENDBRANCH  20  21
ENDBRANCH  19  20
ENDBRANCH   1  19
TORSDOF 7
ENDMDL
MODEL 4
REMARK VINA RESULT:      -6.7      3.071      6.711
REMARK  7 active torsions:
REMARK  status: ('A' for Active; 'I' for Inactive)
REMARK    1  A    between atoms: C2_2  and  O1_3 
REMARK    2  A    between atoms: O1_3  and  C3_4 
REMARK    3  A    between atoms: C3_4  and  C4_5 
REMARK    4  A    between atoms: C4_5  and  C5_6 
REMARK    5  A    between atoms: C5_6  and  C6_7 
REMARK    6  A    between atoms: C10_13  and  C11_14 
REMARK    7  A    between atoms: C14_17  and  N3_18 
REMARK       I    between atoms: N3_18  and  C15_19 
ROOT
HETATM    1  C6  UNL     1      25.209   1.380  53.223  1.00  0.00     0.018 A 
HETATM    2  C7  UNL     1      26.569   1.195  53.184  1.00  0.00     0.044 A 
HETATM    3  C8  UNL     1      27.525   2.326  53.244  1.00  0.00     0.071 C 
HETATM    4  N1  UNL     1      27.185   0.000  53.148  1.00  0.00    -0.246 NA
HETATM    5  C9  UNL     1      26.509  -1.140  53.148  1.00  0.00     0.234 A 
HETATM    6  N2  UNL     1      25.173  -1.049  53.187  1.00  0.00    -0.240 NA
HETATM    7  C10 UNL     1      24.567   0.166  53.222  1.00  0.00     0.080 A 
ENDROOT
BRANCH   7   8
HETATM    8  C11 UNL     1      23.110   0.099  53.239  1.00  0.00    -0.006 A 
HETATM    9  C12 UNL     1      22.214  -0.070  54.286  1.00  0.00     0.016 A 
HETATM   10  C13 UNL     1      20.866  -0.120  54.054  1.00  0.00     0.030 A 
HETATM   11  C14 UNL     1      20.311  -0.011  52.815  1.00  0.00     0.034 A 
HETATM   12  C17 UNL     1      21.154   0.157  51.748  1.00  0.00     0.030 A 
HETATM   13  C18 UNL     1      22.512   0.209  51.975  1.00  0.00     0.016 A 
BRANCH  11  14
HETATM   14  N3  UNL     1      18.902  -0.072  52.640  1.00  0.00    -0.328 N 
HETATM   15  C15 UNL     1      17.970  -1.082  53.008  1.00  0.00     0.218 C 
HETATM   16  C16 UNL     1      16.530  -0.890  52.702  1.00  0.00     0.117 C 
HETATM   17  O2  UNL     1      18.349  -2.132  53.587  1.00  0.00    -0.274 OA
HETATM   18  H16 UNL     1      18.610   0.820  52.152  1.00  0.00     0.169 HD
ENDBRANCH  11  14
ENDBRANCH   7   8
BRANCH   1  19
HETATM   19  C5  UNL     1      24.466   2.608  53.175  1.00  0.00     0.014 C 
BRANCH  19  20
HETATM   20  C4  UNL     1      24.305   3.483  52.188  1.00  0.00     0.000 C 
BRANCH  20  21
HETATM   21  C3  UNL     1      24.202   4.411  51.090  1.00  0.00     0.195 C 
BRANCH  21  22
HETATM   22  O1  UNL     1      24.913   4.049  49.926  1.00  0.00    -0.388 OA
BRANCH  22  23
HETATM   23  C2  UNL     1      25.814   5.057  49.580  1.00  0.00     0.163 C 
HETATM   24  C1  UNL     1      27.095   4.481  49.008  1.00  0.00     0.033 C 
ENDBRANCH  22  23
ENDBRANCH  21  22
ENDBRANCH  20  21
ENDBRANCH  19  20
ENDBRANCH   1  19
TORSDOF 7
ENDMDL
MODEL 5
REMARK VINA RESULT:      -6.6      2.313      2.618
REMARK  7 active torsions:
REMARK  status: ('A' for Active; 'I' for Inactive)
REMARK    1  A    between atoms: C2_2  and  O1_3 
REMARK    2  A    between atoms: O1_3  and  C3_4 
REMARK    3  A    between atoms: C3_4  and  C4_5 
REMARK    4  A    between atoms: C4_5  and  C5_6 
REMARK    5  A    between atoms: C5_6  and  C6_7 
REMARK    6  A    between atoms: C10_13  and  C11_14 
REMARK    7  A    between atoms: C14_17  and  N3_18 
REMARK       I    between atoms: N3_18  and  C15_19 
ROOT
HETATM    1  C6  UNL     1      23.090  -0.043  53.742  1.00  0.00     0.018 A 
HETATM    2  C7  UNL     1      22.636  -0.962  54.655  1.00  0.00     0.044 A 
HETATM    3  C8  UNL     1      23.540  -1.637  55.617  1.00  0.00     0.071 C 
HETATM    4  N1  UNL     1      21.349  -1.310  54.825  1.00  0.00    -0.246 NA
HETATM    5  C9  UNL     1      20.374  -0.776  54.103  1.00  0.00     0.234 A 
HETATM    6  N2  UNL     1      20.731   0.134  53.188  1.00  0.00    -0.240 NA
HETATM    7  C10 UNL     1      22.036   0.472  53.028  1.00  0.00     0.080 A 
ENDROOT
BRANCH   7   8
HETATM    8  C11 UNL     1      22.266   1.459  51.978  1.00  0.00    -0.006 A 
HETATM    9  C12 UNL     1      22.578   2.810  52.044  1.00  0.00     0.016 A 
HETATM   10  C13 UNL     1      22.732   3.551  50.903  1.00  0.00     0.030 A 
HETATM   11  C14 UNL     1      22.596   3.038  49.649  1.00  0.00     0.034 A 
HETATM   12  C17 UNL     1      22.288   1.709  49.530  1.00  0.00     0.030 A 
HETATM   13  C18 UNL     1      22.132   0.958  50.675  1.00  0.00     0.016 A 
BRANCH  11  14
HETATM   14  N3  UNL     1      22.767   3.861  48.503  1.00  0.00    -0.328 N 
HETATM   15  C15 UNL     1      21.826   4.654  47.788  1.00  0.00     0.218 C 
HETATM   16  C16 UNL     1      22.279   5.430  46.605  1.00  0.00     0.117 C 
HETATM   17  O2  UNL     1      20.621   4.705  48.143  1.00  0.00    -0.274 OA
HETATM   18  H16 UNL     1      23.786   3.801  48.226  1.00  0.00     0.169 HD
ENDBRANCH  11  14
ENDBRANCH   7   8
BRANCH   1  19
HETATM   19  C5  UNL     1      24.443   0.324  53.431  1.00  0.00     0.014 C 
BRANCH  19  20
HETATM   20  C4  UNL     1      25.443  -0.399  52.939  1.00  0.00     0.000 C 
BRANCH  20  21
HETATM   21  C3  UNL     1      26.565  -1.177  52.476  1.00  0.00     0.195 C 
BRANCH  21  22
HETATM   22  O1  UNL     1      27.580  -1.398  53.432  1.00  0.00    -0.388 OA
BRANCH  22  23
HETATM   23  C2  UNL     1      28.416  -0.283  53.510  1.00  0.00     0.163 C 
HETATM   24  C1  UNL     1      29.873  -0.692  53.619  1.00  0.00     0.033 C 
ENDBRANCH  22  23
ENDBRANCH  21  22
ENDBRANCH  20  21
ENDBRANCH  19  20
ENDBRANCH   1  19
TORSDOF 7
ENDMDL
MODEL 6
REMARK VINA RESULT:      -6.6      2.493      6.365
REMARK  7 active torsions:
REMARK  status: ('A' for Active; 'I' for Inactive)
REMARK    1  A    between atoms: C2_2  and  O1_3 
REMARK    2  A    between atoms: O1_3  and  C3_4 
REMARK    3  A    between atoms: C3_4  and  C4_5 
REMARK    4  A    between atoms: C4_5  and  C5_6 
REMARK    5  A    between atoms: C5_6  and  C6_7 
REMARK    6  A    between atoms: C10_13  and  C11_14 
REMARK    7  A    between atoms: C14_17  and  N3_18 
REMARK       I    between atoms: N3_18  and  C15_19 
ROOT
HETATM    1  C6  UNL     1      25.813   3.891  49.780  1.00  0.00     0.018 A 
HETATM    2  C7  UNL     1      26.414   4.912  49.085  1.00  0.00     0.044 A 
HETATM    3  C8  UNL     1      27.823   4.840  48.631  1.00  0.00     0.071 C 
HETATM    4  N1  UNL     1      25.802   6.041  48.689  1.00  0.00    -0.246 NA
HETATM    5  C9  UNL     1      24.522   6.274  48.944  1.00  0.00     0.234 A 
HETATM    6  N2  UNL     1      23.859   5.326  49.618  1.00  0.00    -0.240 NA
HETATM    7  C10 UNL     1      24.494   4.192  50.011  1.00  0.00     0.080 A 
ENDROOT
BRANCH   7   8
HETATM    8  C11 UNL     1      23.643   3.267  50.754  1.00  0.00    -0.006 A 
HETATM    9  C12 UNL     1      23.411   3.130  52.115  1.00  0.00     0.016 A 
HETATM   10  C13 UNL     1      22.570   2.160  52.589  1.00  0.00     0.030 A 
HETATM   11  C14 UNL     1      21.913   1.277  51.788  1.00  0.00     0.034 A 
HETATM   12  C17 UNL     1      22.109   1.371  50.435  1.00  0.00     0.030 A 
HETATM   13  C18 UNL     1      22.955   2.346  49.952  1.00  0.00     0.016 A 
BRANCH  11  14
HETATM   14  N3  UNL     1      21.053   0.290  52.342  1.00  0.00    -0.328 N 
HETATM   15  C15 UNL     1      19.635   0.265  52.463  1.00  0.00     0.218 C 
HETATM   16  C16 UNL     1      18.979  -0.909  53.093  1.00  0.00     0.117 C 
HETATM   17  O2  UNL     1      18.934   1.222  52.045  1.00  0.00    -0.274 OA
HETATM   18  H16 UNL     1      21.667  -0.501  52.684  1.00  0.00     0.169 HD
ENDBRANCH  11  14
ENDBRANCH   7   8
BRANCH   1  19
HETATM   19  C5  UNL     1      26.404   2.698  50.316  1.00  0.00     0.014 C 
BRANCH  19  20
HETATM   20  C4  UNL     1      26.896   2.444  51.524  1.00  0.00     0.000 C 
BRANCH  20  21
HETATM   21  C3  UNL     1      27.413   2.093  52.823  1.00  0.00     0.195 C 
BRANCH  21  22
HETATM   22  O1  UNL     1      26.437   1.876  53.820  1.00  0.00    -0.388 OA
BRANCH  22  23
HETATM   23  C2  UNL     1      26.434   0.534  54.205  1.00  0.00     0.163 C 
HETATM   24  C1  UNL     1      25.221  -0.194  53.657  1.00  0.00     0.033 C 
ENDBRANCH  22  23
ENDBRANCH  21  22
ENDBRANCH  20  21
ENDBRANCH  19  20
ENDBRANCH   1  19
TORSDOF 7
ENDMDL
MODEL 7
REMARK VINA RESULT:      -6.4      3.340      5.628
REMARK  7 active torsions:
REMARK  status: ('A' for Active; 'I' for Inactive)
REMARK    1  A    between atoms: C2_2  and  O1_3 
REMARK    2  A    between atoms: O1_3  and  C3_4 
REMARK    3  A    between atoms: C3_4  and  C4_5 
REMARK    4  A    between atoms: C4_5  and  C5_6 
REMARK    5  A    between atoms: C5_6  and  C6_7 
REMARK    6  A    between atoms: C10_13  and  C11_14 
REMARK    7  A    between atoms: C14_17  and  N3_18 
REMARK       I    between atoms: N3_18  and  C15_19 
ROOT
HETATM    1  C6  UNL     1      25.251   3.764  49.846  1.00  0.00     0.018 A 
HETATM    2  C7  UNL     1      23.926   3.446  50.009  1.00  0.00     0.044 A 
HETATM    3  C8  UNL     1      23.484   2.255  50.774  1.00  0.00     0.071 C 
HETATM    4  N1  UNL     1      22.894   4.181  49.560  1.00  0.00    -0.246 NA
HETATM    5  C9  UNL     1      23.074   5.317  48.901  1.00  0.00     0.234 A 
HETATM    6  N2  UNL     1      24.341   5.704  48.701  1.00  0.00    -0.240 NA
HETATM    7  C10 UNL     1      25.371   4.947  49.159  1.00  0.00     0.080 A 
ENDROOT
BRANCH   7   8
HETATM    8  C11 UNL     1      26.688   5.489  48.843  1.00  0.00    -0.006 A 
HETATM    9  C12 UNL     1      27.885   4.861  48.530  1.00  0.00     0.016 A 
HETATM   10  C13 UNL     1      29.017   5.590  48.284  1.00  0.00     0.030 A 
HETATM   11  C14 UNL     1      29.059   6.950  48.325  1.00  0.00     0.034 A 
HETATM   12  C17 UNL     1      27.903   7.618  48.630  1.00  0.00     0.030 A 
HETATM   13  C18 UNL     1      26.760   6.889  48.879  1.00  0.00     0.016 A 
BRANCH  11  14
HETATM   14  N3  UNL     1      30.267   7.651  48.061  1.00  0.00    -0.328 N 
HETATM   15  C15 UNL     1      31.511   7.638  48.752  1.00  0.00     0.218 C 
HETATM   16  C16 UNL     1      32.629   8.478  48.254  1.00  0.00     0.117 C 
HETATM   17  O2  UNL     1      31.674   6.926  49.776  1.00  0.00    -0.274 OA
HETATM   18  H16 UNL     1      30.103   8.239  47.197  1.00  0.00     0.169 HD
ENDBRANCH  11  14
ENDBRANCH   7   8
BRANCH   1  19
HETATM   19  C5  UNL     1      26.411   3.001  50.211  1.00  0.00     0.014 C 
BRANCH  19  20
HETATM   20  C4  UNL     1      26.813   2.550  51.394  1.00  0.00     0.000 C 
BRANCH  20  21
HETATM   21  C3  UNL     1      27.323   2.080  52.658  1.00  0.00     0.195 C 
BRANCH  21  22
HETATM   22  O1  UNL     1      28.641   2.485  52.963  1.00  0.00    -0.388 OA
BRANCH  22  23
HETATM   23  C2  UNL     1      29.130   1.751  54.045  1.00  0.00     0.163 C 
HETATM   24  C1  UNL     1      29.537   0.352  53.625  1.00  0.00     0.033 C 
ENDBRANCH  22  23
ENDBRANCH  21  22
ENDBRANCH  20  21
ENDBRANCH  19  20
ENDBRANCH   1  19
TORSDOF 7
ENDMDL
MODEL 8
REMARK VINA RESULT:      -6.4      3.445      6.956
REMARK  7 active torsions:
REMARK  status: ('A' for Active; 'I' for Inactive)
REMARK    1  A    between atoms: C2_2  and  O1_3 
REMARK    2  A    between atoms: O1_3  and  C3_4 
REMARK    3  A    between atoms: C3_4  and  C4_5 
REMARK    4  A    between atoms: C4_5  and  C5_6 
REMARK    5  A    between atoms: C5_6  and  C6_7 
REMARK    6  A    between atoms: C10_13  and  C11_14 
REMARK    7  A    between atoms: C14_17  and  N3_18 
REMARK       I    between atoms: N3_18  and  C15_19 
ROOT
HETATM    1  C6  UNL     1      24.951   1.337  53.014  1.00  0.00     0.018 A 
HETATM    2  C7  UNL     1      26.209   1.216  53.551  1.00  0.00     0.044 A 
HETATM    3  C8  UNL     1      27.283   2.202  53.284  1.00  0.00     0.071 C 
HETATM    4  N1  UNL     1      26.595   0.252  54.405  1.00  0.00    -0.246 NA
HETATM    5  C9  UNL     1      25.765  -0.695  54.817  1.00  0.00     0.234 A 
HETATM    6  N2  UNL     1      24.513  -0.649  54.342  1.00  0.00    -0.240 NA
HETATM    7  C10 UNL     1      24.142   0.330  53.479  1.00  0.00     0.080 A 
ENDROOT
BRANCH   7   8
HETATM    8  C11 UNL     1      22.755   0.231  53.034  1.00  0.00    -0.006 A 
HETATM    9  C12 UNL     1      22.204   0.169  51.762  1.00  0.00     0.016 A 
HETATM   10  C13 UNL     1      20.848   0.096  51.588  1.00  0.00     0.030 A 
HETATM   11  C14 UNL     1      19.958   0.079  52.617  1.00  0.00     0.034 A 
HETATM   12  C17 UNL     1      20.452   0.137  53.893  1.00  0.00     0.030 A 
HETATM   13  C18 UNL     1      21.816   0.211  54.075  1.00  0.00     0.016 A 
BRANCH  11  14
HETATM   14  N3  UNL     1      18.560   0.003  52.370  1.00  0.00    -0.328 N 
HETATM   15  C15 UNL     1      17.616  -1.004  52.714  1.00  0.00     0.218 C 
HETATM   16  C16 UNL     1      16.192  -0.830  52.329  1.00  0.00     0.117 C 
HETATM   17  O2  UNL     1      17.971  -2.037  53.339  1.00  0.00    -0.274 OA
HETATM   18  H16 UNL     1      18.289   0.881  51.846  1.00  0.00     0.169 HD
ENDBRANCH  11  14
ENDBRANCH   7   8
BRANCH   1  19
HETATM   19  C5  UNL     1      24.477   2.273  52.034  1.00  0.00     0.014 C 
BRANCH  19  20
HETATM   20  C4  UNL     1      23.882   3.452  52.181  1.00  0.00     0.000 C 
BRANCH  20  21
HETATM   21  C3  UNL     1      23.257   4.748  52.267  1.00  0.00     0.195 C 
BRANCH  21  22
HETATM   22  O1  UNL     1      21.865   4.731  52.500  1.00  0.00    -0.388 OA
BRANCH  22  23
HETATM   23  C2  UNL     1      21.196   4.244  51.376  1.00  0.00     0.163 C 
HETATM   24  C1  UNL     1      19.833   3.687  51.742  1.00  0.00     0.033 C 
ENDBRANCH  22  23
ENDBRANCH  21  22
ENDBRANCH  20  21
ENDBRANCH  19  20
ENDBRANCH   1  19
TORSDOF 7
ENDMDL
MODEL 9
REMARK VINA RESULT:      -6.3      3.130      7.314
REMARK  7 active torsions:
REMARK  status: ('A' for Active; 'I' for Inactive)
REMARK    1  A    between atoms: C2_2  and  O1_3 
REMARK    2  A    between atoms: O1_3  and  C3_4 
REMARK    3  A    between atoms: C3_4  and  C4_5 
REMARK    4  A    between atoms: C4_5  and  C5_6 
REMARK    5  A    between atoms: C5_6  and  C6_7 
REMARK    6  A    between atoms: C10_13  and  C11_14 
REMARK    7  A    between atoms: C14_17  and  N3_18 
REMARK       I    between atoms: N3_18  and  C15_19 
ROOT
HETATM    1  C6  UNL     1      24.905   2.716  50.701  1.00  0.00     0.018 A 
HETATM    2  C7  UNL     1      26.242   3.003  50.582  1.00  0.00     0.044 A 
HETATM    3  C8  UNL     1      26.788   3.778  49.442  1.00  0.00     0.071 C 
HETATM    4  N1  UNL     1      27.185   2.680  51.484  1.00  0.00    -0.246 NA
HETATM    5  C9  UNL     1      26.894   2.036  52.605  1.00  0.00     0.234 A 
HETATM    6  N2  UNL     1      25.608   1.718  52.802  1.00  0.00    -0.240 NA
HETATM    7  C10 UNL     1      24.669   2.051  51.879  1.00  0.00     0.080 A 
ENDROOT
BRANCH   7   8
HETATM    8  C11 UNL     1      23.320   1.617  52.227  1.00  0.00    -0.006 A 
HETATM    9  C12 UNL     1      22.143   2.333  52.392  1.00  0.00     0.016 A 
HETATM   10  C13 UNL     1      20.981   1.701  52.743  1.00  0.00     0.030 A 
HETATM   11  C14 UNL     1      20.888   0.359  52.953  1.00  0.00     0.034 A 
HETATM   12  C17 UNL     1      22.023  -0.393  52.802  1.00  0.00     0.030 A 
HETATM   13  C18 UNL     1      23.196   0.238  52.449  1.00  0.00     0.016 A 
BRANCH  11  14
HETATM   14  N3  UNL     1      19.651  -0.238  53.318  1.00  0.00    -0.328 N 
HETATM   15  C15 UNL     1      18.519  -0.573  52.524  1.00  0.00     0.218 C 
HETATM   16  C16 UNL     1      17.337  -1.200  53.168  1.00  0.00     0.117 C 
HETATM   17  O2  UNL     1      18.507  -0.345  51.287  1.00  0.00    -0.274 OA
HETATM   18  H16 UNL     1      19.688  -0.419  54.360  1.00  0.00     0.169 HD
ENDBRANCH  11  14
ENDBRANCH   7   8
BRANCH   1  19
HETATM   19  C5  UNL     1      23.848   2.942  49.756  1.00  0.00     0.014 C 
BRANCH  19  20
HETATM   20  C4  UNL     1      23.366   4.072  49.252  1.00  0.00     0.000 C 
BRANCH  20  21
HETATM   21  C3  UNL     1      22.790   5.256  48.665  1.00  0.00     0.195 C 
BRANCH  21  22
HETATM   22  O1  UNL     1      23.128   6.469  49.302  1.00  0.00    -0.388 OA
BRANCH  22  23
HETATM   23  C2  UNL     1      24.503   6.695  49.206  1.00  0.00     0.163 C 
HETATM   24  C1  UNL     1      25.079   7.162  50.530  1.00  0.00     0.033 C 
ENDBRANCH  22  23
ENDBRANCH  21  22
ENDBRANCH  20  21
ENDBRANCH  19  20
ENDBRANCH   1  19
TORSDOF 7
ENDMDL
