MODEL 1
REMARK VINA RESULT:      -8.1      0.000      0.000
REMARK  5 active torsions:
REMARK  status: ('A' for Active; 'I' for Inactive)
REMARK    1  A    between atoms: C2_2  and  C3_3 
REMARK    2  A    between atoms: C8_9  and  C9_10 
REMARK    3  A    between atoms: C12_14  and  N2_15 
REMARK    4  A    between atoms: N2_15  and  C13_16 
REMARK    5  A    between atoms: C13_16  and  C15_18 
ROOT
HETATM    1  C9  UNL     1      23.813   2.888  52.623  1.00  0.00     0.007 A 
HETATM    2  C10 UNL     1      23.780   4.189  52.839  1.00  0.00     0.010 A 
HETATM    3  C11 UNL     1      23.070   4.926  51.762  1.00  0.00     0.179 A 
HETATM    4  N1  UNL     1      22.691   3.850  50.875  1.00  0.00    -0.269 NA
HETATM    5  C12 UNL     1      23.105   2.737  51.360  1.00  0.00     0.129 A 
ENDROOT
BRANCH   5   6
HETATM    6  N2  UNL     1      22.862   1.511  50.680  1.00  0.00    -0.366 N 
HETATM    7  H12 UNL     1      23.619   1.179  50.011  1.00  0.00     0.161 HD
BRANCH   6   8
HETATM    8  C13 UNL     1      21.630   0.753  50.897  1.00  0.00     0.112 C 
HETATM    9  C14 UNL     1      20.463   1.643  50.547  1.00  0.00     0.037 C 
BRANCH   8  10
HETATM   10  C15 UNL     1      21.558   0.259  52.289  1.00  0.00    -0.036 A 
HETATM   11  C16 UNL     1      20.733   0.865  53.197  1.00  0.00     0.009 A 
HETATM   12  C17 UNL     1      20.698   0.370  54.490  1.00  0.00     0.001 A 
HETATM   13  C18 UNL     1      21.503  -0.721  54.810  1.00  0.00     0.000 A 
HETATM   14  C19 UNL     1      22.339  -1.334  53.890  1.00  0.00     0.001 A 
HETATM   15  C20 UNL     1      22.349  -0.813  52.606  1.00  0.00     0.009 A 
ENDBRANCH   8  10
ENDBRANCH   6   8
ENDBRANCH   5   6
BRANCH   1  16
HETATM   16  C8  UNL     1      24.392   1.810  53.403  1.00  0.00     0.022 C 
HETATM   17  C7  UNL     1      25.538   1.200  53.167  1.00  0.00    -0.031 C 
HETATM   18  C3  UNL     1      26.741   1.062  52.331  1.00  0.00     0.062 C 
HETATM   19  C6  UNL     1      26.054   0.091  54.046  1.00  0.00     0.223 C 
HETATM   20  C4  UNL     1      26.755  -0.391  51.957  1.00  0.00    -0.015 C 
HETATM   21  C5  UNL     1      26.317  -0.987  53.057  1.00  0.00     0.011 C 
HETATM   22  F1  UNL     1      25.101  -0.297  54.973  1.00  0.00    -0.240 F 
BRANCH  18  23
HETATM   23  C2  UNL     1      27.985   1.422  53.076  1.00  0.00    -0.024 C 
HETATM   24  C1  UNL     1      28.686   2.453  53.591  1.00  0.00     0.008 C 
ENDBRANCH  18  23
ENDBRANCH   1  16
TORSDOF 5
ENDMDL
MODEL 2
REMARK VINA RESULT:      -8.1      1.885      5.645
REMARK  5 active torsions:
REMARK  status: ('A' for Active; 'I' for Inactive)
REMARK    1  A    between atoms: C2_2  and  C3_3 
REMARK    2  A    between atoms: C8_9  and  C9_10 
REMARK    3  A    between atoms: C12_14  and  N2_15 
REMARK    4  A    between atoms: N2_15  and  C13_16 
REMARK    5  A    between atoms: C13_16  and  C15_18 
ROOT
HETATM    1  C9  UNL     1      24.107   2.115  51.696  1.00  0.00     0.007 A 
HETATM    2  C10 UNL     1      23.418   3.186  51.352  1.00  0.00     0.010 A 
HETATM    3  C11 UNL     1      24.281   4.270  50.816  1.00  0.00     0.179 A 
HETATM    4  N1  UNL     1      25.591   3.665  50.900  1.00  0.00    -0.269 NA
HETATM    5  C12 UNL     1      25.481   2.482  51.385  1.00  0.00     0.129 A 
ENDROOT
BRANCH   5   6
HETATM    6  N2  UNL     1      26.627   1.662  51.574  1.00  0.00    -0.366 N 
HETATM    7  H12 UNL     1      27.119   1.320  50.696  1.00  0.00     0.161 HD
BRANCH   6   8
HETATM    8  C13 UNL     1      27.099   1.313  52.914  1.00  0.00     0.112 C 
HETATM    9  C14 UNL     1      28.158   2.310  53.314  1.00  0.00     0.037 C 
BRANCH   8  10
HETATM   10  C15 UNL     1      27.602  -0.078  52.944  1.00  0.00    -0.036 A 
HETATM   11  C16 UNL     1      26.802  -1.113  52.543  1.00  0.00     0.009 A 
HETATM   12  C17 UNL     1      27.313  -2.398  52.588  1.00  0.00     0.001 A 
HETATM   13  C18 UNL     1      28.618  -2.583  53.039  1.00  0.00     0.000 A 
HETATM   14  C19 UNL     1      29.429  -1.534  53.446  1.00  0.00     0.001 A 
HETATM   15  C20 UNL     1      28.885  -0.262  53.388  1.00  0.00     0.009 A 
ENDBRANCH   8  10
ENDBRANCH   6   8
ENDBRANCH   5   6
BRANCH   1  16
HETATM   16  C8  UNL     1      23.675   0.846  52.253  1.00  0.00     0.022 C 
HETATM   17  C7  UNL     1      22.458   0.543  52.661  1.00  0.00    -0.031 C 
HETATM   18  C3  UNL     1      21.060   0.954  52.862  1.00  0.00     0.062 C 
HETATM   19  C6  UNL     1      22.112  -0.812  53.221  1.00  0.00     0.223 C 
HETATM   20  C4  UNL     1      20.804   0.666  54.313  1.00  0.00    -0.015 C 
HETATM   21  C5  UNL     1      21.479  -0.456  54.518  1.00  0.00     0.011 C 
HETATM   22  F1  UNL     1      23.249  -1.580  53.409  1.00  0.00    -0.240 F 
BRANCH  18  23
HETATM   23  C2  UNL     1      20.117   0.177  52.001  1.00  0.00    -0.024 C 
HETATM   24  C1  UNL     1      18.813  -0.063  51.756  1.00  0.00     0.008 C 
ENDBRANCH  18  23
ENDBRANCH   1  16
TORSDOF 5
ENDMDL
MODEL 3
REMARK VINA RESULT:      -8.0      2.573      5.663
REMARK  5 active torsions:
REMARK  status: ('A' for Active; 'I' for Inactive)
REMARK    1  A    between atoms: C2_2  and  C3_3 
REMARK    2  A    between atoms: C8_9  and  C9_10 
REMARK    3  A    between atoms: C12_14  and  N2_15 
REMARK    4  A    between atoms: N2_15  and  C13_16 
REMARK    5  A    between atoms: C13_16  and  C15_18 
ROOT
HETATM    1  C9  UNL     1      25.419   1.630  52.676  1.00  0.00     0.007 A 
HETATM    2  C10 UNL     1      25.942   0.562  53.247  1.00  0.00     0.010 A 
HETATM    3  C11 UNL     1      27.397   0.428  52.977  1.00  0.00     0.179 A 
HETATM    4  N1  UNL     1      27.648   1.590  52.155  1.00  0.00    -0.269 NA
HETATM    5  C12 UNL     1      26.554   2.241  51.998  1.00  0.00     0.129 A 
ENDROOT
BRANCH   5   6
HETATM    6  N2  UNL     1      26.520   3.434  51.225  1.00  0.00    -0.366 N 
HETATM    7  H12 UNL     1      26.787   4.334  51.725  1.00  0.00     0.161 HD
BRANCH   6   8
HETATM    8  C13 UNL     1      26.137   3.416  49.814  1.00  0.00     0.112 C 
HETATM    9  C14 UNL     1      27.056   4.349  49.065  1.00  0.00     0.037 C 
BRANCH   8  10
HETATM   10  C15 UNL     1      24.714   3.787  49.654  1.00  0.00    -0.036 A 
HETATM   11  C16 UNL     1      23.858   2.970  48.966  1.00  0.00     0.009 A 
HETATM   12  C17 UNL     1      22.535   3.357  48.840  1.00  0.00     0.001 A 
HETATM   13  C18 UNL     1      22.131   4.558  49.419  1.00  0.00     0.000 A 
HETATM   14  C19 UNL     1      22.999   5.385  50.116  1.00  0.00     0.001 A 
HETATM   15  C20 UNL     1      24.315   4.968  50.222  1.00  0.00     0.009 A 
ENDBRANCH   8  10
ENDBRANCH   6   8
ENDBRANCH   5   6
BRANCH   1  16
HETATM   16  C8  UNL     1      24.060   2.139  52.678  1.00  0.00     0.022 C 
HETATM   17  C7  UNL     1      22.956   1.424  52.578  1.00  0.00    -0.031 C 
HETATM   18  C3  UNL     1      22.320   0.105  52.438  1.00  0.00     0.062 C 
HETATM   19  C6  UNL     1      21.587   2.052  52.596  1.00  0.00     0.223 C 
HETATM   20  C4  UNL     1      21.431   0.258  51.237  1.00  0.00    -0.015 C 
HETATM   21  C5  UNL     1      20.978   1.498  51.358  1.00  0.00     0.011 C 
HETATM   22  F1  UNL     1      21.670   3.434  52.542  1.00  0.00    -0.240 F 
BRANCH  18  23
HETATM   23  C2  UNL     1      21.513  -0.260  53.642  1.00  0.00    -0.024 C 
HETATM   24  C1  UNL     1      21.314  -1.218  54.570  1.00  0.00     0.008 C 
ENDBRANCH  18  23
ENDBRANCH   1  16
TORSDOF 5
ENDMDL
MODEL 4
REMARK VINA RESULT:      -7.8      2.030      4.100
REMARK  5 active torsions:
REMARK  status: ('A' for Active; 'I' for Inactive)
REMARK    1  A    between atoms: C2_2  and  C3_3 
REMARK    2  A    between atoms: C8_9  and  C9_10 
REMARK    3  A    between atoms: C12_14  and  N2_15 
REMARK    4  A    between atoms: N2_15  and  C13_16 
REMARK    5  A    between atoms: C13_16  and  C15_18 
ROOT
HETATM    1  C9  UNL     1      24.147  -0.485  53.719  1.00  0.00     0.007 A 
HETATM    2  C10 UNL     1      24.326  -0.998  54.921  1.00  0.00     0.010 A 
HETATM    3  C11 UNL     1      23.063  -1.506  55.516  1.00  0.00     0.179 A 
HETATM    4  N1  UNL     1      22.110  -1.210  54.471  1.00  0.00    -0.269 NA
HETATM    5  C12 UNL     1      22.718  -0.649  53.491  1.00  0.00     0.129 A 
ENDROOT
BRANCH   5   6
HETATM    6  N2  UNL     1      22.008  -0.252  52.324  1.00  0.00    -0.366 N 
HETATM    7  H12 UNL     1      21.914  -0.977  51.553  1.00  0.00     0.161 HD
BRANCH   6   8
HETATM    8  C13 UNL     1      21.440   1.091  52.200  1.00  0.00     0.112 C 
HETATM    9  C14 UNL     1      20.214   1.003  51.326  1.00  0.00     0.037 C 
BRANCH   8  10
HETATM   10  C15 UNL     1      22.444   2.035  51.662  1.00  0.00    -0.036 A 
HETATM   11  C16 UNL     1      22.807   1.981  50.343  1.00  0.00     0.009 A 
HETATM   12  C17 UNL     1      23.750   2.884  49.882  1.00  0.00     0.001 A 
HETATM   13  C18 UNL     1      24.288   3.806  50.777  1.00  0.00     0.000 A 
HETATM   14  C19 UNL     1      23.919   3.859  52.113  1.00  0.00     0.001 A 
HETATM   15  C20 UNL     1      22.973   2.942  52.540  1.00  0.00     0.009 A 
ENDBRANCH   8  10
ENDBRANCH   6   8
ENDBRANCH   5   6
BRANCH   1  16
HETATM   16  C8  UNL     1      25.089   0.114  52.792  1.00  0.00     0.022 C 
HETATM   17  C7  UNL     1      26.354   0.397  53.034  1.00  0.00    -0.031 C 
HETATM   18  C3  UNL     1      27.485   0.398  53.974  1.00  0.00     0.062 C 
HETATM   19  C6  UNL     1      27.253   1.015  51.995  1.00  0.00     0.223 C 
HETATM   20  C4  UNL     1      27.948   1.827  53.982  1.00  0.00    -0.015 C 
HETATM   21  C5  UNL     1      27.792   2.197  52.719  1.00  0.00     0.011 C 
HETATM   22  F1  UNL     1      26.533   1.397  50.874  1.00  0.00    -0.240 F 
BRANCH  18  23
HETATM   23  C2  UNL     1      28.588  -0.505  53.527  1.00  0.00    -0.024 C 
HETATM   24  C1  UNL     1      29.912  -0.745  53.635  1.00  0.00     0.008 C 
ENDBRANCH  18  23
ENDBRANCH   1  16
TORSDOF 5
ENDMDL
MODEL 5
REMARK VINA RESULT:      -7.6      2.237      4.666
REMARK  5 active torsions:
REMARK  status: ('A' for Active; 'I' for Inactive)
REMARK    1  A    between atoms: C2_2  and  C3_3 
REMARK    2  A    between atoms: C8_9  and  C9_10 
REMARK    3  A    between atoms: C12_14  and  N2_15 
REMARK    4  A    between atoms: N2_15  and  C13_16 
REMARK    5  A    between atoms: C13_16  and  C15_18 
ROOT
HETATM    1  C9  UNL     1      24.965   1.721  53.335  1.00  0.00     0.007 A 
HETATM    2  C10 UNL     1      26.184   1.649  53.832  1.00  0.00     0.010 A 
HETATM    3  C11 UNL     1      26.531   0.279  54.290  1.00  0.00     0.179 A 
HETATM    4  N1  UNL     1      25.319  -0.445  53.983  1.00  0.00    -0.269 NA
HETATM    5  C12 UNL     1      24.467   0.359  53.460  1.00  0.00     0.129 A 
ENDROOT
BRANCH   5   6
HETATM    6  N2  UNL     1      23.181  -0.100  53.061  1.00  0.00    -0.366 N 
HETATM    7  H12 UNL     1      23.138  -0.692  52.179  1.00  0.00     0.161 HD
BRANCH   6   8
HETATM    8  C13 UNL     1      21.983   0.231  53.833  1.00  0.00     0.112 C 
HETATM    9  C14 UNL     1      21.540  -1.010  54.568  1.00  0.00     0.037 C 
BRANCH   8  10
HETATM   10  C15 UNL     1      20.924   0.765  52.949  1.00  0.00    -0.036 A 
HETATM   11  C16 UNL     1      20.656   2.107  52.922  1.00  0.00     0.009 A 
HETATM   12  C17 UNL     1      19.656   2.563  52.081  1.00  0.00     0.001 A 
HETATM   13  C18 UNL     1      18.966   1.638  51.299  1.00  0.00     0.000 A 
HETATM   14  C19 UNL     1      19.238   0.279  51.328  1.00  0.00     0.001 A 
HETATM   15  C20 UNL     1      20.244  -0.143  52.181  1.00  0.00     0.009 A 
ENDBRANCH   8  10
ENDBRANCH   6   8
ENDBRANCH   5   6
BRANCH   1  16
HETATM   16  C8  UNL     1      24.229   2.844  52.782  1.00  0.00     0.022 C 
HETATM   17  C7  UNL     1      23.868   3.000  51.523  1.00  0.00    -0.031 C 
HETATM   18  C3  UNL     1      23.851   2.483  50.146  1.00  0.00     0.062 C 
HETATM   19  C6  UNL     1      23.097   4.205  51.052  1.00  0.00     0.223 C 
HETATM   20  C4  UNL     1      24.429   3.605  49.332  1.00  0.00    -0.015 C 
HETATM   21  C5  UNL     1      23.937   4.685  49.923  1.00  0.00     0.011 C 
HETATM   22  F1  UNL     1      23.001   5.159  52.051  1.00  0.00    -0.240 F 
BRANCH  18  23
HETATM   23  C2  UNL     1      22.467   2.161  49.684  1.00  0.00    -0.024 C 
HETATM   24  C1  UNL     1      21.755   1.410  48.818  1.00  0.00     0.008 C 
ENDBRANCH  18  23
ENDBRANCH   1  16
TORSDOF 5
ENDMDL
MODEL 6
REMARK VINA RESULT:      -7.6      2.337      5.759
REMARK  5 active torsions:
REMARK  status: ('A' for Active; 'I' for Inactive)
REMARK    1  A    between atoms: C2_2  and  C3_3 
REMARK    2  A    between atoms: C8_9  and  C9_10 
REMARK    3  A    between atoms: C12_14  and  N2_15 
REMARK    4  A    between atoms: N2_15  and  C13_16 
REMARK    5  A    between atoms: C13_16  and  C15_18 
ROOT
HETATM    1  C9  UNL     1      24.565   2.867  51.147  1.00  0.00     0.007 A 
HETATM    2  C10 UNL     1      24.979   3.321  49.981  1.00  0.00     0.010 A 
HETATM    3  C11 UNL     1      26.424   3.062  49.750  1.00  0.00     0.179 A 
HETATM    4  N1  UNL     1      26.795   2.382  50.970  1.00  0.00    -0.269 NA
HETATM    5  C12 UNL     1      25.765   2.281  51.728  1.00  0.00     0.129 A 
ENDROOT
BRANCH   5   6
HETATM    6  N2  UNL     1      25.854   1.649  52.998  1.00  0.00    -0.366 N 
HETATM    7  H12 UNL     1      25.820   2.283  53.851  1.00  0.00     0.161 HD
BRANCH   6   8
HETATM    8  C13 UNL     1      25.987   0.196  53.117  1.00  0.00     0.112 C 
HETATM    9  C14 UNL     1      25.136  -0.260  54.276  1.00  0.00     0.037 C 
BRANCH   8  10
HETATM   10  C15 UNL     1      27.406  -0.187  53.281  1.00  0.00    -0.036 A 
HETATM   11  C16 UNL     1      27.822  -1.454  52.974  1.00  0.00     0.009 A 
HETATM   12  C17 UNL     1      29.159  -1.769  53.144  1.00  0.00     0.001 A 
HETATM   13  C18 UNL     1      30.023  -0.785  53.619  1.00  0.00     0.000 A 
HETATM   14  C19 UNL     1      29.601   0.498  53.931  1.00  0.00     0.001 A 
HETATM   15  C20 UNL     1      28.257   0.779  53.749  1.00  0.00     0.009 A 
ENDBRANCH   8  10
ENDBRANCH   6   8
ENDBRANCH   5   6
BRANCH   1  16
HETATM   16  C8  UNL     1      23.254   2.903  51.770  1.00  0.00     0.022 C 
HETATM   17  C7  UNL     1      22.444   1.878  51.951  1.00  0.00    -0.031 C 
HETATM   18  C3  UNL     1      22.180   0.440  51.791  1.00  0.00     0.062 C 
HETATM   19  C6  UNL     1      21.101   2.023  52.617  1.00  0.00     0.223 C 
HETATM   20  C4  UNL     1      20.860   0.392  51.077  1.00  0.00    -0.015 C 
HETATM   21  C5  UNL     1      20.193   1.402  51.617  1.00  0.00     0.011 C 
HETATM   22  F1  UNL     1      20.787   3.356  52.825  1.00  0.00    -0.240 F 
BRANCH  18  23
HETATM   23  C2  UNL     1      22.089  -0.264  53.106  1.00  0.00    -0.024 C 
HETATM   24  C1  UNL     1      21.616  -1.368  53.720  1.00  0.00     0.008 C 
ENDBRANCH  18  23
ENDBRANCH   1  16
TORSDOF 5
ENDMDL
MODEL 7
REMARK VINA RESULT:      -7.5      2.456      5.742
REMARK  5 active torsions:
REMARK  status: ('A' for Active; 'I' for Inactive)
REMARK    1  A    between atoms: C2_2  and  C3_3 
REMARK    2  A    between atoms: C8_9  and  C9_10 
REMARK    3  A    between atoms: C12_14  and  N2_15 
REMARK    4  A    between atoms: N2_15  and  C13_16 
REMARK    5  A    between atoms: C13_16  and  C15_18 
ROOT
HETATM    1  C9  UNL     1      22.320   0.045  52.692  1.00  0.00     0.007 A 
HETATM    2  C10 UNL     1      21.331  -0.351  53.469  1.00  0.00     0.010 A 
HETATM    3  C11 UNL     1      21.811  -0.945  54.743  1.00  0.00     0.179 A 
HETATM    4  N1  UNL     1      23.244  -0.836  54.592  1.00  0.00    -0.269 NA
HETATM    5  C12 UNL     1      23.510  -0.291  53.461  1.00  0.00     0.129 A 
ENDROOT
BRANCH   5   6
HETATM    6  N2  UNL     1      24.855  -0.065  53.059  1.00  0.00    -0.366 N 
HETATM    7  H12 UNL     1      25.063  -0.148  52.019  1.00  0.00     0.161 HD
BRANCH   6   8
HETATM    8  C13 UNL     1      25.895   0.266  54.034  1.00  0.00     0.112 C 
HETATM    9  C14 UNL     1      26.099   1.760  54.014  1.00  0.00     0.037 C 
BRANCH   8  10
HETATM   10  C15 UNL     1      27.142  -0.473  53.738  1.00  0.00    -0.036 A 
HETATM   11  C16 UNL     1      27.103  -1.636  53.018  1.00  0.00     0.009 A 
HETATM   12  C17 UNL     1      28.294  -2.295  52.765  1.00  0.00     0.001 A 
HETATM   13  C18 UNL     1      29.478  -1.746  53.252  1.00  0.00     0.000 A 
HETATM   14  C19 UNL     1      29.516  -0.567  53.981  1.00  0.00     0.001 A 
HETATM   15  C20 UNL     1      28.307   0.065  54.216  1.00  0.00     0.009 A 
ENDBRANCH   8  10
ENDBRANCH   6   8
ENDBRANCH   5   6
BRANCH   1  16
HETATM   16  C8  UNL     1      22.308   0.669  51.381  1.00  0.00     0.022 C 
HETATM   17  C7  UNL     1      22.896   1.801  51.047  1.00  0.00    -0.031 C 
HETATM   18  C3  UNL     1      23.714   2.958  51.442  1.00  0.00     0.062 C 
HETATM   19  C6  UNL     1      22.827   2.361  49.650  1.00  0.00     0.223 C 
HETATM   20  C4  UNL     1      22.887   4.142  51.034  1.00  0.00    -0.015 C 
HETATM   21  C5  UNL     1      22.335   3.742  49.897  1.00  0.00     0.011 C 
HETATM   22  F1  UNL     1      21.940   1.642  48.867  1.00  0.00    -0.240 F 
BRANCH  18  23
HETATM   23  C2  UNL     1      25.034   2.977  50.742  1.00  0.00    -0.024 C 
HETATM   24  C1  UNL     1      26.315   2.559  50.820  1.00  0.00     0.008 C 
ENDBRANCH  18  23
ENDBRANCH   1  16
TORSDOF 5
ENDMDL
MODEL 8
REMARK VINA RESULT:      -7.4      1.793      2.332
REMARK  5 active torsions:
REMARK  status: ('A' for Active; 'I' for Inactive)
REMARK    1  A    between atoms: C2_2  and  C3_3 
REMARK    2  A    between atoms: C8_9  and  C9_10 
REMARK    3  A    between atoms: C12_14  and  N2_15 
REMARK    4  A    between atoms: N2_15  and  C13_16 
REMARK    5  A    between atoms: C13_16  and  C15_18 
ROOT
HETATM    1  C9  UNL     1      25.943   2.458  50.805  1.00  0.00     0.007 A 
HETATM    2  C10 UNL     1      26.618   3.311  50.060  1.00  0.00     0.010 A 
HETATM    3  C11 UNL     1      25.905   4.604  49.889  1.00  0.00     0.179 A 
HETATM    4  N1  UNL     1      24.701   4.375  50.654  1.00  0.00    -0.269 NA
HETATM    5  C12 UNL     1      24.734   3.193  51.151  1.00  0.00     0.129 A 
ENDROOT
BRANCH   5   6
HETATM    6  N2  UNL     1      23.664   2.710  51.953  1.00  0.00    -0.366 N 
HETATM    7  H12 UNL     1      23.509   3.197  52.886  1.00  0.00     0.161 HD
BRANCH   6   8
HETATM    8  C13 UNL     1      22.823   1.598  51.509  1.00  0.00     0.112 C 
HETATM    9  C14 UNL     1      21.684   2.165  50.700  1.00  0.00     0.037 C 
BRANCH   8  10
HETATM   10  C15 UNL     1      22.347   0.809  52.667  1.00  0.00    -0.036 A 
HETATM   11  C16 UNL     1      21.115   1.050  53.210  1.00  0.00     0.009 A 
HETATM   12  C17 UNL     1      20.710   0.289  54.292  1.00  0.00     0.001 A 
HETATM   13  C18 UNL     1      21.573  -0.690  54.781  1.00  0.00     0.000 A 
HETATM   14  C19 UNL     1      22.821  -0.934  54.230  1.00  0.00     0.001 A 
HETATM   15  C20 UNL     1      23.194  -0.153  53.149  1.00  0.00     0.009 A 
ENDBRANCH   8  10
ENDBRANCH   6   8
ENDBRANCH   5   6
BRANCH   1  16
HETATM   16  C8  UNL     1      26.258   1.104  51.223  1.00  0.00     0.022 C 
HETATM   17  C7  UNL     1      26.715   0.734  52.404  1.00  0.00    -0.031 C 
HETATM   18  C3  UNL     1      27.142   1.109  53.761  1.00  0.00     0.062 C 
HETATM   19  C6  UNL     1      27.006  -0.705  52.739  1.00  0.00     0.223 C 
HETATM   20  C4  UNL     1      28.517   0.519  53.883  1.00  0.00    -0.015 C 
HETATM   21  C5  UNL     1      28.408  -0.629  53.229  1.00  0.00     0.011 C 
HETATM   22  F1  UNL     1      26.908  -1.509  51.615  1.00  0.00    -0.240 F 
BRANCH  18  23
HETATM   23  C2  UNL     1      26.237   0.547  54.809  1.00  0.00    -0.024 C 
HETATM   24  C1  UNL     1      26.187  -0.276  55.876  1.00  0.00     0.008 C 
ENDBRANCH  18  23
ENDBRANCH   1  16
TORSDOF 5
ENDMDL
MODEL 9
REMARK VINA RESULT:      -7.2      2.435      5.519
REMARK  5 active torsions:
REMARK  status: ('A' for Active; 'I' for Inactive)
REMARK    1  A    between atoms: C2_2  and  C3_3 
REMARK    2  A    between atoms: C8_9  and  C9_10 
REMARK    3  A    between atoms: C12_14  and  N2_15 
REMARK    4  A    between atoms: N2_15  and  C13_16 
REMARK    5  A    between atoms: C13_16  and  C15_18 
ROOT
HETATM    1  C9  UNL     1      20.433   0.562  51.415  1.00  0.00     0.007 A 
HETATM    2  C10 UNL     1      19.180   0.170  51.291  1.00  0.00     0.010 A 
HETATM    3  C11 UNL     1      18.642  -0.420  52.545  1.00  0.00     0.179 A 
HETATM    4  N1  UNL     1      19.782  -0.314  53.427  1.00  0.00    -0.269 NA
HETATM    5  C12 UNL     1      20.758   0.227  52.794  1.00  0.00     0.129 A 
ENDROOT
BRANCH   5   6
HETATM    6  N2  UNL     1      22.008   0.449  53.435  1.00  0.00    -0.366 N 
HETATM    7  H12 UNL     1      22.164   1.414  53.855  1.00  0.00     0.161 HD
BRANCH   6   8
HETATM    8  C13 UNL     1      23.023  -0.602  53.507  1.00  0.00     0.112 C 
HETATM    9  C14 UNL     1      23.105  -1.078  54.937  1.00  0.00     0.037 C 
BRANCH   8  10
HETATM   10  C15 UNL     1      24.324  -0.107  53.008  1.00  0.00    -0.036 A 
HETATM   11  C16 UNL     1      24.401   1.084  52.339  1.00  0.00     0.009 A 
HETATM   12  C17 UNL     1      25.639   1.509  51.888  1.00  0.00     0.001 A 
HETATM   13  C18 UNL     1      26.752   0.708  52.136  1.00  0.00     0.000 A 
HETATM   14  C19 UNL     1      26.673  -0.498  52.815  1.00  0.00     0.001 A 
HETATM   15  C20 UNL     1      25.419  -0.893  53.251  1.00  0.00     0.009 A 
ENDBRANCH   8  10
ENDBRANCH   6   8
ENDBRANCH   5   6
BRANCH   1  16
HETATM   16  C8  UNL     1      21.334   1.181  50.460  1.00  0.00     0.022 C 
HETATM   17  C7  UNL     1      21.663   2.457  50.406  1.00  0.00    -0.031 C 
HETATM   18  C3  UNL     1      21.527   3.815  50.956  1.00  0.00     0.062 C 
HETATM   19  C6  UNL     1      22.616   2.999  49.374  1.00  0.00     0.223 C 
HETATM   20  C4  UNL     1      21.125   4.645  49.771  1.00  0.00    -0.015 C 
HETATM   21  C5  UNL     1      21.827   4.112  48.781  1.00  0.00     0.011 C 
HETATM   22  F1  UNL     1      22.924   2.039  48.425  1.00  0.00    -0.240 F 
BRANCH  18  23
HETATM   23  C2  UNL     1      22.809   4.317  51.535  1.00  0.00    -0.024 C 
HETATM   24  C1  UNL     1      23.423   4.663  52.685  1.00  0.00     0.008 C 
ENDBRANCH  18  23
ENDBRANCH   1  16
TORSDOF 5
ENDMDL
