MODEL 1
REMARK VINA RESULT:      -8.2      0.000      0.000
REMARK  3 active torsions:
REMARK  status: ('A' for Active; 'I' for Inactive)
REMARK    1  A    between atoms: C2_2  and  O1_3 
REMARK    2  A    between atoms: C11_13  and  O3_14 
REMARK    3  A    between atoms: C12_16  and  O4_17 
ROOT
HETATM    1  C1  UNL     1      21.635   1.023  48.645  1.00  0.00     0.076 C 
HETATM    2  C2  UNL     1      22.182   2.240  49.302  1.00  0.00     0.042 C 
HETATM    3  C3  UNL     1      21.826   2.563  50.563  1.00  0.00    -0.049 C 
HETATM    4  C4  UNL     1      20.882   1.603  51.152  1.00  0.00     0.042 C 
HETATM    5  C5  UNL     1      21.558   0.681  52.123  1.00  0.00     0.007 C 
HETATM    6  C6  UNL     1      22.493   0.059  52.871  1.00  0.00     0.077 C 
HETATM    7  C7  UNL     1      23.906   0.022  53.177  1.00  0.00     0.165 C 
HETATM    8  O2  UNL     1      23.425  -0.891  53.934  1.00  0.00    -0.292 OA
HETATM    9  C8  UNL     1      25.297   0.392  53.098  1.00  0.00     0.021 A 
HETATM   10  C9  UNL     1      26.061  -0.640  53.587  1.00  0.00     0.019 A 
HETATM   11  C10 UNL     1      27.436  -0.572  53.634  1.00  0.00     0.044 A 
HETATM   12  C11 UNL     1      27.958   0.607  53.153  1.00  0.00     0.145 A 
HETATM   13  C12 UNL     1      27.232   1.658  52.660  1.00  0.00     0.111 A 
HETATM   14  C13 UNL     1      25.869   1.552  52.629  1.00  0.00     0.015 A 
HETATM   15  C14 UNL     1      25.122   2.725  52.062  1.00  0.00     0.210 C 
HETATM   16  O5  UNL     1      23.975   2.859  52.726  1.00  0.00    -0.386 OA
HETATM   17  C15 UNL     1      23.035   3.763  52.443  1.00  0.00     0.172 C 
HETATM   18  C16 UNL     1      22.421   3.802  51.098  1.00  0.00     0.063 C 
ENDROOT
BRANCH   2  19
HETATM   19  O1  UNL     1      23.064   3.009  48.556  1.00  0.00    -0.365 OA
HETATM   20  H4  UNL     1      23.973   2.609  48.345  1.00  0.00     0.217 HD
ENDBRANCH   2  19
BRANCH  13  21
HETATM   21  O4  UNL     1      27.858   2.815  52.195  1.00  0.00    -0.357 OA
HETATM   22  H11 UNL     1      28.423   2.784  51.362  1.00  0.00     0.217 HD
ENDBRANCH  13  21
BRANCH  12  23
HETATM   23  O3  UNL     1      29.329   0.738  53.173  1.00  0.00    -0.153 OA
HETATM   24  F1  UNL     1      30.084  -0.310  53.490  1.00  0.00    -0.042 F 
ENDBRANCH  12  23
TORSDOF 3
ENDMDL
MODEL 2
REMARK VINA RESULT:      -7.6      2.729      4.779
REMARK  3 active torsions:
REMARK  status: ('A' for Active; 'I' for Inactive)
REMARK    1  A    between atoms: C2_2  and  O1_3 
REMARK    2  A    between atoms: C11_13  and  O3_14 
REMARK    3  A    between atoms: C12_16  and  O4_17 
ROOT
HETATM    1  C1  UNL     1      24.238   6.706  51.202  1.00  0.00     0.076 C 
HETATM    2  C2  UNL     1      23.280   5.790  50.526  1.00  0.00     0.042 C 
HETATM    3  C3  UNL     1      23.706   4.908  49.599  1.00  0.00    -0.049 C 
HETATM    4  C4  UNL     1      25.156   4.979  49.368  1.00  0.00     0.042 C 
HETATM    5  C5  UNL     1      25.882   3.849  50.037  1.00  0.00     0.007 C 
HETATM    6  C6  UNL     1      26.160   2.750  50.768  1.00  0.00     0.077 C 
HETATM    7  C7  UNL     1      25.572   1.731  51.609  1.00  0.00     0.165 C 
HETATM    8  O2  UNL     1      26.811   1.408  51.589  1.00  0.00    -0.292 OA
HETATM    9  C8  UNL     1      24.538   1.022  52.320  1.00  0.00     0.021 A 
HETATM   10  C9  UNL     1      25.116   0.256  53.303  1.00  0.00     0.019 A 
HETATM   11  C10 UNL     1      24.368  -0.533  54.150  1.00  0.00     0.044 A 
HETATM   12  C11 UNL     1      23.013  -0.478  53.918  1.00  0.00     0.145 A 
HETATM   13  C12 UNL     1      22.398   0.271  52.950  1.00  0.00     0.111 A 
HETATM   14  C13 UNL     1      23.175   1.041  52.130  1.00  0.00     0.015 A 
HETATM   15  C14 UNL     1      22.450   1.855  51.097  1.00  0.00     0.210 C 
HETATM   16  O5  UNL     1      23.201   1.913  49.998  1.00  0.00    -0.386 OA
HETATM   17  C15 UNL     1      22.890   2.609  48.902  1.00  0.00     0.172 C 
HETATM   18  C16 UNL     1      22.660   4.067  48.987  1.00  0.00     0.063 C 
ENDROOT
BRANCH   2  19
HETATM   19  O1  UNL     1      21.948   5.895  50.899  1.00  0.00    -0.365 OA
HETATM   20  H4  UNL     1      21.276   6.137  50.177  1.00  0.00     0.217 HD
ENDBRANCH   2  19
BRANCH  13  21
HETATM   21  O4  UNL     1      21.011   0.257  52.796  1.00  0.00    -0.357 OA
HETATM   22  H11 UNL     1      20.547   1.015  52.323  1.00  0.00     0.217 HD
ENDBRANCH  13  21
BRANCH  12  23
HETATM   23  O3  UNL     1      22.208  -1.245  54.732  1.00  0.00    -0.153 OA
HETATM   24  F1  UNL     1      21.682  -2.371  54.261  1.00  0.00    -0.042 F 
ENDBRANCH  12  23
TORSDOF 3
ENDMDL
MODEL 3
REMARK VINA RESULT:      -7.1      3.623      6.022
REMARK  3 active torsions:
REMARK  status: ('A' for Active; 'I' for Inactive)
REMARK    1  A    between atoms: C2_2  and  O1_3 
REMARK    2  A    between atoms: C11_13  and  O3_14 
REMARK    3  A    between atoms: C12_16  and  O4_17 
ROOT
HETATM    1  C1  UNL     1      23.618   5.337  52.439  1.00  0.00     0.076 C 
HETATM    2  C2  UNL     1      22.852   4.760  51.302  1.00  0.00     0.042 C 
HETATM    3  C3  UNL     1      23.378   3.775  50.544  1.00  0.00    -0.049 C 
HETATM    4  C4  UNL     1      24.727   3.383  50.975  1.00  0.00     0.042 C 
HETATM    5  C5  UNL     1      24.713   2.091  51.739  1.00  0.00     0.007 C 
HETATM    6  C6  UNL     1      24.301   0.971  52.367  1.00  0.00     0.077 C 
HETATM    7  C7  UNL     1      23.132   0.201  52.729  1.00  0.00     0.165 C 
HETATM    8  O2  UNL     1      24.094  -0.497  53.206  1.00  0.00    -0.292 OA
HETATM    9  C8  UNL     1      21.733  -0.136  52.823  1.00  0.00     0.021 A 
HETATM   10  C9  UNL     1      21.558  -1.031  53.849  1.00  0.00     0.019 A 
HETATM   11  C10 UNL     1      20.316  -1.532  54.178  1.00  0.00     0.044 A 
HETATM   12  C11 UNL     1      19.292  -1.056  53.391  1.00  0.00     0.145 A 
HETATM   13  C12 UNL     1      19.426  -0.165  52.359  1.00  0.00     0.111 A 
HETATM   14  C13 UNL     1      20.674   0.309  52.065  1.00  0.00     0.015 A 
HETATM   15  C14 UNL     1      20.763   1.296  50.937  1.00  0.00     0.210 C 
HETATM   16  O5  UNL     1      21.910   1.098  50.289  1.00  0.00    -0.386 OA
HETATM   17  C15 UNL     1      22.343   1.842  49.269  1.00  0.00     0.172 C 
HETATM   18  C16 UNL     1      22.529   3.299  49.435  1.00  0.00     0.063 C 
ENDROOT
BRANCH   2  19
HETATM   19  O1  UNL     1      21.588   5.285  51.071  1.00  0.00    -0.365 OA
HETATM   20  H4  UNL     1      20.851   4.636  50.812  1.00  0.00     0.217 HD
ENDBRANCH   2  19
BRANCH  13  21
HETATM   21  O4  UNL     1      18.320   0.257  51.620  1.00  0.00    -0.357 OA
HETATM   22  H11 UNL     1      18.078   1.233  51.585  1.00  0.00     0.217 HD
ENDBRANCH  13  21
BRANCH  12  23
HETATM   23  O3  UNL     1      18.024  -1.518  53.669  1.00  0.00    -0.153 OA
HETATM   24  F1  UNL     1      17.864  -2.755  54.130  1.00  0.00    -0.042 F 
ENDBRANCH  12  23
TORSDOF 3
ENDMDL
MODEL 4
REMARK VINA RESULT:      -7.1      3.680      5.041
REMARK  3 active torsions:
REMARK  status: ('A' for Active; 'I' for Inactive)
REMARK    1  A    between atoms: C2_2  and  O1_3 
REMARK    2  A    between atoms: C11_13  and  O3_14 
REMARK    3  A    between atoms: C12_16  and  O4_17 
ROOT
HETATM    1  C1  UNL     1      21.025   1.110  49.950  1.00  0.00     0.076 C 
HETATM    2  C2  UNL     1      21.032   2.456  50.584  1.00  0.00     0.042 C 
HETATM    3  C3  UNL     1      21.712   2.676  51.729  1.00  0.00    -0.049 C 
HETATM    4  C4  UNL     1      22.399   1.475  52.224  1.00  0.00     0.042 C 
HETATM    5  C5  UNL     1      23.871   1.517  51.939  1.00  0.00     0.007 C 
HETATM    6  C6  UNL     1      25.087   1.901  51.500  1.00  0.00     0.077 C 
HETATM    7  C7  UNL     1      25.790   2.932  50.770  1.00  0.00     0.165 C 
HETATM    8  O2  UNL     1      26.727   2.122  51.095  1.00  0.00    -0.292 OA
HETATM    9  C8  UNL     1      25.966   4.148  50.016  1.00  0.00     0.021 A 
HETATM   10  C9  UNL     1      27.155   4.081  49.331  1.00  0.00     0.019 A 
HETATM   11  C10 UNL     1      27.589   5.106  48.518  1.00  0.00     0.044 A 
HETATM   12  C11 UNL     1      26.731   6.181  48.462  1.00  0.00     0.145 A 
HETATM   13  C12 UNL     1      25.539   6.287  49.129  1.00  0.00     0.111 A 
HETATM   14  C13 UNL     1      25.144   5.248  49.925  1.00  0.00     0.015 A 
HETATM   15  C14 UNL     1      23.822   5.408  50.620  1.00  0.00     0.210 C 
HETATM   16  O5  UNL     1      23.896   4.823  51.815  1.00  0.00    -0.386 OA
HETATM   17  C15 UNL     1      22.881   4.720  52.674  1.00  0.00     0.172 C 
HETATM   18  C16 UNL     1      21.628   4.046  52.270  1.00  0.00     0.063 C 
ENDROOT
BRANCH   2  19
HETATM   19  O1  UNL     1      20.311   3.452  49.942  1.00  0.00    -0.365 OA
HETATM   20  H4  UNL     1      19.448   3.183  49.479  1.00  0.00     0.217 HD
ENDBRANCH   2  19
BRANCH  13  21
HETATM   21  O4  UNL     1      24.740   7.423  49.005  1.00  0.00    -0.357 OA
HETATM   22  H11 UNL     1      24.118   7.520  48.220  1.00  0.00     0.217 HD
ENDBRANCH  13  21
BRANCH  12  23
HETATM   23  O3  UNL     1      27.108   7.240  47.666  1.00  0.00    -0.153 OA
HETATM   24  F1  UNL     1      28.304   7.231  47.085  1.00  0.00    -0.042 F 
ENDBRANCH  12  23
TORSDOF 3
ENDMDL
MODEL 5
REMARK VINA RESULT:      -6.8      4.585      7.059
REMARK  3 active torsions:
REMARK  status: ('A' for Active; 'I' for Inactive)
REMARK    1  A    between atoms: C2_2  and  O1_3 
REMARK    2  A    between atoms: C11_13  and  O3_14 
REMARK    3  A    between atoms: C12_16  and  O4_17 
ROOT
HETATM    1  C1  UNL     1      15.115   3.813  52.854  1.00  0.00     0.076 C 
HETATM    2  C2  UNL     1      15.080   2.391  52.419  1.00  0.00     0.042 C 
HETATM    3  C3  UNL     1      15.606   2.019  51.233  1.00  0.00    -0.049 C 
HETATM    4  C4  UNL     1      16.179   3.146  50.484  1.00  0.00     0.042 C 
HETATM    5  C5  UNL     1      17.677   3.164  50.565  1.00  0.00     0.007 C 
HETATM    6  C6  UNL     1      18.953   2.863  50.879  1.00  0.00     0.077 C 
HETATM    7  C7  UNL     1      19.782   1.956  51.642  1.00  0.00     0.165 C 
HETATM    8  O2  UNL     1      20.639   2.723  51.080  1.00  0.00    -0.292 OA
HETATM    9  C8  UNL     1      20.098   0.861  52.526  1.00  0.00     0.021 A 
HETATM   10  C9  UNL     1      21.366   1.041  53.023  1.00  0.00     0.019 A 
HETATM   11  C10 UNL     1      21.940   0.148  53.902  1.00  0.00     0.044 A 
HETATM   12  C11 UNL     1      21.133  -0.919  54.226  1.00  0.00     0.145 A 
HETATM   13  C12 UNL     1      19.866  -1.134  53.752  1.00  0.00     0.111 A 
HETATM   14  C13 UNL     1      19.332  -0.225  52.883  1.00  0.00     0.015 A 
HETATM   15  C14 UNL     1      17.934  -0.499  52.407  1.00  0.00     0.210 C 
HETATM   16  O5  UNL     1      17.826  -0.089  51.144  1.00  0.00    -0.386 OA
HETATM   17  C15 UNL     1      16.701  -0.123  50.428  1.00  0.00     0.172 C 
HETATM   18  C16 UNL     1      15.493   0.585  50.905  1.00  0.00     0.063 C 
ENDROOT
BRANCH   2  19
HETATM   19  O1  UNL     1      14.486   1.487  53.288  1.00  0.00    -0.365 OA
HETATM   20  H4  UNL     1      13.821   0.827  52.896  1.00  0.00     0.217 HD
ENDBRANCH   2  19
BRANCH  13  21
HETATM   21  O4  UNL     1      19.128  -2.252  54.143  1.00  0.00    -0.357 OA
HETATM   22  H11 UNL     1      18.211  -2.411  53.760  1.00  0.00     0.217 HD
ENDBRANCH  13  21
BRANCH  12  23
HETATM   23  O3  UNL     1      21.649  -1.849  55.102  1.00  0.00    -0.153 OA
HETATM   24  F1  UNL     1      22.856  -1.658  55.625  1.00  0.00    -0.042 F 
ENDBRANCH  12  23
TORSDOF 3
ENDMDL
MODEL 6
REMARK VINA RESULT:      -6.8      4.040      6.071
REMARK  3 active torsions:
REMARK  status: ('A' for Active; 'I' for Inactive)
REMARK    1  A    between atoms: C2_2  and  O1_3 
REMARK    2  A    between atoms: C11_13  and  O3_14 
REMARK    3  A    between atoms: C12_16  and  O4_17 
ROOT
HETATM    1  C1  UNL     1      27.041   7.365  47.588  1.00  0.00     0.076 C 
HETATM    2  C2  UNL     1      26.385   7.769  48.861  1.00  0.00     0.042 C 
HETATM    3  C3  UNL     1      25.067   8.057  48.897  1.00  0.00    -0.049 C 
HETATM    4  C4  UNL     1      24.418   7.925  47.586  1.00  0.00     0.042 C 
HETATM    5  C5  UNL     1      23.618   6.660  47.486  1.00  0.00     0.007 C 
HETATM    6  C6  UNL     1      23.054   5.467  47.766  1.00  0.00     0.077 C 
HETATM    7  C7  UNL     1      22.955   4.433  48.772  1.00  0.00     0.165 C 
HETATM    8  O2  UNL     1      22.202   3.994  47.835  1.00  0.00    -0.292 OA
HETATM    9  C8  UNL     1      23.203   3.762  50.024  1.00  0.00     0.021 A 
HETATM   10  C9  UNL     1      22.899   2.429  49.884  1.00  0.00     0.019 A 
HETATM   11  C10 UNL     1      23.042   1.535  50.922  1.00  0.00     0.044 A 
HETATM   12  C11 UNL     1      23.510   2.096  52.088  1.00  0.00     0.145 A 
HETATM   13  C12 UNL     1      23.822   3.418  52.269  1.00  0.00     0.111 A 
HETATM   14  C13 UNL     1      23.668   4.274  51.214  1.00  0.00     0.015 A 
HETATM   15  C14 UNL     1      24.041   5.708  51.460  1.00  0.00     0.210 C 
HETATM   16  O5  UNL     1      23.214   6.487  50.764  1.00  0.00    -0.386 OA
HETATM   17  C15 UNL     1      23.299   7.817  50.700  1.00  0.00     0.172 C 
HETATM   18  C16 UNL     1      24.537   8.462  50.214  1.00  0.00     0.063 C 
ENDROOT
BRANCH   2  19
HETATM   19  O1  UNL     1      27.193   7.830  49.987  1.00  0.00    -0.365 OA
HETATM   20  H4  UNL     1      28.148   8.153  49.864  1.00  0.00     0.217 HD
ENDBRANCH   2  19
BRANCH  13  21
HETATM   21  O4  UNL     1      24.290   3.889  53.496  1.00  0.00    -0.357 OA
HETATM   22  H11 UNL     1      24.076   3.391  54.344  1.00  0.00     0.217 HD
ENDBRANCH  13  21
BRANCH  12  23
HETATM   23  O3  UNL     1      23.675   1.253  53.165  1.00  0.00    -0.153 OA
HETATM   24  F1  UNL     1      22.607   0.808  53.820  1.00  0.00    -0.042 F 
ENDBRANCH  12  23
TORSDOF 3
ENDMDL
MODEL 7
REMARK VINA RESULT:      -6.8      9.071     10.963
REMARK  3 active torsions:
REMARK  status: ('A' for Active; 'I' for Inactive)
REMARK    1  A    between atoms: C2_2  and  O1_3 
REMARK    2  A    between atoms: C11_13  and  O3_14 
REMARK    3  A    between atoms: C12_16  and  O4_17 
ROOT
HETATM    1  C1  UNL     1      30.925  11.567  48.593  1.00  0.00     0.076 C 
HETATM    2  C2  UNL     1      30.212  10.342  49.045  1.00  0.00     0.042 C 
HETATM    3  C3  UNL     1      29.328   9.719  48.237  1.00  0.00    -0.049 C 
HETATM    4  C4  UNL     1      29.182  10.383  46.934  1.00  0.00     0.042 C 
HETATM    5  C5  UNL     1      29.915   9.649  45.850  1.00  0.00     0.007 C 
HETATM    6  C6  UNL     1      30.682   8.757  45.190  1.00  0.00     0.077 C 
HETATM    7  C7  UNL     1      31.507   7.580  45.357  1.00  0.00     0.165 C 
HETATM    8  O2  UNL     1      31.567   7.796  44.097  1.00  0.00    -0.292 OA
HETATM    9  C8  UNL     1      32.169   6.504  46.050  1.00  0.00     0.021 A 
HETATM   10  C9  UNL     1      33.199   6.037  45.269  1.00  0.00     0.019 A 
HETATM   11  C10 UNL     1      34.016   5.005  45.678  1.00  0.00     0.044 A 
HETATM   12  C11 UNL     1      33.703   4.498  46.918  1.00  0.00     0.145 A 
HETATM   13  C12 UNL     1      32.686   4.933  47.726  1.00  0.00     0.111 A 
HETATM   14  C13 UNL     1      31.898   5.960  47.285  1.00  0.00     0.015 A 
HETATM   15  C14 UNL     1      30.809   6.411  48.216  1.00  0.00     0.210 C 
HETATM   16  O5  UNL     1      29.755   6.780  47.489  1.00  0.00    -0.386 OA
HETATM   17  C15 UNL     1      28.630   7.293  47.990  1.00  0.00     0.172 C 
HETATM   18  C16 UNL     1      28.672   8.526  48.805  1.00  0.00     0.063 C 
ENDROOT
BRANCH   2  19
HETATM   19  O1  UNL     1      30.503   9.886  50.323  1.00  0.00    -0.365 OA
HETATM   20  H4  UNL     1      29.736   9.513  50.875  1.00  0.00     0.217 HD
ENDBRANCH   2  19
BRANCH  13  21
HETATM   21  O4  UNL     1      32.451   4.350  48.971  1.00  0.00    -0.357 OA
HETATM   22  H11 UNL     1      33.045   3.608  49.302  1.00  0.00     0.217 HD
ENDBRANCH  13  21
BRANCH  12  23
HETATM   23  O3  UNL     1      34.483   3.463  47.385  1.00  0.00    -0.153 OA
HETATM   24  F1  UNL     1      35.462   2.984  46.622  1.00  0.00    -0.042 F 
ENDBRANCH  12  23
TORSDOF 3
ENDMDL
MODEL 8
REMARK VINA RESULT:      -6.6      8.280     10.847
REMARK  3 active torsions:
REMARK  status: ('A' for Active; 'I' for Inactive)
REMARK    1  A    between atoms: C2_2  and  O1_3 
REMARK    2  A    between atoms: C11_13  and  O3_14 
REMARK    3  A    between atoms: C12_16  and  O4_17 
ROOT
HETATM    1  C1  UNL     1      33.095   4.911  44.030  1.00  0.00     0.076 C 
HETATM    2  C2  UNL     1      33.082   4.686  45.500  1.00  0.00     0.042 C 
HETATM    3  C3  UNL     1      33.371   5.690  46.355  1.00  0.00    -0.049 C 
HETATM    4  C4  UNL     1      33.681   6.951  45.668  1.00  0.00     0.042 C 
HETATM    5  C5  UNL     1      32.532   7.914  45.728  1.00  0.00     0.007 C 
HETATM    6  C6  UNL     1      31.325   8.466  45.969  1.00  0.00     0.077 C 
HETATM    7  C7  UNL     1      30.025   8.215  46.550  1.00  0.00     0.165 C 
HETATM    8  O2  UNL     1      29.926   9.423  46.137  1.00  0.00    -0.292 OA
HETATM    9  C8  UNL     1      28.982   7.475  47.216  1.00  0.00     0.021 A 
HETATM   10  C9  UNL     1      27.772   8.066  46.944  1.00  0.00     0.019 A 
HETATM   11  C10 UNL     1      26.588   7.571  47.446  1.00  0.00     0.044 A 
HETATM   12  C11 UNL     1      26.735   6.450  48.232  1.00  0.00     0.145 A 
HETATM   13  C12 UNL     1      27.921   5.833  48.527  1.00  0.00     0.111 A 
HETATM   14  C13 UNL     1      29.074   6.353  48.009  1.00  0.00     0.015 A 
HETATM   15  C14 UNL     1      30.344   5.629  48.349  1.00  0.00     0.210 C 
HETATM   16  O5  UNL     1      31.323   6.524  48.475  1.00  0.00    -0.386 OA
HETATM   17  C15 UNL     1      32.602   6.222  48.713  1.00  0.00     0.172 C 
HETATM   18  C16 UNL     1      33.342   5.338  47.788  1.00  0.00     0.063 C 
ENDROOT
BRANCH   2  19
HETATM   19  O1  UNL     1      32.761   3.407  45.933  1.00  0.00    -0.365 OA
HETATM   20  H4  UNL     1      31.890   3.289  46.443  1.00  0.00     0.217 HD
ENDBRANCH   2  19
BRANCH  13  21
HETATM   21  O4  UNL     1      27.964   4.697  49.337  1.00  0.00    -0.357 OA
HETATM   22  H11 UNL     1      28.208   4.779  50.310  1.00  0.00     0.217 HD
ENDBRANCH  13  21
BRANCH  12  23
HETATM   23  O3  UNL     1      25.587   5.906  48.766  1.00  0.00    -0.153 OA
HETATM   24  F1  UNL     1      24.413   6.165  48.198  1.00  0.00    -0.042 F 
ENDBRANCH  12  23
TORSDOF 3
ENDMDL
MODEL 9
REMARK VINA RESULT:      -6.4      5.062      6.315
REMARK  3 active torsions:
REMARK  status: ('A' for Active; 'I' for Inactive)
REMARK    1  A    between atoms: C2_2  and  O1_3 
REMARK    2  A    between atoms: C11_13  and  O3_14 
REMARK    3  A    between atoms: C12_16  and  O4_17 
ROOT
HETATM    1  C1  UNL     1      21.754   3.688  47.089  1.00  0.00     0.076 C 
HETATM    2  C2  UNL     1      21.867   4.931  47.899  1.00  0.00     0.042 C 
HETATM    3  C3  UNL     1      22.240   4.878  49.195  1.00  0.00    -0.049 C 
HETATM    4  C4  UNL     1      22.499   3.508  49.659  1.00  0.00     0.042 C 
HETATM    5  C5  UNL     1      23.969   3.221  49.754  1.00  0.00     0.007 C 
HETATM    6  C6  UNL     1      25.311   3.339  49.689  1.00  0.00     0.077 C 
HETATM    7  C7  UNL     1      26.385   4.233  49.315  1.00  0.00     0.165 C 
HETATM    8  O2  UNL     1      27.007   3.196  49.736  1.00  0.00    -0.292 OA
HETATM    9  C8  UNL     1      27.009   5.434  48.818  1.00  0.00     0.021 A 
HETATM   10  C9  UNL     1      28.299   5.145  48.444  1.00  0.00     0.019 A 
HETATM   11  C10 UNL     1      29.141   6.104  47.925  1.00  0.00     0.044 A 
HETATM   12  C11 UNL     1      28.574   7.354  47.822  1.00  0.00     0.145 A 
HETATM   13  C12 UNL     1      27.295   7.682  48.184  1.00  0.00     0.111 A 
HETATM   14  C13 UNL     1      26.490   6.702  48.694  1.00  0.00     0.015 A 
HETATM   15  C14 UNL     1      25.092   7.112  49.059  1.00  0.00     0.210 C 
HETATM   16  O5  UNL     1      24.714   6.421  50.134  1.00  0.00    -0.386 OA
HETATM   17  C15 UNL     1      23.504   6.489  50.693  1.00  0.00     0.172 C 
HETATM   18  C16 UNL     1      22.298   6.175  49.898  1.00  0.00     0.063 C 
ENDROOT
BRANCH   2  19
HETATM   19  O1  UNL     1      21.573   6.124  47.256  1.00  0.00    -0.365 OA
HETATM   20  H4  UNL     1      21.310   6.917  47.835  1.00  0.00     0.217 HD
ENDBRANCH   2  19
BRANCH  13  21
HETATM   21  O4  UNL     1      26.814   8.984  48.039  1.00  0.00    -0.357 OA
HETATM   22  H11 UNL     1      26.144   9.351  48.694  1.00  0.00     0.217 HD
ENDBRANCH  13  21
BRANCH  12  23
HETATM   23  O3  UNL     1      29.366   8.358  47.309  1.00  0.00    -0.153 OA
HETATM   24  F1  UNL     1      30.133   9.071  48.129  1.00  0.00    -0.042 F 
ENDBRANCH  12  23
TORSDOF 3
ENDMDL
