MODEL 1
REMARK VINA RESULT:      -9.6      0.000      0.000
REMARK  3 active torsions:
REMARK  status: ('A' for Active; 'I' for Inactive)
REMARK    1  A    between atoms: C6_7  and  N1_8 
REMARK       I    between atoms: N1_8  and  C7_9 
REMARK       I    between atoms: C7_9  and  N2_11 
REMARK    2  A    between atoms: N2_11  and  C8_12 
REMARK    3  A    between atoms: C17_22  and  N4_23 
ROOT
HETATM    1  C8  UNL     1      24.241   1.174  52.206  1.00  0.00     0.113 C 
HETATM    2  C9  UNL     1      24.518   2.302  51.333  1.00  0.00    -0.005 C 
HETATM    3  C10 UNL     1      25.792   2.237  50.887  1.00  0.00    -0.028 C 
HETATM    4  C11 UNL     1      26.836   1.212  51.179  1.00  0.00     0.040 C 
HETATM    5  C12 UNL     1      26.635   0.453  52.422  1.00  0.00     0.002 A 
HETATM    6  C13 UNL     1      26.553  -1.064  51.990  1.00  0.00     0.007 A 
HETATM    7  C14 UNL     1      27.634  -1.508  52.758  1.00  0.00     0.003 A 
HETATM    8  N3  UNL     1      28.815  -0.724  53.859  1.00  0.00     0.000 N 
HETATM    9  C15 UNL     1      28.173  -1.123  53.266  1.00  0.00     0.029 A 
HETATM   10  C16 UNL     1      27.866   0.337  53.329  1.00  0.00     0.096 A 
HETATM   11  C17 UNL     1      28.394   1.428  53.973  1.00  0.00     0.074 A 
HETATM   12  N5  UNL     1      29.173   0.435  54.384  1.00  0.00    -0.183 NA
HETATM   13  C18 UNL     1      25.374   0.760  53.095  1.00  0.00     0.020 C 
HETATM   14  C19 UNL     1      25.453   1.772  54.193  1.00  0.00     0.013 C 
ENDROOT
BRANCH   1  15
HETATM   15  N2  UNL     1      23.007   1.408  52.908  1.00  0.00    -0.335 N 
HETATM   16  C7  UNL     1      21.837   0.660  52.556  1.00  0.00     0.321 C 
HETATM   17  N1  UNL     1      20.566   0.783  53.150  1.00  0.00    -0.306 N 
HETATM   18  O1  UNL     1      21.953  -0.180  51.633  1.00  0.00    -0.247 OA
HETATM   19  H6  UNL     1      20.597   1.518  53.904  1.00  0.00     0.171 HD
HETATM   20  H7  UNL     1      22.901   2.120  53.690  1.00  0.00     0.165 HD
BRANCH  17  21
HETATM   21  C6  UNL     1      19.377   0.097  52.885  1.00  0.00     0.075 A 
HETATM   22  C5  UNL     1      18.461   0.681  52.015  1.00  0.00     0.143 A 
HETATM   23  C4  UNL     1      17.269   0.098  51.692  1.00  0.00     0.045 A 
HETATM   24  F1  UNL     1      18.734   1.885  51.449  1.00  0.00    -0.204 F 
HETATM   25  C3  UNL     1      16.923  -1.126  52.230  1.00  0.00     0.010 A 
HETATM   26  C2  UNL     1      17.787  -1.744  53.088  1.00  0.00    -0.060 A 
HETATM   27  C1  UNL     1      17.454  -3.063  53.692  1.00  0.00     0.048 C 
HETATM   28  C20 UNL     1      18.971  -1.110  53.378  1.00  0.00     0.039 A 
ENDBRANCH  17  21
ENDBRANCH   1  15
BRANCH  11  29
HETATM   29  N4  UNL     1      28.249   2.800  54.123  1.00  0.00    -0.294 NA
HETATM   30  H16 UNL     1      28.560   2.966  55.075  1.00  0.00     0.125 HD
HETATM   31  H17 UNL     1      28.525   3.197  55.070  1.00  0.00     0.125 HD
ENDBRANCH  11  29
TORSDOF 3
ENDMDL
MODEL 2
REMARK VINA RESULT:      -9.5      2.856      8.370
REMARK  3 active torsions:
REMARK  status: ('A' for Active; 'I' for Inactive)
REMARK    1  A    between atoms: C6_7  and  N1_8 
REMARK       I    between atoms: N1_8  and  C7_9 
REMARK       I    between atoms: C7_9  and  N2_11 
REMARK    2  A    between atoms: N2_11  and  C8_12 
REMARK    3  A    between atoms: C17_22  and  N4_23 
ROOT
HETATM    1  C8  UNL     1      22.679   2.269  51.928  1.00  0.00     0.113 C 
HETATM    2  C9  UNL     1      22.325   3.666  51.743  1.00  0.00    -0.005 C 
HETATM    3  C10 UNL     1      21.009   3.845  51.990  1.00  0.00    -0.028 C 
HETATM    4  C11 UNL     1      19.986   2.837  52.397  1.00  0.00     0.040 C 
HETATM    5  C12 UNL     1      20.312   1.444  52.056  1.00  0.00     0.002 A 
HETATM    6  C13 UNL     1      20.320   0.657  53.425  1.00  0.00     0.007 A 
HETATM    7  C14 UNL     1      19.324  -0.264  53.087  1.00  0.00     0.003 A 
HETATM    8  N3  UNL     1      18.286  -0.538  51.648  1.00  0.00     0.000 N 
HETATM    9  C15 UNL     1      18.851  -0.373  52.407  1.00  0.00     0.029 A 
HETATM   10  C16 UNL     1      19.187   0.654  51.376  1.00  0.00     0.096 A 
HETATM   11  C17 UNL     1      18.753   0.959  50.111  1.00  0.00     0.074 A 
HETATM   12  N5  UNL     1      18.008  -0.090  50.436  1.00  0.00    -0.183 NA
HETATM   13  C18 UNL     1      21.644   1.283  51.477  1.00  0.00     0.020 C 
HETATM   14  C19 UNL     1      21.705   1.247  49.983  1.00  0.00     0.013 C 
ENDROOT
BRANCH   1  15
HETATM   15  N2  UNL     1      23.987   2.033  51.377  1.00  0.00    -0.335 N 
HETATM   16  C7  UNL     1      24.997   1.418  52.186  1.00  0.00     0.321 C 
HETATM   17  N1  UNL     1      26.316   1.128  51.785  1.00  0.00    -0.306 N 
HETATM   18  O1  UNL     1      24.680   1.110  53.358  1.00  0.00    -0.247 OA
HETATM   19  H6  UNL     1      26.458   1.436  50.787  1.00  0.00     0.171 HD
HETATM   20  H7  UNL     1      24.263   2.293  50.384  1.00  0.00     0.165 HD
BRANCH  17  21
HETATM   21  C6  UNL     1      27.361   0.526  52.491  1.00  0.00     0.075 A 
HETATM   22  C5  UNL     1      28.225   1.345  53.211  1.00  0.00     0.143 A 
HETATM   23  C4  UNL     1      29.280   0.860  53.931  1.00  0.00     0.045 A 
HETATM   24  F1  UNL     1      28.041   2.691  53.215  1.00  0.00    -0.204 F 
HETATM   25  C3  UNL     1      29.530  -0.498  53.973  1.00  0.00     0.010 A 
HETATM   26  C2  UNL     1      28.711  -1.346  53.286  1.00  0.00    -0.060 A 
HETATM   27  C1  UNL     1      28.944  -2.816  53.303  1.00  0.00     0.048 C 
HETATM   28  C20 UNL     1      27.666  -0.802  52.578  1.00  0.00     0.039 A 
ENDBRANCH  17  21
ENDBRANCH   1  15
BRANCH  11  29
HETATM   29  N4  UNL     1      18.936   1.852  49.064  1.00  0.00    -0.294 NA
HETATM   30  H16 UNL     1      19.419   1.297  48.365  1.00  0.00     0.125 HD
HETATM   31  H17 UNL     1      19.435   1.468  48.207  1.00  0.00     0.125 HD
ENDBRANCH  11  29
TORSDOF 3
ENDMDL
MODEL 3
REMARK VINA RESULT:      -9.0      3.875      5.365
REMARK  3 active torsions:
REMARK  status: ('A' for Active; 'I' for Inactive)
REMARK    1  A    between atoms: C6_7  and  N1_8 
REMARK       I    between atoms: N1_8  and  C7_9 
REMARK       I    between atoms: C7_9  and  N2_11 
REMARK    2  A    between atoms: N2_11  and  C8_12 
REMARK    3  A    between atoms: C17_22  and  N4_23 
ROOT
HETATM    1  C8  UNL     1      24.944   0.804  52.894  1.00  0.00     0.113 C 
HETATM    2  C9  UNL     1      24.219  -0.112  53.758  1.00  0.00    -0.005 C 
HETATM    3  C10 UNL     1      25.025  -0.536  54.757  1.00  0.00    -0.028 C 
HETATM    4  C11 UNL     1      26.449  -0.183  55.027  1.00  0.00     0.040 C 
HETATM    5  C12 UNL     1      27.204   0.301  53.862  1.00  0.00     0.002 A 
HETATM    6  C13 UNL     1      27.715   1.744  54.251  1.00  0.00     0.007 A 
HETATM    7  C14 UNL     1      29.079   1.476  54.102  1.00  0.00     0.003 A 
HETATM    8  N3  UNL     1      30.048   0.028  53.669  1.00  0.00     0.000 N 
HETATM    9  C15 UNL     1      29.510   0.790  53.898  1.00  0.00     0.029 A 
HETATM   10  C16 UNL     1      28.577  -0.349  53.652  1.00  0.00     0.096 A 
HETATM   11  C17 UNL     1      28.705  -1.670  53.302  1.00  0.00     0.074 A 
HETATM   12  N5  UNL     1      29.963  -1.249  53.341  1.00  0.00    -0.183 NA
HETATM   13  C18 UNL     1      26.384   0.461  52.663  1.00  0.00     0.020 C 
HETATM   14  C19 UNL     1      26.406  -0.686  51.702  1.00  0.00     0.013 C 
ENDROOT
BRANCH   1  15
HETATM   15  N2  UNL     1      24.193   1.009  51.683  1.00  0.00    -0.335 N 
HETATM   16  C7  UNL     1      23.860   2.341  51.273  1.00  0.00     0.321 C 
HETATM   17  N1  UNL     1      23.132   2.693  50.120  1.00  0.00    -0.306 N 
HETATM   18  O1  UNL     1      24.249   3.279  52.006  1.00  0.00    -0.247 OA
HETATM   19  H6  UNL     1      22.860   1.823  49.593  1.00  0.00     0.171 HD
HETATM   20  H7  UNL     1      23.858   0.219  51.058  1.00  0.00     0.165 HD
BRANCH  17  21
HETATM   21  C6  UNL     1      22.768   3.953  49.633  1.00  0.00     0.075 A 
HETATM   22  C5  UNL     1      23.739   4.714  48.989  1.00  0.00     0.143 A 
HETATM   23  C4  UNL     1      23.491   5.958  48.481  1.00  0.00     0.045 A 
HETATM   24  F1  UNL     1      24.999   4.227  48.845  1.00  0.00    -0.204 F 
HETATM   25  C3  UNL     1      22.232   6.517  48.591  1.00  0.00     0.010 A 
HETATM   26  C2  UNL     1      21.243   5.812  49.213  1.00  0.00    -0.060 A 
HETATM   27  C1  UNL     1      19.873   6.377  49.354  1.00  0.00     0.048 C 
HETATM   28  C20 UNL     1      21.550   4.566  49.705  1.00  0.00     0.039 A 
ENDBRANCH  17  21
ENDBRANCH   1  15
BRANCH  11  29
HETATM   29  N4  UNL     1      27.974  -2.825  53.058  1.00  0.00    -0.294 NA
HETATM   30  H16 UNL     1      27.030  -2.480  52.919  1.00  0.00     0.125 HD
HETATM   31  H17 UNL     1      26.935  -2.689  52.882  1.00  0.00     0.125 HD
ENDBRANCH  11  29
TORSDOF 3
ENDMDL
MODEL 4
REMARK VINA RESULT:      -8.8      4.829      8.664
REMARK  3 active torsions:
REMARK  status: ('A' for Active; 'I' for Inactive)
REMARK    1  A    between atoms: C6_7  and  N1_8 
REMARK       I    between atoms: N1_8  and  C7_9 
REMARK       I    between atoms: C7_9  and  N2_11 
REMARK    2  A    between atoms: N2_11  and  C8_12 
REMARK    3  A    between atoms: C17_22  and  N4_23 
ROOT
HETATM    1  C8  UNL     1      24.504   3.760  50.395  1.00  0.00     0.113 C 
HETATM    2  C9  UNL     1      23.417   3.012  49.787  1.00  0.00    -0.005 C 
HETATM    3  C10 UNL     1      22.904   3.707  48.748  1.00  0.00    -0.028 C 
HETATM    4  C11 UNL     1      23.312   5.042  48.220  1.00  0.00     0.040 C 
HETATM    5  C12 UNL     1      24.021   5.902  49.179  1.00  0.00     0.002 A 
HETATM    6  C13 UNL     1      25.421   6.218  48.520  1.00  0.00     0.007 A 
HETATM    7  C14 UNL     1      25.278   7.608  48.498  1.00  0.00     0.003 A 
HETATM    8  N3  UNL     1      23.986   8.759  48.979  1.00  0.00     0.000 N 
HETATM    9  C15 UNL     1      24.663   8.126  48.729  1.00  0.00     0.029 A 
HETATM   10  C16 UNL     1      23.511   7.345  49.270  1.00  0.00     0.096 A 
HETATM   11  C17 UNL     1      22.272   7.643  49.779  1.00  0.00     0.074 A 
HETATM   12  N5  UNL     1      22.770   8.839  49.493  1.00  0.00    -0.183 NA
HETATM   13  C18 UNL     1      24.303   5.244  50.454  1.00  0.00     0.020 C 
HETATM   14  C19 UNL     1      23.321   5.505  51.551  1.00  0.00     0.013 C 
ENDROOT
BRANCH   1  15
HETATM   15  N2  UNL     1      24.837   3.168  51.664  1.00  0.00    -0.335 N 
HETATM   16  C7  UNL     1      25.994   2.331  51.774  1.00  0.00     0.321 C 
HETATM   17  N1  UNL     1      26.440   1.685  52.944  1.00  0.00    -0.306 N 
HETATM   18  O1  UNL     1      26.673   2.156  50.736  1.00  0.00    -0.247 OA
HETATM   19  H6  UNL     1      25.788   1.907  53.741  1.00  0.00     0.171 HD
HETATM   20  H7  UNL     1      24.265   3.311  52.548  1.00  0.00     0.165 HD
BRANCH  17  21
HETATM   21  C6  UNL     1      27.553   0.865  53.151  1.00  0.00     0.075 A 
HETATM   22  C5  UNL     1      28.751   1.464  53.525  1.00  0.00     0.143 A 
HETATM   23  C4  UNL     1      29.898   0.756  53.749  1.00  0.00     0.045 A 
HETATM   24  F1  UNL     1      28.817   2.813  53.681  1.00  0.00    -0.204 F 
HETATM   25  C3  UNL     1      29.907  -0.618  53.609  1.00  0.00     0.010 A 
HETATM   26  C2  UNL     1      28.757  -1.257  53.245  1.00  0.00    -0.060 A 
HETATM   27  C1  UNL     1      28.721  -2.736  53.082  1.00  0.00     0.048 C 
HETATM   28  C20 UNL     1      27.634  -0.493  53.033  1.00  0.00     0.039 A 
ENDBRANCH  17  21
ENDBRANCH   1  15
BRANCH  11  29
HETATM   29  N4  UNL     1      21.118   7.063  50.289  1.00  0.00    -0.294 NA
HETATM   30  H16 UNL     1      21.009   7.515  51.192  1.00  0.00     0.125 HD
HETATM   31  H17 UNL     1      20.814   7.401  51.250  1.00  0.00     0.125 HD
ENDBRANCH  11  29
TORSDOF 3
ENDMDL
MODEL 5
REMARK VINA RESULT:      -8.8      8.095     10.335
REMARK  3 active torsions:
REMARK  status: ('A' for Active; 'I' for Inactive)
REMARK    1  A    between atoms: C6_7  and  N1_8 
REMARK       I    between atoms: N1_8  and  C7_9 
REMARK       I    between atoms: C7_9  and  N2_11 
REMARK    2  A    between atoms: N2_11  and  C8_12 
REMARK    3  A    between atoms: C17_22  and  N4_23 
ROOT
HETATM    1  C8  UNL     1      31.523   7.420  48.000  1.00  0.00     0.113 C 
HETATM    2  C9  UNL     1      32.442   8.518  48.247  1.00  0.00    -0.005 C 
HETATM    3  C10 UNL     1      33.617   8.283  47.623  1.00  0.00    -0.028 C 
HETATM    4  C11 UNL     1      34.017   7.116  46.784  1.00  0.00     0.040 C 
HETATM    5  C12 UNL     1      33.250   5.884  47.023  1.00  0.00     0.002 A 
HETATM    6  C13 UNL     1      32.597   5.508  45.636  1.00  0.00     0.007 A 
HETATM    7  C14 UNL     1      33.187   4.246  45.517  1.00  0.00     0.003 A 
HETATM    8  N3  UNL     1      34.339   3.287  46.504  1.00  0.00     0.000 N 
HETATM    9  C15 UNL     1      33.724   3.817  45.992  1.00  0.00     0.029 A 
HETATM   10  C16 UNL     1      34.088   4.612  47.202  1.00  0.00     0.096 A 
HETATM   11  C17 UNL     1      34.899   4.429  48.294  1.00  0.00     0.074 A 
HETATM   12  N5  UNL     1      35.056   3.300  47.614  1.00  0.00    -0.183 NA
HETATM   13  C18 UNL     1      32.147   6.059  47.966  1.00  0.00     0.020 C 
HETATM   14  C19 UNL     1      32.438   5.682  49.385  1.00  0.00     0.013 C 
ENDROOT
BRANCH   1  15
HETATM   15  N2  UNL     1      30.405   7.525  48.900  1.00  0.00    -0.335 N 
HETATM   16  C7  UNL     1      29.107   7.097  48.471  1.00  0.00     0.321 C 
HETATM   17  N1  UNL     1      27.925   7.141  49.237  1.00  0.00    -0.306 N 
HETATM   18  O1  UNL     1      29.011   6.641  47.308  1.00  0.00    -0.247 OA
HETATM   19  H6  UNL     1      28.135   7.544  50.188  1.00  0.00     0.171 HD
HETATM   20  H7  UNL     1      30.478   7.912  49.887  1.00  0.00     0.165 HD
BRANCH  17  21
HETATM   21  C6  UNL     1      26.626   6.741  48.913  1.00  0.00     0.075 A 
HETATM   22  C5  UNL     1      25.834   7.614  48.174  1.00  0.00     0.143 A 
HETATM   23  C4  UNL     1      24.550   7.324  47.809  1.00  0.00     0.045 A 
HETATM   24  F1  UNL     1      26.329   8.818  47.786  1.00  0.00    -0.204 F 
HETATM   25  C3  UNL     1      23.979   6.118  48.168  1.00  0.00     0.010 A 
HETATM   26  C2  UNL     1      24.713   5.224  48.892  1.00  0.00    -0.060 A 
HETATM   27  C1  UNL     1      24.137   3.914  49.302  1.00  0.00     0.048 C 
HETATM   28  C20 UNL     1      25.999   5.571  49.233  1.00  0.00     0.039 A 
ENDBRANCH  17  21
ENDBRANCH   1  15
BRANCH  11  29
HETATM   29  N4  UNL     1      35.348   5.046  49.454  1.00  0.00    -0.294 NA
HETATM   30  H16 UNL     1      34.999   4.442  50.191  1.00  0.00     0.125 HD
HETATM   31  H17 UNL     1      35.087   4.567  50.366  1.00  0.00     0.125 HD
ENDBRANCH  11  29
TORSDOF 3
ENDMDL
MODEL 6
REMARK VINA RESULT:      -8.7      4.828      8.601
REMARK  3 active torsions:
REMARK  status: ('A' for Active; 'I' for Inactive)
REMARK    1  A    between atoms: C6_7  and  N1_8 
REMARK       I    between atoms: N1_8  and  C7_9 
REMARK       I    between atoms: C7_9  and  N2_11 
REMARK    2  A    between atoms: N2_11  and  C8_12 
REMARK    3  A    between atoms: C17_22  and  N4_23 
ROOT
HETATM    1  C8  UNL     1      23.702   4.158  50.555  1.00  0.00     0.113 C 
HETATM    2  C9  UNL     1      22.898   5.092  51.324  1.00  0.00    -0.005 C 
HETATM    3  C10 UNL     1      21.750   5.362  50.665  1.00  0.00    -0.028 C 
HETATM    4  C11 UNL     1      21.278   4.838  49.350  1.00  0.00     0.040 C 
HETATM    5  C12 UNL     1      22.338   4.348  48.457  1.00  0.00     0.002 A 
HETATM    6  C13 UNL     1      21.988   2.836  48.164  1.00  0.00     0.007 A 
HETATM    7  C14 UNL     1      21.888   2.960  46.775  1.00  0.00     0.003 A 
HETATM    8  N3  UNL     1      22.038   4.317  45.609  1.00  0.00     0.000 N 
HETATM    9  C15 UNL     1      21.962   3.606  46.250  1.00  0.00     0.029 A 
HETATM   10  C16 UNL     1      22.267   4.854  47.011  1.00  0.00     0.096 A 
HETATM   11  C17 UNL     1      22.484   6.172  46.695  1.00  0.00     0.074 A 
HETATM   12  N5  UNL     1      22.272   5.614  45.510  1.00  0.00    -0.183 NA
HETATM   13  C18 UNL     1      23.665   4.354  49.069  1.00  0.00     0.020 C 
HETATM   14  C19 UNL     1      24.514   5.549  48.770  1.00  0.00     0.013 C 
ENDROOT
BRANCH   1  15
HETATM   15  N2  UNL     1      25.032   4.112  51.102  1.00  0.00    -0.335 N 
HETATM   16  C7  UNL     1      25.563   2.868  51.575  1.00  0.00     0.321 C 
HETATM   17  N1  UNL     1      26.840   2.673  52.136  1.00  0.00    -0.306 N 
HETATM   18  O1  UNL     1      24.824   1.861  51.484  1.00  0.00    -0.247 OA
HETATM   19  H6  UNL     1      27.360   3.589  52.160  1.00  0.00     0.171 HD
HETATM   20  H7  UNL     1      25.664   4.963  51.184  1.00  0.00     0.165 HD
BRANCH  17  21
HETATM   21  C6  UNL     1      27.446   1.507  52.612  1.00  0.00     0.075 A 
HETATM   22  C5  UNL     1      28.585   1.633  53.402  1.00  0.00     0.143 A 
HETATM   23  C4  UNL     1      29.256   0.560  53.915  1.00  0.00     0.045 A 
HETATM   24  F1  UNL     1      29.077   2.866  53.692  1.00  0.00    -0.204 F 
HETATM   25  C3  UNL     1      28.813  -0.724  53.661  1.00  0.00     0.010 A 
HETATM   26  C2  UNL     1      27.700  -0.904  52.893  1.00  0.00    -0.060 A 
HETATM   27  C1  UNL     1      27.189  -2.271  52.595  1.00  0.00     0.048 C 
HETATM   28  C20 UNL     1      27.066   0.212  52.404  1.00  0.00     0.039 A 
ENDBRANCH  17  21
ENDBRANCH   1  15
BRANCH  11  29
HETATM   29  N4  UNL     1      22.751   7.414  47.257  1.00  0.00    -0.294 NA
HETATM   30  H16 UNL     1      23.091   7.958  46.470  1.00  0.00     0.125 HD
HETATM   31  H17 UNL     1      23.126   8.153  46.592  1.00  0.00     0.125 HD
ENDBRANCH  11  29
TORSDOF 3
ENDMDL
MODEL 7
REMARK VINA RESULT:      -8.4      5.489      7.780
REMARK  3 active torsions:
REMARK  status: ('A' for Active; 'I' for Inactive)
REMARK    1  A    between atoms: C6_7  and  N1_8 
REMARK       I    between atoms: N1_8  and  C7_9 
REMARK       I    between atoms: C7_9  and  N2_11 
REMARK    2  A    between atoms: N2_11  and  C8_12 
REMARK    3  A    between atoms: C17_22  and  N4_23 
ROOT
HETATM    1  C8  UNL     1      25.317   6.295  49.169  1.00  0.00     0.113 C 
HETATM    2  C9  UNL     1      24.388   6.941  48.257  1.00  0.00    -0.005 C 
HETATM    3  C10 UNL     1      25.071   7.636  47.320  1.00  0.00    -0.028 C 
HETATM    4  C11 UNL     1      26.546   7.783  47.152  1.00  0.00     0.040 C 
HETATM    5  C12 UNL     1      27.339   7.546  48.367  1.00  0.00     0.002 A 
HETATM    6  C13 UNL     1      28.326   6.366  48.012  1.00  0.00     0.007 A 
HETATM    7  C14 UNL     1      29.510   7.067  48.259  1.00  0.00     0.003 A 
HETATM    8  N3  UNL     1      29.911   8.743  48.764  1.00  0.00     0.000 N 
HETATM    9  C15 UNL     1      29.674   7.852  48.495  1.00  0.00     0.029 A 
HETATM   10  C16 UNL     1      28.400   8.610  48.677  1.00  0.00     0.096 A 
HETATM   11  C17 UNL     1      28.057   9.888  49.039  1.00  0.00     0.074 A 
HETATM   12  N5  UNL     1      29.383   9.911  49.089  1.00  0.00    -0.183 NA
HETATM   13  C18 UNL     1      26.541   7.091  49.504  1.00  0.00     0.020 C 
HETATM   14  C19 UNL     1      26.116   8.154  50.467  1.00  0.00     0.013 C 
ENDROOT
BRANCH   1  15
HETATM   15  N2  UNL     1      24.599   5.820  50.322  1.00  0.00    -0.335 N 
HETATM   16  C7  UNL     1      24.838   4.494  50.809  1.00  0.00     0.321 C 
HETATM   17  N1  UNL     1      24.210   3.896  51.920  1.00  0.00    -0.306 N 
HETATM   18  O1  UNL     1      25.680   3.802  50.193  1.00  0.00    -0.247 OA
HETATM   19  H6  UNL     1      23.526   4.573  52.347  1.00  0.00     0.171 HD
HETATM   20  H7  UNL     1      23.882   6.401  50.849  1.00  0.00     0.165 HD
BRANCH  17  21
HETATM   21  C6  UNL     1      24.382   2.624  52.474  1.00  0.00     0.075 A 
HETATM   22  C5  UNL     1      23.398   1.667  52.243  1.00  0.00     0.143 A 
HETATM   23  C4  UNL     1      23.466   0.397  52.741  1.00  0.00     0.045 A 
HETATM   24  F1  UNL     1      22.308   1.981  51.495  1.00  0.00    -0.204 F 
HETATM   25  C3  UNL     1      24.544   0.007  53.511  1.00  0.00     0.010 A 
HETATM   26  C2  UNL     1      25.539   0.906  53.766  1.00  0.00    -0.060 A 
HETATM   27  C1  UNL     1      26.719   0.528  54.592  1.00  0.00     0.048 C 
HETATM   28  C20 UNL     1      25.417   2.170  53.240  1.00  0.00     0.039 A 
ENDBRANCH  17  21
ENDBRANCH   1  15
BRANCH  11  29
HETATM   29  N4  UNL     1      26.969  10.728  49.233  1.00  0.00    -0.294 NA
HETATM   30  H16 UNL     1      27.350  11.479  49.800  1.00  0.00     0.125 HD
HETATM   31  H17 UNL     1      27.151  11.599  49.815  1.00  0.00     0.125 HD
ENDBRANCH  11  29
TORSDOF 3
ENDMDL
MODEL 8
REMARK VINA RESULT:      -8.3      5.778      7.558
REMARK  3 active torsions:
REMARK  status: ('A' for Active; 'I' for Inactive)
REMARK    1  A    between atoms: C6_7  and  N1_8 
REMARK       I    between atoms: N1_8  and  C7_9 
REMARK       I    between atoms: C7_9  and  N2_11 
REMARK    2  A    between atoms: N2_11  and  C8_12 
REMARK    3  A    between atoms: C17_22  and  N4_23 
ROOT
HETATM    1  C8  UNL     1      25.488   6.867  48.819  1.00  0.00     0.113 C 
HETATM    2  C9  UNL     1      24.827   7.747  47.870  1.00  0.00    -0.005 C 
HETATM    3  C10 UNL     1      25.743   8.315  47.054  1.00  0.00    -0.028 C 
HETATM    4  C11 UNL     1      27.224   8.136  47.040  1.00  0.00     0.040 C 
HETATM    5  C12 UNL     1      27.809   7.671  48.306  1.00  0.00     0.002 A 
HETATM    6  C13 UNL     1      28.549   6.318  47.965  1.00  0.00     0.007 A 
HETATM    7  C14 UNL     1      29.823   6.724  48.374  1.00  0.00     0.003 A 
HETATM    8  N3  UNL     1      30.520   8.242  49.032  1.00  0.00     0.000 N 
HETATM    9  C15 UNL     1      30.126   7.441  48.680  1.00  0.00     0.029 A 
HETATM   10  C16 UNL     1      29.035   8.454  48.791  1.00  0.00     0.096 A 
HETATM   11  C17 UNL     1      28.941   9.758  49.207  1.00  0.00     0.074 A 
HETATM   12  N5  UNL     1      30.226   9.482  49.386  1.00  0.00    -0.183 NA
HETATM   13  C18 UNL     1      26.812   7.352  49.326  1.00  0.00     0.020 C 
HETATM   14  C19 UNL     1      26.524   8.437  50.315  1.00  0.00     0.013 C 
ENDROOT
BRANCH   1  15
HETATM   15  N2  UNL     1      24.562   6.511  49.861  1.00  0.00    -0.335 N 
HETATM   16  C7  UNL     1      24.296   5.129  50.132  1.00  0.00     0.321 C 
HETATM   17  N1  UNL     1      23.416   4.633  51.113  1.00  0.00    -0.306 N 
HETATM   18  O1  UNL     1      24.899   4.284  49.431  1.00  0.00    -0.247 OA
HETATM   19  H6  UNL     1      22.971   5.436  51.629  1.00  0.00     0.171 HD
HETATM   20  H7  UNL     1      24.045   7.222  50.458  1.00  0.00     0.165 HD
BRANCH  17  21
HETATM   21  C6  UNL     1      23.101   3.315  51.457  1.00  0.00     0.075 A 
HETATM   22  C5  UNL     1      23.685   2.775  52.598  1.00  0.00     0.143 A 
HETATM   23  C4  UNL     1      23.448   1.497  53.020  1.00  0.00     0.045 A 
HETATM   24  F1  UNL     1      24.535   3.526  53.347  1.00  0.00    -0.204 F 
HETATM   25  C3  UNL     1      22.595   0.675  52.309  1.00  0.00     0.010 A 
HETATM   26  C2  UNL     1      21.995   1.156  51.182  1.00  0.00    -0.060 A 
HETATM   27  C1  UNL     1      21.069   0.304  50.385  1.00  0.00     0.048 C 
HETATM   28  C20 UNL     1      22.270   2.448  50.805  1.00  0.00     0.039 A 
ENDBRANCH  17  21
ENDBRANCH   1  15
BRANCH  11  29
HETATM   29  N4  UNL     1      28.047  10.810  49.354  1.00  0.00    -0.294 NA
HETATM   30  H16 UNL     1      28.645  11.630  49.337  1.00  0.00     0.125 HD
HETATM   31  H17 UNL     1      28.472  11.785  49.362  1.00  0.00     0.125 HD
ENDBRANCH  11  29
TORSDOF 3
ENDMDL
MODEL 9
REMARK VINA RESULT:      -8.0      4.915      9.599
REMARK  3 active torsions:
REMARK  status: ('A' for Active; 'I' for Inactive)
REMARK    1  A    between atoms: C6_7  and  N1_8 
REMARK       I    between atoms: N1_8  and  C7_9 
REMARK       I    between atoms: C7_9  and  N2_11 
REMARK    2  A    between atoms: N2_11  and  C8_12 
REMARK    3  A    between atoms: C17_22  and  N4_23 
ROOT
HETATM    1  C8  UNL     1      24.304   3.488  50.906  1.00  0.00     0.113 C 
HETATM    2  C9  UNL     1      24.560   2.800  52.159  1.00  0.00    -0.005 C 
HETATM    3  C10 UNL     1      23.722   1.748  52.286  1.00  0.00    -0.028 C 
HETATM    4  C11 UNL     1      22.664   1.273  51.348  1.00  0.00     0.040 C 
HETATM    5  C12 UNL     1      22.153   2.291  50.418  1.00  0.00     0.002 A 
HETATM    6  C13 UNL     1      22.424   1.723  48.969  1.00  0.00     0.007 A 
HETATM    7  C14 UNL     1      21.091   1.723  48.546  1.00  0.00     0.003 A 
HETATM    8  N3  UNL     1      19.520   2.150  49.301  1.00  0.00     0.000 N 
HETATM    9  C15 UNL     1      20.371   1.927  48.917  1.00  0.00     0.029 A 
HETATM   10  C16 UNL     1      20.625   2.382  50.316  1.00  0.00     0.096 A 
HETATM   11  C17 UNL     1      19.857   2.822  51.364  1.00  0.00     0.074 A 
HETATM   12  N5  UNL     1      18.960   2.591  50.414  1.00  0.00    -0.183 NA
HETATM   13  C18 UNL     1      22.863   3.566  50.502  1.00  0.00     0.020 C 
HETATM   14  C19 UNL     1      22.228   4.608  51.367  1.00  0.00     0.013 C 
ENDROOT
BRANCH   1  15
HETATM   15  N2  UNL     1      24.974   4.762  50.917  1.00  0.00    -0.335 N 
HETATM   16  C7  UNL     1      25.802   5.137  49.809  1.00  0.00     0.321 C 
HETATM   17  N1  UNL     1      26.518   6.344  49.683  1.00  0.00    -0.306 N 
HETATM   18  O1  UNL     1      25.900   4.318  48.866  1.00  0.00    -0.247 OA
HETATM   19  H6  UNL     1      26.358   6.941  50.536  1.00  0.00     0.171 HD
HETATM   20  H7  UNL     1      24.897   5.460  51.714  1.00  0.00     0.165 HD
BRANCH  17  21
HETATM   21  C6  UNL     1      27.336   6.801  48.646  1.00  0.00     0.075 A 
HETATM   22  C5  UNL     1      26.794   7.690  47.724  1.00  0.00     0.143 A 
HETATM   23  C4  UNL     1      27.504   8.194  46.671  1.00  0.00     0.045 A 
HETATM   24  F1  UNL     1      25.501   8.092  47.846  1.00  0.00    -0.204 F 
HETATM   25  C3  UNL     1      28.823   7.830  46.483  1.00  0.00     0.010 A 
HETATM   26  C2  UNL     1      29.405   6.962  47.360  1.00  0.00    -0.060 A 
HETATM   27  C1  UNL     1      30.824   6.542  47.195  1.00  0.00     0.048 C 
HETATM   28  C20 UNL     1      28.642   6.486  48.400  1.00  0.00     0.039 A 
ENDBRANCH  17  21
ENDBRANCH   1  15
BRANCH  11  29
HETATM   29  N4  UNL     1      19.926   3.250  52.683  1.00  0.00    -0.294 NA
HETATM   30  H16 UNL     1      19.320   2.599  53.172  1.00  0.00     0.125 HD
HETATM   31  H17 UNL     1      19.352   2.693  53.383  1.00  0.00     0.125 HD
ENDBRANCH  11  29
TORSDOF 3
ENDMDL
