MODEL 1
REMARK VINA RESULT:      -9.5      0.000      0.000
REMARK  7 active torsions:
REMARK  status: ('A' for Active; 'I' for Inactive)
REMARK    1  A    between atoms: C3_4  and  C4_5 
REMARK    2  A    between atoms: C6_8  and  N2_9 
REMARK    3  A    between atoms: C12_15  and  O1_16 
REMARK    4  A    between atoms: O1_16  and  C13_17 
REMARK    5  A    between atoms: C13_17  and  C14_18 
REMARK    6  A    between atoms: C14_18  and  C15_19 
REMARK    7  A    between atoms: C18_22  and  O2_23 
ROOT
HETATM    1  C1  UNL     1      25.365   8.563  47.483  1.00  0.00     0.155 C 
HETATM    2  N1  UNL     1      26.477   7.686  47.756  1.00  0.00    -0.360 N 
HETATM    3  C2  UNL     1      27.762   7.834  47.493  1.00  0.00     0.099 A 
HETATM    4  C3  UNL     1      28.662   6.814  47.867  1.00  0.00    -0.020 A 
HETATM    5  C10 UNL     1      27.649   5.972  48.437  1.00  0.00     0.002 A 
HETATM    6  C11 UNL     1      27.673   4.710  49.064  1.00  0.00     0.051 A 
HETATM    7  C12 UNL     1      26.615   3.998  49.576  1.00  0.00     0.069 A 
HETATM    8  C21 UNL     1      25.401   4.616  49.446  1.00  0.00     0.039 A 
HETATM    9  C22 UNL     1      25.293   5.842  48.849  1.00  0.00     0.033 A 
HETATM   10  C23 UNL     1      26.393   6.499  48.360  1.00  0.00     0.044 A 
ENDROOT
BRANCH   7  11
HETATM   11  O1  UNL     1      26.919   2.801  50.131  1.00  0.00    -0.351 OA
BRANCH  11  12
HETATM   12  C13 UNL     1      26.400   2.088  51.175  1.00  0.00     0.180 C 
BRANCH  12  13
HETATM   13  C14 UNL     1      27.161   2.048  52.454  1.00  0.00     0.065 C 
BRANCH  13  14
HETATM   14  C15 UNL     1      27.588   0.623  52.708  1.00  0.00    -0.056 A 
HETATM   15  C16 UNL     1      26.681  -0.315  52.226  1.00  0.00     0.010 A 
HETATM   16  C17 UNL     1      27.002  -1.640  52.422  1.00  0.00     0.037 A 
HETATM   17  C18 UNL     1      28.157  -2.041  53.062  1.00  0.00     0.065 A 
HETATM   18  C19 UNL     1      29.034  -1.073  53.528  1.00  0.00     0.037 A 
HETATM   19  C20 UNL     1      28.754   0.264  53.353  1.00  0.00     0.010 A 
BRANCH  17  20
HETATM   20  O2  UNL     1      28.470  -3.367  53.253  1.00  0.00    -0.361 OA
HETATM   21  H19 UNL     1      28.228  -3.820  54.114  1.00  0.00     0.217 HD
ENDBRANCH  17  20
ENDBRANCH  13  14
ENDBRANCH  12  13
ENDBRANCH  11  12
ENDBRANCH   7  11
BRANCH   4  22
HETATM   22  C4  UNL     1      30.014   6.455  47.848  1.00  0.00     0.072 A 
HETATM   23  C5  UNL     1      31.073   6.643  46.810  1.00  0.00     0.014 A 
HETATM   24  P1  UNL     1      31.681   5.130  47.433  1.00  0.00    -0.048 P 
HETATM   25  C9  UNL     1      30.213   7.907  46.816  1.00  0.00     0.018 C 
HETATM   26  C6  UNL     1      31.509   5.764  49.247  1.00  0.00     0.019 C 
HETATM   27  C7  UNL     1      31.006   6.976  48.871  1.00  0.00     0.029 C 
HETATM   28  C8  UNL     1      30.299   8.208  48.279  1.00  0.00     0.019 C 
BRANCH  26  29
HETATM   29  N2  UNL     1      31.647   5.684  50.715  1.00  0.00    -0.401 N 
HETATM   30  H6  UNL     1      31.039   6.344  51.246  1.00  0.00     0.156 HD
HETATM   31  H7  UNL     1      32.284   5.053  51.248  1.00  0.00     0.156 HD
ENDBRANCH  26  29
ENDBRANCH   4  22
TORSDOF 7
ENDMDL
MODEL 2
REMARK VINA RESULT:      -9.3      3.751      8.159
REMARK  7 active torsions:
REMARK  status: ('A' for Active; 'I' for Inactive)
REMARK    1  A    between atoms: C3_4  and  C4_5 
REMARK    2  A    between atoms: C6_8  and  N2_9 
REMARK    3  A    between atoms: C12_15  and  O1_16 
REMARK    4  A    between atoms: O1_16  and  C13_17 
REMARK    5  A    between atoms: C13_17  and  C14_18 
REMARK    6  A    between atoms: C14_18  and  C15_19 
REMARK    7  A    between atoms: C18_22  and  O2_23 
ROOT
HETATM    1  C1  UNL     1      21.676  -1.343  53.772  1.00  0.00     0.155 C 
HETATM    2  N1  UNL     1      22.899  -0.599  53.603  1.00  0.00    -0.360 N 
HETATM    3  C2  UNL     1      24.150  -0.958  53.816  1.00  0.00     0.099 A 
HETATM    4  C3  UNL     1      25.183  -0.030  53.571  1.00  0.00    -0.020 A 
HETATM    5  C10 UNL     1      24.297   1.017  53.147  1.00  0.00     0.002 A 
HETATM    6  C11 UNL     1      24.497   2.340  52.703  1.00  0.00     0.051 A 
HETATM    7  C12 UNL     1      23.548   3.257  52.319  1.00  0.00     0.069 A 
HETATM    8  C21 UNL     1      22.259   2.800  52.386  1.00  0.00     0.039 A 
HETATM    9  C22 UNL     1      21.982   1.528  52.806  1.00  0.00     0.033 A 
HETATM   10  C23 UNL     1      22.981   0.662  53.175  1.00  0.00     0.044 A 
ENDROOT
BRANCH   7  11
HETATM   11  O1  UNL     1      24.015   4.467  51.933  1.00  0.00    -0.351 OA
BRANCH  11  12
HETATM   12  C13 UNL     1      23.565   5.414  51.056  1.00  0.00     0.180 C 
BRANCH  12  13
HETATM   13  C14 UNL     1      23.703   5.153  49.597  1.00  0.00     0.065 C 
BRANCH  13  14
HETATM   14  C15 UNL     1      25.172   5.028  49.273  1.00  0.00    -0.056 A 
HETATM   15  C16 UNL     1      25.734   6.215  48.815  1.00  0.00     0.010 A 
HETATM   16  C17 UNL     1      27.075   6.179  48.497  1.00  0.00     0.037 A 
HETATM   17  C18 UNL     1      27.840   5.038  48.619  1.00  0.00     0.065 A 
HETATM   18  C19 UNL     1      27.240   3.877  49.079  1.00  0.00     0.037 A 
HETATM   19  C20 UNL     1      25.902   3.866  49.410  1.00  0.00     0.010 A 
BRANCH  17  20
HETATM   20  O2  UNL     1      29.178   5.012  48.300  1.00  0.00    -0.361 OA
HETATM   21  H19 UNL     1      29.823   4.512  48.881  1.00  0.00     0.217 HD
ENDBRANCH  17  20
ENDBRANCH  13  14
ENDBRANCH  12  13
ENDBRANCH  11  12
ENDBRANCH   7  11
BRANCH   4  22
HETATM   22  C4  UNL     1      26.572   0.133  53.613  1.00  0.00     0.072 A 
HETATM   23  C5  UNL     1      27.684  -0.862  53.706  1.00  0.00     0.014 A 
HETATM   24  P1  UNL     1      28.483   0.402  54.606  1.00  0.00    -0.048 P 
HETATM   25  C9  UNL     1      26.617  -1.456  52.786  1.00  0.00     0.018 C 
HETATM   26  C6  UNL     1      28.013   1.707  53.265  1.00  0.00     0.019 C 
HETATM   27  C7  UNL     1      27.345   0.803  52.490  1.00  0.00     0.029 C 
HETATM   28  C8  UNL     1      26.495  -0.303  51.840  1.00  0.00     0.019 C 
BRANCH  26  29
HETATM   29  N2  UNL     1      28.010   3.043  52.636  1.00  0.00    -0.401 N 
HETATM   30  H6  UNL     1      27.168   3.249  52.056  1.00  0.00     0.156 HD
HETATM   31  H7  UNL     1      28.755   3.769  52.711  1.00  0.00     0.156 HD
ENDBRANCH  26  29
ENDBRANCH   4  22
TORSDOF 7
ENDMDL
MODEL 3
REMARK VINA RESULT:      -9.1      5.744      8.733
REMARK  7 active torsions:
REMARK  status: ('A' for Active; 'I' for Inactive)
REMARK    1  A    between atoms: C3_4  and  C4_5 
REMARK    2  A    between atoms: C6_8  and  N2_9 
REMARK    3  A    between atoms: C12_15  and  O1_16 
REMARK    4  A    between atoms: O1_16  and  C13_17 
REMARK    5  A    between atoms: C13_17  and  C14_18 
REMARK    6  A    between atoms: C14_18  and  C15_19 
REMARK    7  A    between atoms: C18_22  and  O2_23 
ROOT
HETATM    1  C1  UNL     1      17.995  -1.151  53.425  1.00  0.00     0.155 C 
HETATM    2  N1  UNL     1      19.110  -0.540  52.745  1.00  0.00    -0.360 N 
HETATM    3  C2  UNL     1      19.141   0.191  51.648  1.00  0.00     0.099 A 
HETATM    4  C3  UNL     1      20.379   0.678  51.181  1.00  0.00    -0.020 A 
HETATM    5  C10 UNL     1      21.142   0.087  52.243  1.00  0.00     0.002 A 
HETATM    6  C11 UNL     1      22.514   0.075  52.566  1.00  0.00     0.051 A 
HETATM    7  C12 UNL     1      23.129  -0.540  53.630  1.00  0.00     0.069 A 
HETATM    8  C21 UNL     1      22.277  -1.215  54.463  1.00  0.00     0.039 A 
HETATM    9  C22 UNL     1      20.932  -1.251  54.219  1.00  0.00     0.033 A 
HETATM   10  C23 UNL     1      20.384  -0.613  53.135  1.00  0.00     0.044 A 
ENDROOT
BRANCH   7  11
HETATM   11  O1  UNL     1      24.472  -0.391  53.705  1.00  0.00    -0.351 OA
BRANCH  11  12
HETATM   12  C13 UNL     1      25.528  -1.098  53.202  1.00  0.00     0.180 C 
BRANCH  12  13
HETATM   13  C14 UNL     1      26.396  -0.447  52.182  1.00  0.00     0.065 C 
BRANCH  13  14
HETATM   14  C15 UNL     1      27.388   0.436  52.897  1.00  0.00    -0.056 A 
HETATM   15  C16 UNL     1      28.341  -0.280  53.614  1.00  0.00     0.010 A 
HETATM   16  C17 UNL     1      29.283   0.460  54.296  1.00  0.00     0.037 A 
HETATM   17  C18 UNL     1      29.301   1.839  54.283  1.00  0.00     0.065 A 
HETATM   18  C19 UNL     1      28.333   2.514  53.555  1.00  0.00     0.037 A 
HETATM   19  C20 UNL     1      27.371   1.815  52.858  1.00  0.00     0.010 A 
BRANCH  17  20
HETATM   20  O2  UNL     1      30.246   2.569  54.966  1.00  0.00    -0.361 OA
HETATM   21  H19 UNL     1      30.029   2.954  55.865  1.00  0.00     0.217 HD
ENDBRANCH  17  20
ENDBRANCH  13  14
ENDBRANCH  12  13
ENDBRANCH  11  12
ENDBRANCH   7  11
BRANCH   4  22
HETATM   22  C4  UNL     1      20.970   1.437  50.165  1.00  0.00     0.072 A 
HETATM   23  C5  UNL     1      20.388   2.098  48.956  1.00  0.00     0.014 A 
HETATM   24  P1  UNL     1      21.935   1.720  48.242  1.00  0.00    -0.048 P 
HETATM   25  C9  UNL     1      19.387   2.275  50.099  1.00  0.00     0.018 C 
HETATM   26  C6  UNL     1      22.861   2.414  49.787  1.00  0.00     0.019 C 
HETATM   27  C7  UNL     1      21.709   2.733  50.445  1.00  0.00     0.029 C 
HETATM   28  C8  UNL     1      20.324   2.865  51.104  1.00  0.00     0.019 C 
BRANCH  26  29
HETATM   29  N2  UNL     1      24.045   2.800  50.580  1.00  0.00    -0.401 N 
HETATM   30  H6  UNL     1      23.845   3.444  51.375  1.00  0.00     0.156 HD
HETATM   31  H7  UNL     1      25.030   2.502  50.413  1.00  0.00     0.156 HD
ENDBRANCH  26  29
ENDBRANCH   4  22
TORSDOF 7
ENDMDL
MODEL 4
REMARK VINA RESULT:      -9.0      4.131      8.657
REMARK  7 active torsions:
REMARK  status: ('A' for Active; 'I' for Inactive)
REMARK    1  A    between atoms: C3_4  and  C4_5 
REMARK    2  A    between atoms: C6_8  and  N2_9 
REMARK    3  A    between atoms: C12_15  and  O1_16 
REMARK    4  A    between atoms: O1_16  and  C13_17 
REMARK    5  A    between atoms: C13_17  and  C14_18 
REMARK    6  A    between atoms: C14_18  and  C15_19 
REMARK    7  A    between atoms: C18_22  and  O2_23 
ROOT
HETATM    1  C1  UNL     1      22.001  -1.616  54.624  1.00  0.00     0.155 C 
HETATM    2  N1  UNL     1      22.954  -0.676  54.090  1.00  0.00    -0.360 N 
HETATM    3  C2  UNL     1      24.273  -0.677  54.142  1.00  0.00     0.099 A 
HETATM    4  C3  UNL     1      24.987   0.374  53.531  1.00  0.00    -0.020 A 
HETATM    5  C10 UNL     1      23.811   1.055  53.068  1.00  0.00     0.002 A 
HETATM    6  C11 UNL     1      23.599   2.241  52.335  1.00  0.00     0.051 A 
HETATM    7  C12 UNL     1      22.402   2.795  51.949  1.00  0.00     0.069 A 
HETATM    8  C21 UNL     1      21.298   2.086  52.338  1.00  0.00     0.039 A 
HETATM    9  C22 UNL     1      21.419   0.926  53.052  1.00  0.00     0.033 A 
HETATM   10  C23 UNL     1      22.648   0.427  53.405  1.00  0.00     0.044 A 
ENDROOT
BRANCH   7  11
HETATM   11  O1  UNL     1      22.484   3.949  51.245  1.00  0.00    -0.351 OA
BRANCH  11  12
HETATM   12  C13 UNL     1      21.712   4.512  50.267  1.00  0.00     0.180 C 
BRANCH  12  13
HETATM   13  C14 UNL     1      22.389   5.074  49.066  1.00  0.00     0.065 C 
BRANCH  13  14
HETATM   14  C15 UNL     1      23.513   5.969  49.528  1.00  0.00    -0.056 A 
HETATM   15  C16 UNL     1      24.764   5.550  49.087  1.00  0.00     0.010 A 
HETATM   16  C17 UNL     1      25.841   6.318  49.471  1.00  0.00     0.037 A 
HETATM   17  C18 UNL     1      25.712   7.448  50.252  1.00  0.00     0.065 A 
HETATM   18  C19 UNL     1      24.446   7.830  50.670  1.00  0.00     0.037 A 
HETATM   19  C20 UNL     1      23.340   7.092  50.310  1.00  0.00     0.010 A 
BRANCH  17  20
HETATM   20  O2  UNL     1      26.794   8.210  50.629  1.00  0.00    -0.361 OA
HETATM   21  H19 UNL     1      27.424   7.871  51.331  1.00  0.00     0.217 HD
ENDBRANCH  17  20
ENDBRANCH  13  14
ENDBRANCH  12  13
ENDBRANCH  11  12
ENDBRANCH   7  11
BRANCH   4  22
HETATM   22  C4  UNL     1      26.278   0.855  53.289  1.00  0.00     0.072 A 
HETATM   23  C5  UNL     1      27.622   0.305  53.642  1.00  0.00     0.014 A 
HETATM   24  P1  UNL     1      28.066   1.988  53.764  1.00  0.00    -0.048 P 
HETATM   25  C9  UNL     1      26.735  -0.877  53.248  1.00  0.00     0.018 C 
HETATM   26  C6  UNL     1      27.221   2.374  52.073  1.00  0.00     0.019 C 
HETATM   27  C7  UNL     1      26.807   1.087  51.884  1.00  0.00     0.029 C 
HETATM   28  C8  UNL     1      26.277  -0.358  51.923  1.00  0.00     0.019 C 
BRANCH  26  29
HETATM   29  N2  UNL     1      26.834   3.223  50.929  1.00  0.00    -0.401 N 
HETATM   30  H6  UNL     1      27.592   3.388  50.233  1.00  0.00     0.156 HD
HETATM   31  H7  UNL     1      25.903   3.666  50.769  1.00  0.00     0.156 HD
ENDBRANCH  26  29
ENDBRANCH   4  22
TORSDOF 7
ENDMDL
MODEL 5
REMARK VINA RESULT:      -8.8      6.031      8.774
REMARK  7 active torsions:
REMARK  status: ('A' for Active; 'I' for Inactive)
REMARK    1  A    between atoms: C3_4  and  C4_5 
REMARK    2  A    between atoms: C6_8  and  N2_9 
REMARK    3  A    between atoms: C12_15  and  O1_16 
REMARK    4  A    between atoms: O1_16  and  C13_17 
REMARK    5  A    between atoms: C13_17  and  C14_18 
REMARK    6  A    between atoms: C14_18  and  C15_19 
REMARK    7  A    between atoms: C18_22  and  O2_23 
ROOT
HETATM    1  C1  UNL     1      18.168  -1.635  53.502  1.00  0.00     0.155 C 
HETATM    2  N1  UNL     1      19.102  -0.767  52.829  1.00  0.00    -0.360 N 
HETATM    3  C2  UNL     1      18.936   0.010  51.776  1.00  0.00     0.099 A 
HETATM    4  C3  UNL     1      20.025   0.771  51.304  1.00  0.00    -0.020 A 
HETATM    5  C10 UNL     1      20.936   0.301  52.309  1.00  0.00     0.002 A 
HETATM    6  C11 UNL     1      22.292   0.563  52.592  1.00  0.00     0.051 A 
HETATM    7  C12 UNL     1      23.063   0.039  53.601  1.00  0.00     0.069 A 
HETATM    8  C21 UNL     1      22.406  -0.843  54.415  1.00  0.00     0.039 A 
HETATM    9  C22 UNL     1      21.090  -1.151  54.208  1.00  0.00     0.033 A 
HETATM   10  C23 UNL     1      20.377  -0.589  53.179  1.00  0.00     0.044 A 
ENDROOT
BRANCH   7  11
HETATM   11  O1  UNL     1      24.347   0.465  53.647  1.00  0.00    -0.351 OA
BRANCH  11  12
HETATM   12  C13 UNL     1      25.028   1.474  53.025  1.00  0.00     0.180 C 
BRANCH  12  13
HETATM   13  C14 UNL     1      25.972   1.121  51.929  1.00  0.00     0.065 C 
BRANCH  13  14
HETATM   14  C15 UNL     1      26.824  -0.037  52.389  1.00  0.00    -0.056 A 
HETATM   15  C16 UNL     1      26.313  -1.275  52.013  1.00  0.00     0.010 A 
HETATM   16  C17 UNL     1      27.037  -2.383  52.399  1.00  0.00     0.037 A 
HETATM   17  C18 UNL     1      28.209  -2.293  53.121  1.00  0.00     0.065 A 
HETATM   18  C19 UNL     1      28.682  -1.039  53.475  1.00  0.00     0.037 A 
HETATM   19  C20 UNL     1      27.992   0.096  53.110  1.00  0.00     0.010 A 
BRANCH  17  20
HETATM   20  O2  UNL     1      28.925  -3.405  53.501  1.00  0.00    -0.361 OA
HETATM   21  H19 UNL     1      29.748  -3.302  54.064  1.00  0.00     0.217 HD
ENDBRANCH  17  20
ENDBRANCH  13  14
ENDBRANCH  12  13
ENDBRANCH  11  12
ENDBRANCH   7  11
BRANCH   4  22
HETATM   22  C4  UNL     1      20.402   1.689  50.318  1.00  0.00     0.072 A 
HETATM   23  C5  UNL     1      19.690   2.184  49.101  1.00  0.00     0.014 A 
HETATM   24  P1  UNL     1      21.300   2.278  48.432  1.00  0.00    -0.048 P 
HETATM   25  C9  UNL     1      18.649   2.043  50.212  1.00  0.00     0.018 C 
HETATM   26  C6  UNL     1      21.946   3.172  50.016  1.00  0.00     0.019 C 
HETATM   27  C7  UNL     1      20.733   3.136  50.641  1.00  0.00     0.029 C 
HETATM   28  C8  UNL     1      19.351   2.853  51.255  1.00  0.00     0.019 C 
BRANCH  26  29
HETATM   29  N2  UNL     1      22.948   3.862  50.853  1.00  0.00    -0.401 N 
HETATM   30  H6  UNL     1      22.829   3.721  51.879  1.00  0.00     0.156 HD
HETATM   31  H7  UNL     1      23.731   4.464  50.518  1.00  0.00     0.156 HD
ENDBRANCH  26  29
ENDBRANCH   4  22
TORSDOF 7
ENDMDL
MODEL 6
REMARK VINA RESULT:      -8.8      4.958      7.219
REMARK  7 active torsions:
REMARK  status: ('A' for Active; 'I' for Inactive)
REMARK    1  A    between atoms: C3_4  and  C4_5 
REMARK    2  A    between atoms: C6_8  and  N2_9 
REMARK    3  A    between atoms: C12_15  and  O1_16 
REMARK    4  A    between atoms: O1_16  and  C13_17 
REMARK    5  A    between atoms: C13_17  and  C14_18 
REMARK    6  A    between atoms: C14_18  and  C15_19 
REMARK    7  A    between atoms: C18_22  and  O2_23 
ROOT
HETATM    1  C1  UNL     1      18.588   1.174  52.062  1.00  0.00     0.155 C 
HETATM    2  N1  UNL     1      19.974   1.516  51.859  1.00  0.00    -0.360 N 
HETATM    3  C2  UNL     1      20.517   2.470  51.126  1.00  0.00     0.099 A 
HETATM    4  C3  UNL     1      21.921   2.597  51.094  1.00  0.00    -0.020 A 
HETATM    5  C10 UNL     1      22.155   1.496  51.985  1.00  0.00     0.002 A 
HETATM    6  C11 UNL     1      23.320   0.905  52.516  1.00  0.00     0.051 A 
HETATM    7  C12 UNL     1      23.411  -0.164  53.374  1.00  0.00     0.069 A 
HETATM    8  C21 UNL     1      22.206  -0.701  53.740  1.00  0.00     0.039 A 
HETATM    9  C22 UNL     1      21.031  -0.185  53.268  1.00  0.00     0.033 A 
HETATM   10  C23 UNL     1      21.012   0.887  52.412  1.00  0.00     0.044 A 
ENDROOT
BRANCH   7  11
HETATM   11  O1  UNL     1      24.664  -0.531  53.733  1.00  0.00    -0.351 OA
BRANCH  11  12
HETATM   12  C13 UNL     1      25.665  -1.212  53.098  1.00  0.00     0.180 C 
BRANCH  12  13
HETATM   13  C14 UNL     1      26.505  -0.479  52.111  1.00  0.00     0.065 C 
BRANCH  13  14
HETATM   14  C15 UNL     1      27.469   0.401  52.869  1.00  0.00    -0.056 A 
HETATM   15  C16 UNL     1      28.276  -0.306  53.755  1.00  0.00     0.010 A 
HETATM   16  C17 UNL     1      29.182   0.432  54.485  1.00  0.00     0.037 A 
HETATM   17  C18 UNL     1      29.303   1.800  54.362  1.00  0.00     0.065 A 
HETATM   18  C19 UNL     1      28.479   2.466  53.467  1.00  0.00     0.037 A 
HETATM   19  C20 UNL     1      27.558   1.769  52.716  1.00  0.00     0.010 A 
BRANCH  17  20
HETATM   20  O2  UNL     1      30.212   2.528  55.095  1.00  0.00    -0.361 OA
HETATM   21  H19 UNL     1      31.079   2.111  55.375  1.00  0.00     0.217 HD
ENDBRANCH  17  20
ENDBRANCH  13  14
ENDBRANCH  12  13
ENDBRANCH  11  12
ENDBRANCH   7  11
BRANCH   4  22
HETATM   22  C4  UNL     1      22.962   3.353  50.545  1.00  0.00     0.072 A 
HETATM   23  C5  UNL     1      23.549   3.379  49.170  1.00  0.00     0.014 A 
HETATM   24  P1  UNL     1      25.031   3.744  50.017  1.00  0.00    -0.048 P 
HETATM   25  C9  UNL     1      22.037   3.211  49.017  1.00  0.00     0.018 C 
HETATM   26  C6  UNL     1      24.138   5.087  51.078  1.00  0.00     0.019 C 
HETATM   27  C7  UNL     1      22.924   4.870  50.494  1.00  0.00     0.029 C 
HETATM   28  C8  UNL     1      21.614   4.375  49.855  1.00  0.00     0.019 C 
BRANCH  26  29
HETATM   29  N2  UNL     1      24.056   6.172  52.076  1.00  0.00    -0.401 N 
HETATM   30  H6  UNL     1      24.934   6.337  52.612  1.00  0.00     0.156 HD
HETATM   31  H7  UNL     1      23.221   6.760  52.289  1.00  0.00     0.156 HD
ENDBRANCH  26  29
ENDBRANCH   4  22
TORSDOF 7
ENDMDL
MODEL 7
REMARK VINA RESULT:      -8.7      2.400      3.140
REMARK  7 active torsions:
REMARK  status: ('A' for Active; 'I' for Inactive)
REMARK    1  A    between atoms: C3_4  and  C4_5 
REMARK    2  A    between atoms: C6_8  and  N2_9 
REMARK    3  A    between atoms: C12_15  and  O1_16 
REMARK    4  A    between atoms: O1_16  and  C13_17 
REMARK    5  A    between atoms: C13_17  and  C14_18 
REMARK    6  A    between atoms: C14_18  and  C15_19 
REMARK    7  A    between atoms: C18_22  and  O2_23 
ROOT
HETATM    1  C1  UNL     1      21.534   5.845  47.917  1.00  0.00     0.155 C 
HETATM    2  N1  UNL     1      22.937   5.984  48.217  1.00  0.00    -0.360 N 
HETATM    3  C2  UNL     1      23.790   6.933  47.879  1.00  0.00     0.099 A 
HETATM    4  C3  UNL     1      25.131   6.835  48.304  1.00  0.00    -0.020 A 
HETATM    5  C10 UNL     1      24.940   5.594  48.999  1.00  0.00     0.002 A 
HETATM    6  C11 UNL     1      25.794   4.753  49.742  1.00  0.00     0.051 A 
HETATM    7  C12 UNL     1      25.483   3.571  50.369  1.00  0.00     0.069 A 
HETATM    8  C21 UNL     1      24.175   3.189  50.241  1.00  0.00     0.039 A 
HETATM    9  C22 UNL     1      23.283   3.950  49.537  1.00  0.00     0.033 A 
HETATM   10  C23 UNL     1      23.662   5.123  48.934  1.00  0.00     0.044 A 
ENDROOT
BRANCH   7  11
HETATM   11  O1  UNL     1      26.501   2.959  51.019  1.00  0.00    -0.351 OA
BRANCH  11  12
HETATM   12  C13 UNL     1      26.577   2.223  52.168  1.00  0.00     0.180 C 
BRANCH  12  13
HETATM   13  C14 UNL     1      27.901   2.086  52.836  1.00  0.00     0.065 C 
BRANCH  13  14
HETATM   14  C15 UNL     1      28.199   0.616  53.004  1.00  0.00    -0.056 A 
HETATM   15  C16 UNL     1      27.146  -0.204  52.611  1.00  0.00     0.010 A 
HETATM   16  C17 UNL     1      27.343  -1.563  52.737  1.00  0.00     0.037 A 
HETATM   17  C18 UNL     1      28.515  -2.104  53.224  1.00  0.00     0.065 A 
HETATM   18  C19 UNL     1      29.539  -1.250  53.604  1.00  0.00     0.037 A 
HETATM   19  C20 UNL     1      29.386   0.114  53.496  1.00  0.00     0.010 A 
BRANCH  17  20
HETATM   20  O2  UNL     1      28.703  -3.462  53.345  1.00  0.00    -0.361 OA
HETATM   21  H19 UNL     1      29.573  -3.818  53.692  1.00  0.00     0.217 HD
ENDBRANCH  17  20
ENDBRANCH  13  14
ENDBRANCH  12  13
ENDBRANCH  11  12
ENDBRANCH   7  11
BRANCH   4  22
HETATM   22  C4  UNL     1      26.370   7.484  48.252  1.00  0.00     0.072 A 
HETATM   23  C5  UNL     1      27.241   7.864  47.099  1.00  0.00     0.014 A 
HETATM   24  P1  UNL     1      28.538   7.565  48.229  1.00  0.00    -0.048 P 
HETATM   25  C9  UNL     1      25.793   8.103  46.672  1.00  0.00     0.018 C 
HETATM   26  C6  UNL     1      27.647   8.607  49.586  1.00  0.00     0.019 C 
HETATM   27  C7  UNL     1      26.572   8.888  48.792  1.00  0.00     0.029 C 
HETATM   28  C8  UNL     1      25.376   8.957  47.827  1.00  0.00     0.019 C 
BRANCH  26  29
HETATM   29  N2  UNL     1      27.511   9.258  50.905  1.00  0.00    -0.401 N 
HETATM   30  H6  UNL     1      26.547   9.242  51.300  1.00  0.00     0.156 HD
HETATM   31  H7  UNL     1      28.268   9.723  51.451  1.00  0.00     0.156 HD
ENDBRANCH  26  29
ENDBRANCH   4  22
TORSDOF 7
ENDMDL
MODEL 8
REMARK VINA RESULT:      -8.7      4.745      9.406
REMARK  7 active torsions:
REMARK  status: ('A' for Active; 'I' for Inactive)
REMARK    1  A    between atoms: C3_4  and  C4_5 
REMARK    2  A    between atoms: C6_8  and  N2_9 
REMARK    3  A    between atoms: C12_15  and  O1_16 
REMARK    4  A    between atoms: O1_16  and  C13_17 
REMARK    5  A    between atoms: C13_17  and  C14_18 
REMARK    6  A    between atoms: C14_18  and  C15_19 
REMARK    7  A    between atoms: C18_22  and  O2_23 
ROOT
HETATM    1  C1  UNL     1      23.010  -1.625  55.431  1.00  0.00     0.155 C 
HETATM    2  N1  UNL     1      22.964  -0.783  54.263  1.00  0.00    -0.360 N 
HETATM    3  C2  UNL     1      21.942  -0.435  53.504  1.00  0.00     0.099 A 
HETATM    4  C3  UNL     1      22.163   0.414  52.399  1.00  0.00    -0.020 A 
HETATM    5  C10 UNL     1      23.575   0.533  52.629  1.00  0.00     0.002 A 
HETATM    6  C11 UNL     1      24.613   1.225  51.971  1.00  0.00     0.051 A 
HETATM    7  C12 UNL     1      25.948   1.258  52.296  1.00  0.00     0.069 A 
HETATM    8  C21 UNL     1      26.280   0.519  53.399  1.00  0.00     0.039 A 
HETATM    9  C22 UNL     1      25.331  -0.180  54.093  1.00  0.00     0.033 A 
HETATM   10  C23 UNL     1      24.013  -0.169  53.713  1.00  0.00     0.044 A 
ENDROOT
BRANCH   7  11
HETATM   11  O1  UNL     1      26.735   2.009  51.490  1.00  0.00    -0.351 OA
BRANCH  11  12
HETATM   12  C13 UNL     1      26.560   3.204  50.851  1.00  0.00     0.180 C 
BRANCH  12  13
HETATM   13  C14 UNL     1      26.661   3.236  49.366  1.00  0.00     0.065 C 
BRANCH  13  14
HETATM   14  C15 UNL     1      26.986   4.647  48.941  1.00  0.00    -0.056 A 
HETATM   15  C16 UNL     1      25.915   5.523  49.086  1.00  0.00     0.010 A 
HETATM   16  C17 UNL     1      26.136   6.832  48.717  1.00  0.00     0.037 A 
HETATM   17  C18 UNL     1      27.347   7.275  48.227  1.00  0.00     0.065 A 
HETATM   18  C19 UNL     1      28.388   6.368  48.098  1.00  0.00     0.037 A 
HETATM   19  C20 UNL     1      28.213   5.049  48.456  1.00  0.00     0.010 A 
BRANCH  17  20
HETATM   20  O2  UNL     1      27.559   8.584  47.861  1.00  0.00    -0.361 OA
HETATM   21  H19 UNL     1      27.121   9.325  48.375  1.00  0.00     0.217 HD
ENDBRANCH  17  20
ENDBRANCH  13  14
ENDBRANCH  12  13
ENDBRANCH  11  12
ENDBRANCH   7  11
BRANCH   4  22
HETATM   22  C4  UNL     1      21.518   1.059  51.338  1.00  0.00     0.072 A 
HETATM   23  C5  UNL     1      20.159   0.870  50.745  1.00  0.00     0.014 A 
HETATM   24  P1  UNL     1      20.955   1.323  49.259  1.00  0.00    -0.048 P 
HETATM   25  C9  UNL     1      20.020   0.715  52.260  1.00  0.00     0.018 C 
HETATM   26  C6  UNL     1      21.801   2.826  50.126  1.00  0.00     0.019 C 
HETATM   27  C7  UNL     1      21.245   2.552  51.342  1.00  0.00     0.029 C 
HETATM   28  C8  UNL     1      20.675   1.998  52.660  1.00  0.00     0.019 C 
BRANCH  26  29
HETATM   29  N2  UNL     1      22.629   4.047  50.188  1.00  0.00    -0.401 N 
HETATM   30  H6  UNL     1      22.733   4.549  49.281  1.00  0.00     0.156 HD
HETATM   31  H7  UNL     1      23.109   4.431  51.031  1.00  0.00     0.156 HD
ENDBRANCH  26  29
ENDBRANCH   4  22
TORSDOF 7
ENDMDL
MODEL 9
REMARK VINA RESULT:      -8.6      3.033      5.510
REMARK  7 active torsions:
REMARK  status: ('A' for Active; 'I' for Inactive)
REMARK    1  A    between atoms: C3_4  and  C4_5 
REMARK    2  A    between atoms: C6_8  and  N2_9 
REMARK    3  A    between atoms: C12_15  and  O1_16 
REMARK    4  A    between atoms: O1_16  and  C13_17 
REMARK    5  A    between atoms: C13_17  and  C14_18 
REMARK    6  A    between atoms: C14_18  and  C15_19 
REMARK    7  A    between atoms: C18_22  and  O2_23 
ROOT
HETATM    1  C1  UNL     1      26.428   8.443  47.193  1.00  0.00     0.155 C 
HETATM    2  N1  UNL     1      25.648   7.501  47.957  1.00  0.00    -0.360 N 
HETATM    3  C2  UNL     1      24.383   7.546  48.327  1.00  0.00     0.099 A 
HETATM    4  C3  UNL     1      23.849   6.482  49.083  1.00  0.00    -0.020 A 
HETATM    5  C10 UNL     1      25.076   5.736  49.111  1.00  0.00     0.002 A 
HETATM    6  C11 UNL     1      25.450   4.499  49.674  1.00  0.00     0.051 A 
HETATM    7  C12 UNL     1      26.678   3.885  49.629  1.00  0.00     0.069 A 
HETATM    8  C21 UNL     1      27.636   4.584  48.945  1.00  0.00     0.039 A 
HETATM    9  C22 UNL     1      27.352   5.791  48.369  1.00  0.00     0.033 A 
HETATM   10  C23 UNL     1      26.101   6.348  48.452  1.00  0.00     0.044 A 
ENDROOT
BRANCH   7  11
HETATM   11  O1  UNL     1      26.766   2.689  50.258  1.00  0.00    -0.351 OA
BRANCH  11  12
HETATM   12  C13 UNL     1      26.339   2.231  51.473  1.00  0.00     0.180 C 
BRANCH  12  13
HETATM   13  C14 UNL     1      27.347   2.034  52.551  1.00  0.00     0.065 C 
BRANCH  13  14
HETATM   14  C15 UNL     1      27.583   0.553  52.716  1.00  0.00    -0.056 A 
HETATM   15  C16 UNL     1      28.800   0.256  53.322  1.00  0.00     0.010 A 
HETATM   16  C17 UNL     1      29.087  -1.079  53.507  1.00  0.00     0.037 A 
HETATM   17  C18 UNL     1      28.228  -2.087  53.120  1.00  0.00     0.065 A 
HETATM   18  C19 UNL     1      27.025  -1.747  52.520  1.00  0.00     0.037 A 
HETATM   19  C20 UNL     1      26.696  -0.425  52.315  1.00  0.00     0.010 A 
BRANCH  17  20
HETATM   20  O2  UNL     1      28.523  -3.418  53.310  1.00  0.00    -0.361 OA
HETATM   21  H19 UNL     1      27.987  -3.962  53.958  1.00  0.00     0.217 HD
ENDBRANCH  17  20
ENDBRANCH  13  14
ENDBRANCH  12  13
ENDBRANCH  11  12
ENDBRANCH   7  11
BRANCH   4  22
HETATM   22  C4  UNL     1      22.679   6.026  49.700  1.00  0.00     0.072 A 
HETATM   23  C5  UNL     1      22.338   5.810  51.139  1.00  0.00     0.014 A 
HETATM   24  P1  UNL     1      21.359   4.507  50.513  1.00  0.00    -0.048 P 
HETATM   25  C9  UNL     1      23.180   7.084  51.057  1.00  0.00     0.018 C 
HETATM   26  C6  UNL     1      20.618   5.665  49.158  1.00  0.00     0.019 C 
HETATM   27  C7  UNL     1      21.351   6.746  49.553  1.00  0.00     0.029 C 
HETATM   28  C8  UNL     1      22.373   7.798  50.020  1.00  0.00     0.019 C 
BRANCH  26  29
HETATM   29  N2  UNL     1      19.729   6.014  48.032  1.00  0.00    -0.401 N 
HETATM   30  H6  UNL     1      20.105   5.773  47.090  1.00  0.00     0.156 HD
HETATM   31  H7  UNL     1      18.795   6.474  48.095  1.00  0.00     0.156 HD
ENDBRANCH  26  29
ENDBRANCH   4  22
TORSDOF 7
ENDMDL
