MODEL 1
REMARK VINA RESULT:      -8.5      0.000      0.000
REMARK  4 active torsions:
REMARK  status: ('A' for Active; 'I' for Inactive)
REMARK    1  A    between atoms: C6_7  and  N1_8 
REMARK    2  A    between atoms: N1_8  and  N2_9 
REMARK    3  A    between atoms: N1_8  and  C16_21 
REMARK    4  A    between atoms: N2_9  and  C7_10 
ROOT
HETATM    1  N1  UNL     1      24.456   0.837  52.281  1.00  0.00    -0.259 N 
ENDROOT
BRANCH   1   2
HETATM    2  C6  UNL     1      25.900   0.898  52.320  1.00  0.00     0.158 A 
HETATM    3  C1  UNL     1      26.456   1.244  53.659  1.00  0.00     0.037 A 
HETATM    4 CL1  UNL     1      25.782   2.828  54.107  1.00  0.00    -0.087 Cl
HETATM    5  C2  UNL     1      27.266   0.576  54.464  1.00  0.00     0.021 A 
HETATM    6  C3  UNL     1      27.771  -0.711  54.002  1.00  0.00    -0.002 A 
HETATM    7  C4  UNL     1      27.369  -1.069  52.821  1.00  0.00    -0.024 A 
HETATM    8  C5  UNL     1      26.495  -0.421  51.845  1.00  0.00     0.060 A 
ENDBRANCH   1   2
BRANCH   1   9
HETATM    9  N2  UNL     1      24.080   1.616  51.168  1.00  0.00    -0.172 NA
BRANCH   9  10
HETATM   10  C7  UNL     1      24.455   2.804  50.921  1.00  0.00     0.080 A 
HETATM   11  C8  UNL     1      23.545   3.692  51.509  1.00  0.00     0.033 A 
HETATM   12  C9  UNL     1      23.440   5.083  51.428  1.00  0.00     0.005 A 
HETATM   13  C10 UNL     1      24.310   5.936  50.819  1.00  0.00     0.040 A 
HETATM   14  C11 UNL     1      25.405   5.623  50.042  1.00  0.00     0.102 A 
HETATM   15  C12 UNL     1      25.971   4.391  49.759  1.00  0.00     0.104 A 
HETATM   16  O2  UNL     1      26.055   6.687  49.440  1.00  0.00    -0.346 OA
HETATM   17  C13 UNL     1      25.579   3.139  50.188  1.00  0.00     0.073 A 
HETATM   18  O1  UNL     1      27.103   4.237  48.936  1.00  0.00    -0.346 OA
HETATM   19  C14 UNL     1      27.851   5.364  48.540  1.00  0.00     0.202 C 
HETATM   20  C15 UNL     1      26.892   6.506  48.292  1.00  0.00     0.202 C 
ENDBRANCH   9  10
ENDBRANCH   1   9
BRANCH   1  21
HETATM   21  C16 UNL     1      23.328   0.238  52.911  1.00  0.00     0.053 A 
HETATM   22  C17 UNL     1      22.013   0.390  52.459  1.00  0.00     0.031 A 
HETATM   23  C18 UNL     1      21.051  -0.273  53.150  1.00  0.00     0.002 A 
HETATM   24  C19 UNL     1      21.276  -1.073  54.247  1.00  0.00     0.000 A 
HETATM   25  C20 UNL     1      22.562  -1.225  54.693  1.00  0.00     0.002 A 
HETATM   26  C21 UNL     1      23.563  -0.563  54.011  1.00  0.00     0.031 A 
ENDBRANCH   1  21
TORSDOF 4
ENDMDL
MODEL 2
REMARK VINA RESULT:      -8.5      2.720      6.006
REMARK  4 active torsions:
REMARK  status: ('A' for Active; 'I' for Inactive)
REMARK    1  A    between atoms: C6_7  and  N1_8 
REMARK    2  A    between atoms: N1_8  and  N2_9 
REMARK    3  A    between atoms: N1_8  and  C16_21 
REMARK    4  A    between atoms: N2_9  and  C7_10 
ROOT
HETATM    1  N1  UNL     1      23.293   3.534  51.271  1.00  0.00    -0.259 N 
ENDROOT
BRANCH   1   2
HETATM    2  C6  UNL     1      24.145   4.690  51.105  1.00  0.00     0.158 A 
HETATM    3  C1  UNL     1      24.871   4.725  49.804  1.00  0.00     0.037 A 
HETATM    4 CL1  UNL     1      25.854   3.245  49.717  1.00  0.00    -0.087 Cl
HETATM    5  C2  UNL     1      24.846   5.605  48.816  1.00  0.00     0.021 A 
HETATM    6  C3  UNL     1      24.015   6.790  48.986  1.00  0.00    -0.002 A 
HETATM    7  C4  UNL     1      23.379   6.860  50.116  1.00  0.00    -0.024 A 
HETATM    8  C5  UNL     1      23.336   5.969  51.273  1.00  0.00     0.060 A 
ENDBRANCH   1   2
BRANCH   1   9
HETATM    9  N2  UNL     1      23.544   3.071  52.579  1.00  0.00    -0.172 NA
BRANCH   9  10
HETATM   10  C7  UNL     1      24.354   2.149  52.907  1.00  0.00     0.080 A 
HETATM   11  C8  UNL     1      23.649   0.942  52.991  1.00  0.00     0.033 A 
HETATM   12  C9  UNL     1      24.048  -0.324  53.428  1.00  0.00     0.005 A 
HETATM   13  C10 UNL     1      25.306  -0.709  53.782  1.00  0.00     0.040 A 
HETATM   14  C11 UNL     1      26.430   0.078  53.917  1.00  0.00     0.102 A 
HETATM   15  C12 UNL     1      26.614   1.422  53.636  1.00  0.00     0.104 A 
HETATM   16  O2  UNL     1      27.563  -0.549  54.408  1.00  0.00    -0.346 OA
HETATM   17  C13 UNL     1      25.705   2.334  53.141  1.00  0.00     0.073 A 
HETATM   18  O1  UNL     1      27.840   2.086  53.832  1.00  0.00    -0.346 OA
HETATM   19  C14 UNL     1      29.008   1.351  54.116  1.00  0.00     0.202 C 
HETATM   20  C15 UNL     1      28.632   0.190  55.009  1.00  0.00     0.202 C 
ENDBRANCH   9  10
ENDBRANCH   1   9
BRANCH   1  21
HETATM   21  C16 UNL     1      22.282   2.766  50.625  1.00  0.00     0.053 A 
HETATM   22  C17 UNL     1      22.522   1.934  49.526  1.00  0.00     0.031 A 
HETATM   23  C18 UNL     1      21.459   1.242  49.043  1.00  0.00     0.002 A 
HETATM   24  C19 UNL     1      20.181   1.301  49.551  1.00  0.00     0.000 A 
HETATM   25  C20 UNL     1      19.942   2.115  50.627  1.00  0.00     0.002 A 
HETATM   26  C21 UNL     1      21.004   2.831  51.141  1.00  0.00     0.031 A 
ENDBRANCH   1  21
TORSDOF 4
ENDMDL
MODEL 3
REMARK VINA RESULT:      -8.5      2.658      6.432
REMARK  4 active torsions:
REMARK  status: ('A' for Active; 'I' for Inactive)
REMARK    1  A    between atoms: C6_7  and  N1_8 
REMARK    2  A    between atoms: N1_8  and  N2_9 
REMARK    3  A    between atoms: N1_8  and  C16_21 
REMARK    4  A    between atoms: N2_9  and  C7_10 
ROOT
HETATM    1  N1  UNL     1      23.126   3.345  51.255  1.00  0.00    -0.259 N 
ENDROOT
BRANCH   1   2
HETATM    2  C6  UNL     1      21.716   3.084  51.063  1.00  0.00     0.158 A 
HETATM    3  C1  UNL     1      21.426   1.769  50.424  1.00  0.00     0.037 A 
HETATM    4 CL1  UNL     1      22.251   1.764  48.849  1.00  0.00    -0.087 Cl
HETATM    5  C2  UNL     1      20.736   0.726  50.856  1.00  0.00     0.021 A 
HETATM    6  C3  UNL     1      20.089   0.832  52.157  1.00  0.00    -0.002 A 
HETATM    7  C4  UNL     1      20.257   1.967  52.765  1.00  0.00    -0.024 A 
HETATM    8  C5  UNL     1      20.977   3.182  52.391  1.00  0.00     0.060 A 
ENDBRANCH   1   2
BRANCH   1   9
HETATM    9  N2  UNL     1      23.416   2.883  52.554  1.00  0.00    -0.172 NA
BRANCH   9  10
HETATM   10  C7  UNL     1      24.304   2.029  52.867  1.00  0.00     0.080 A 
HETATM   11  C8  UNL     1      23.719   0.756  52.869  1.00  0.00     0.033 A 
HETATM   12  C9  UNL     1      24.228  -0.485  53.260  1.00  0.00     0.005 A 
HETATM   13  C10 UNL     1      25.507  -0.763  53.640  1.00  0.00     0.040 A 
HETATM   14  C11 UNL     1      26.542   0.122  53.851  1.00  0.00     0.102 A 
HETATM   15  C12 UNL     1      26.601   1.489  53.640  1.00  0.00     0.104 A 
HETATM   16  O2  UNL     1      27.717  -0.417  54.351  1.00  0.00    -0.346 OA
HETATM   17  C13 UNL     1      25.622   2.333  53.157  1.00  0.00     0.073 A 
HETATM   18  O1  UNL     1      27.748   2.259  53.910  1.00  0.00    -0.346 OA
HETATM   19  C14 UNL     1      28.974   1.628  54.199  1.00  0.00     0.202 C 
HETATM   20  C15 UNL     1      28.689   0.392  55.023  1.00  0.00     0.202 C 
ENDBRANCH   9  10
ENDBRANCH   1   9
BRANCH   1  21
HETATM   21  C16 UNL     1      24.290   3.829  50.594  1.00  0.00     0.053 A 
HETATM   22  C17 UNL     1      25.215   3.003  49.945  1.00  0.00     0.031 A 
HETATM   23  C18 UNL     1      26.257   3.620  49.332  1.00  0.00     0.002 A 
HETATM   24  C19 UNL     1      26.464   4.980  49.304  1.00  0.00     0.000 A 
HETATM   25  C20 UNL     1      25.561   5.793  49.937  1.00  0.00     0.002 A 
HETATM   26  C21 UNL     1      24.490   5.195  50.570  1.00  0.00     0.031 A 
ENDBRANCH   1  21
TORSDOF 4
ENDMDL
MODEL 4
REMARK VINA RESULT:      -8.1      3.204      7.479
REMARK  4 active torsions:
REMARK  status: ('A' for Active; 'I' for Inactive)
REMARK    1  A    between atoms: C6_7  and  N1_8 
REMARK    2  A    between atoms: N1_8  and  N2_9 
REMARK    3  A    between atoms: N1_8  and  C16_21 
REMARK    4  A    between atoms: N2_9  and  C7_10 
ROOT
HETATM    1  N1  UNL     1      24.299   4.025  50.095  1.00  0.00    -0.259 N 
ENDROOT
BRANCH   1   2
HETATM    2  C6  UNL     1      22.989   3.503  49.773  1.00  0.00     0.158 A 
HETATM    3  C1  UNL     1      21.990   4.551  49.421  1.00  0.00     0.037 A 
HETATM    4 CL1  UNL     1      21.868   5.644  50.818  1.00  0.00    -0.087 Cl
HETATM    5  C2  UNL     1      21.295   4.753  48.312  1.00  0.00     0.021 A 
HETATM    6  C3  UNL     1      21.459   3.797  47.225  1.00  0.00    -0.002 A 
HETATM    7  C4  UNL     1      22.282   2.823  47.468  1.00  0.00    -0.024 A 
HETATM    8  C5  UNL     1      23.089   2.491  48.640  1.00  0.00     0.060 A 
ENDBRANCH   1   2
BRANCH   1   9
HETATM    9  N2  UNL     1      24.473   3.771  51.470  1.00  0.00    -0.172 NA
BRANCH   9  10
HETATM   10  C7  UNL     1      24.295   2.659  52.058  1.00  0.00     0.080 A 
HETATM   11  C8  UNL     1      25.485   1.924  51.997  1.00  0.00     0.033 A 
HETATM   12  C9  UNL     1      25.772   0.611  52.379  1.00  0.00     0.005 A 
HETATM   13  C10 UNL     1      24.944  -0.251  53.032  1.00  0.00     0.040 A 
HETATM   14  C11 UNL     1      23.612  -0.080  53.343  1.00  0.00     0.102 A 
HETATM   15  C12 UNL     1      22.795   1.027  53.178  1.00  0.00     0.104 A 
HETATM   16  O2  UNL     1      22.968  -1.168  53.909  1.00  0.00    -0.346 OA
HETATM   17  C13 UNL     1      23.109   2.263  52.651  1.00  0.00     0.073 A 
HETATM   18  O1  UNL     1      21.438   1.042  53.551  1.00  0.00    -0.346 OA
HETATM   19  C14 UNL     1      20.903  -0.008  54.323  1.00  0.00     0.202 C 
HETATM   20  C15 UNL     1      21.543  -1.301  53.873  1.00  0.00     0.202 C 
ENDBRANCH   9  10
ENDBRANCH   1   9
BRANCH   1  21
HETATM   21  C16 UNL     1      25.454   4.625  49.518  1.00  0.00     0.053 A 
HETATM   22  C17 UNL     1      26.664   3.950  49.321  1.00  0.00     0.031 A 
HETATM   23  C18 UNL     1      27.663   4.652  48.727  1.00  0.00     0.002 A 
HETATM   24  C19 UNL     1      27.570   5.960  48.311  1.00  0.00     0.000 A 
HETATM   25  C20 UNL     1      26.386   6.625  48.501  1.00  0.00     0.002 A 
HETATM   26  C21 UNL     1      25.352   5.937  49.102  1.00  0.00     0.031 A 
ENDBRANCH   1  21
TORSDOF 4
ENDMDL
MODEL 5
REMARK VINA RESULT:      -8.1      1.099      2.190
REMARK  4 active torsions:
REMARK  status: ('A' for Active; 'I' for Inactive)
REMARK    1  A    between atoms: C6_7  and  N1_8 
REMARK    2  A    between atoms: N1_8  and  N2_9 
REMARK    3  A    between atoms: N1_8  and  C16_21 
REMARK    4  A    between atoms: N2_9  and  C7_10 
ROOT
HETATM    1  N1  UNL     1      24.509   0.941  52.345  1.00  0.00    -0.259 N 
ENDROOT
BRANCH   1   2
HETATM    2  C6  UNL     1      25.954   0.991  52.328  1.00  0.00     0.158 A 
HETATM    3  C1  UNL     1      26.561   1.390  53.631  1.00  0.00     0.037 A 
HETATM    4 CL1  UNL     1      25.915   2.997  54.035  1.00  0.00    -0.087 Cl
HETATM    5  C2  UNL     1      27.396   0.749  54.434  1.00  0.00     0.021 A 
HETATM    6  C3  UNL     1      27.875  -0.560  54.009  1.00  0.00    -0.002 A 
HETATM    7  C4  UNL     1      27.427  -0.964  52.860  1.00  0.00    -0.024 A 
HETATM    8  C5  UNL     1      26.522  -0.351  51.889  1.00  0.00     0.060 A 
ENDBRANCH   1   2
BRANCH   1   9
HETATM    9  N2  UNL     1      24.103   1.511  51.122  1.00  0.00    -0.172 NA
BRANCH   9  10
HETATM   10  C7  UNL     1      24.328   2.700  50.734  1.00  0.00     0.080 A 
HETATM   11  C8  UNL     1      25.563   2.730  50.075  1.00  0.00     0.033 A 
HETATM   12  C9  UNL     1      26.311   3.800  49.578  1.00  0.00     0.005 A 
HETATM   13  C10 UNL     1      25.933   5.108  49.523  1.00  0.00     0.040 A 
HETATM   14  C11 UNL     1      24.801   5.689  50.056  1.00  0.00     0.102 A 
HETATM   15  C12 UNL     1      23.713   5.105  50.684  1.00  0.00     0.104 A 
HETATM   16  O2  UNL     1      24.716   7.068  49.960  1.00  0.00    -0.346 OA
HETATM   17  C13 UNL     1      23.478   3.771  50.944  1.00  0.00     0.073 A 
HETATM   18  O1  UNL     1      22.624   5.847  51.179  1.00  0.00    -0.346 OA
HETATM   19  C14 UNL     1      22.488   7.211  50.853  1.00  0.00     0.202 C 
HETATM   20  C15 UNL     1      23.866   7.831  50.823  1.00  0.00     0.202 C 
ENDBRANCH   9  10
ENDBRANCH   1   9
BRANCH   1  21
HETATM   21  C16 UNL     1      23.398   0.479  53.107  1.00  0.00     0.053 A 
HETATM   22  C17 UNL     1      22.110   1.016  53.008  1.00  0.00     0.031 A 
HETATM   23  C18 UNL     1      21.151   0.442  53.778  1.00  0.00     0.002 A 
HETATM   24  C19 UNL     1      21.353  -0.615  54.636  1.00  0.00     0.000 A 
HETATM   25  C20 UNL     1      22.614  -1.144  54.736  1.00  0.00     0.002 A 
HETATM   26  C21 UNL     1      23.611  -0.583  53.964  1.00  0.00     0.031 A 
ENDBRANCH   1  21
TORSDOF 4
ENDMDL
MODEL 6
REMARK VINA RESULT:      -7.9      2.303      3.535
REMARK  4 active torsions:
REMARK  status: ('A' for Active; 'I' for Inactive)
REMARK    1  A    between atoms: C6_7  and  N1_8 
REMARK    2  A    between atoms: N1_8  and  N2_9 
REMARK    3  A    between atoms: N1_8  and  C16_21 
REMARK    4  A    between atoms: N2_9  and  C7_10 
ROOT
HETATM    1  N1  UNL     1      23.541   2.571  51.721  1.00  0.00    -0.259 N 
ENDROOT
BRANCH   1   2
HETATM    2  C6  UNL     1      24.560   2.109  52.637  1.00  0.00     0.158 A 
HETATM    3  C1  UNL     1      24.449   0.664  52.987  1.00  0.00     0.037 A 
HETATM    4 CL1  UNL     1      22.843   0.427  53.715  1.00  0.00    -0.087 Cl
HETATM    5  C2  UNL     1      25.291  -0.341  52.810  1.00  0.00     0.021 A 
HETATM    6  C3  UNL     1      26.586  -0.043  52.212  1.00  0.00    -0.002 A 
HETATM    7  C4  UNL     1      26.782   1.206  51.916  1.00  0.00    -0.024 A 
HETATM    8  C5  UNL     1      25.944   2.393  52.071  1.00  0.00     0.060 A 
ENDBRANCH   1   2
BRANCH   1   9
HETATM    9  N2  UNL     1      23.046   3.764  52.285  1.00  0.00    -0.172 NA
BRANCH   9  10
HETATM   10  C7  UNL     1      23.068   4.916  51.748  1.00  0.00     0.080 A 
HETATM   11  C8  UNL     1      21.749   5.337  51.538  1.00  0.00     0.033 A 
HETATM   12  C9  UNL     1      21.239   6.457  50.877  1.00  0.00     0.005 A 
HETATM   13  C10 UNL     1      21.952   7.498  50.360  1.00  0.00     0.040 A 
HETATM   14  C11 UNL     1      23.321   7.621  50.253  1.00  0.00     0.102 A 
HETATM   15  C12 UNL     1      24.328   6.794  50.723  1.00  0.00     0.104 A 
HETATM   16  O2  UNL     1      23.785   8.736  49.575  1.00  0.00    -0.346 OA
HETATM   17  C13 UNL     1      24.219   5.615  51.431  1.00  0.00     0.073 A 
HETATM   18  O1  UNL     1      25.696   7.064  50.529  1.00  0.00    -0.346 OA
HETATM   19  C14 UNL     1      26.109   8.317  50.034  1.00  0.00     0.202 C 
HETATM   20  C15 UNL     1      25.099   8.777  49.007  1.00  0.00     0.202 C 
ENDBRANCH   9  10
ENDBRANCH   1   9
BRANCH   1  21
HETATM   21  C16 UNL     1      22.930   2.288  50.466  1.00  0.00     0.053 A 
HETATM   22  C17 UNL     1      23.388   2.797  49.246  1.00  0.00     0.031 A 
HETATM   23  C18 UNL     1      22.717   2.406  48.133  1.00  0.00     0.002 A 
HETATM   24  C19 UNL     1      21.635   1.556  48.120  1.00  0.00     0.000 A 
HETATM   25  C20 UNL     1      21.182   1.055  49.313  1.00  0.00     0.002 A 
HETATM   26  C21 UNL     1      21.845   1.434  50.463  1.00  0.00     0.031 A 
ENDBRANCH   1  21
TORSDOF 4
ENDMDL
MODEL 7
REMARK VINA RESULT:      -7.7      2.314      3.429
REMARK  4 active torsions:
REMARK  status: ('A' for Active; 'I' for Inactive)
REMARK    1  A    between atoms: C6_7  and  N1_8 
REMARK    2  A    between atoms: N1_8  and  N2_9 
REMARK    3  A    between atoms: N1_8  and  C16_21 
REMARK    4  A    between atoms: N2_9  and  C7_10 
ROOT
HETATM    1  N1  UNL     1      24.411   3.136  50.175  1.00  0.00    -0.259 N 
ENDROOT
BRANCH   1   2
HETATM    2  C6  UNL     1      25.444   3.121  51.187  1.00  0.00     0.158 A 
HETATM    3  C1  UNL     1      24.940   2.839  52.561  1.00  0.00     0.037 A 
HETATM    4 CL1  UNL     1      23.748   4.101  52.947  1.00  0.00    -0.087 Cl
HETATM    5  C2  UNL     1      25.222   1.861  53.407  1.00  0.00     0.021 A 
HETATM    6  C3  UNL     1      26.219   0.879  53.000  1.00  0.00    -0.002 A 
HETATM    7  C4  UNL     1      26.742   1.077  51.829  1.00  0.00    -0.024 A 
HETATM    8  C5  UNL     1      26.524   2.112  50.821  1.00  0.00     0.060 A 
ENDBRANCH   1   2
BRANCH   1   9
HETATM    9  N2  UNL     1      24.787   4.151  49.273  1.00  0.00    -0.172 NA
BRANCH   9  10
HETATM   10  C7  UNL     1      24.960   5.379  49.552  1.00  0.00     0.080 A 
HETATM   11  C8  UNL     1      23.765   5.893  50.070  1.00  0.00     0.033 A 
HETATM   12  C9  UNL     1      23.400   7.198  50.409  1.00  0.00     0.005 A 
HETATM   13  C10 UNL     1      24.204   8.298  50.416  1.00  0.00     0.040 A 
HETATM   14  C11 UNL     1      25.505   8.403  49.972  1.00  0.00     0.102 A 
HETATM   15  C12 UNL     1      26.368   7.424  49.506  1.00  0.00     0.104 A 
HETATM   16  O2  UNL     1      26.057   9.673  49.983  1.00  0.00    -0.346 OA
HETATM   17  C13 UNL     1      26.144   6.070  49.364  1.00  0.00     0.073 A 
HETATM   18  O1  UNL     1      27.683   7.697  49.084  1.00  0.00    -0.346 OA
HETATM   19  C14 UNL     1      28.259   8.959  49.330  1.00  0.00     0.202 C 
HETATM   20  C15 UNL     1      27.185  10.011  49.168  1.00  0.00     0.202 C 
ENDBRANCH   9  10
ENDBRANCH   1   9
BRANCH   1  21
HETATM   21  C16 UNL     1      23.226   2.468  49.753  1.00  0.00     0.053 A 
HETATM   22  C17 UNL     1      22.644   2.640  48.492  1.00  0.00     0.031 A 
HETATM   23  C18 UNL     1      21.533   1.905  48.230  1.00  0.00     0.002 A 
HETATM   24  C19 UNL     1      20.949   1.016  49.103  1.00  0.00     0.000 A 
HETATM   25  C20 UNL     1      21.516   0.845  50.339  1.00  0.00     0.002 A 
HETATM   26  C21 UNL     1      22.647   1.578  50.635  1.00  0.00     0.031 A 
ENDBRANCH   1  21
TORSDOF 4
ENDMDL
MODEL 8
REMARK VINA RESULT:      -7.7      3.191      6.542
REMARK  4 active torsions:
REMARK  status: ('A' for Active; 'I' for Inactive)
REMARK    1  A    between atoms: C6_7  and  N1_8 
REMARK    2  A    between atoms: N1_8  and  N2_9 
REMARK    3  A    between atoms: N1_8  and  C16_21 
REMARK    4  A    between atoms: N2_9  and  C7_10 
ROOT
HETATM    1  N1  UNL     1      24.385   3.307  50.698  1.00  0.00    -0.259 N 
ENDROOT
BRANCH   1   2
HETATM    2  C6  UNL     1      24.036   4.566  50.080  1.00  0.00     0.158 A 
HETATM    3  C1  UNL     1      23.669   5.636  51.051  1.00  0.00     0.037 A 
HETATM    4 CL1  UNL     1      22.286   5.032  51.992  1.00  0.00    -0.087 Cl
HETATM    5  C2  UNL     1      24.209   6.822  51.284  1.00  0.00     0.021 A 
HETATM    6  C3  UNL     1      25.335   7.229  50.453  1.00  0.00    -0.002 A 
HETATM    7  C4  UNL     1      25.692   6.369  49.549  1.00  0.00    -0.024 A 
HETATM    8  C5  UNL     1      25.175   5.050  49.192  1.00  0.00     0.060 A 
ENDBRANCH   1   2
BRANCH   1   9
HETATM    9  N2  UNL     1      23.724   2.322  49.937  1.00  0.00    -0.172 NA
BRANCH   9  10
HETATM   10  C7  UNL     1      22.636   1.741  50.242  1.00  0.00     0.080 A 
HETATM   11  C8  UNL     1      21.680   2.037  49.263  1.00  0.00     0.033 A 
HETATM   12  C9  UNL     1      20.315   1.748  49.198  1.00  0.00     0.005 A 
HETATM   13  C10 UNL     1      19.599   0.978  50.065  1.00  0.00     0.040 A 
HETATM   14  C11 UNL     1      20.017   0.425  51.256  1.00  0.00     0.102 A 
HETATM   15  C12 UNL     1      21.275   0.409  51.836  1.00  0.00     0.104 A 
HETATM   16  O2  UNL     1      19.048  -0.220  52.008  1.00  0.00    -0.346 OA
HETATM   17  C13 UNL     1      22.452   0.952  51.364  1.00  0.00     0.073 A 
HETATM   18  O1  UNL     1      21.542  -0.205  53.075  1.00  0.00    -0.346 OA
HETATM   19  C14 UNL     1      20.575  -1.034  53.678  1.00  0.00     0.202 C 
HETATM   20  C15 UNL     1      19.210  -0.441  53.413  1.00  0.00     0.202 C 
ENDBRANCH   9  10
ENDBRANCH   1   9
BRANCH   1  21
HETATM   21  C16 UNL     1      25.183   2.731  51.728  1.00  0.00     0.053 A 
HETATM   22  C17 UNL     1      24.869   2.809  53.089  1.00  0.00     0.031 A 
HETATM   23  C18 UNL     1      25.713   2.179  53.945  1.00  0.00     0.002 A 
HETATM   24  C19 UNL     1      26.838   1.479  53.574  1.00  0.00     0.000 A 
HETATM   25  C20 UNL     1      27.149   1.399  52.242  1.00  0.00     0.002 A 
HETATM   26  C21 UNL     1      26.309   2.030  51.346  1.00  0.00     0.031 A 
ENDBRANCH   1  21
TORSDOF 4
ENDMDL
MODEL 9
REMARK VINA RESULT:      -7.6      3.211      6.791
REMARK  4 active torsions:
REMARK  status: ('A' for Active; 'I' for Inactive)
REMARK    1  A    between atoms: C6_7  and  N1_8 
REMARK    2  A    between atoms: N1_8  and  N2_9 
REMARK    3  A    between atoms: N1_8  and  C16_21 
REMARK    4  A    between atoms: N2_9  and  C7_10 
ROOT
HETATM    1  N1  UNL     1      24.003   3.659  50.258  1.00  0.00    -0.259 N 
ENDROOT
BRANCH   1   2
HETATM    2  C6  UNL     1      24.736   4.747  50.866  1.00  0.00     0.158 A 
HETATM    3  C1  UNL     1      25.542   5.547  49.900  1.00  0.00     0.037 A 
HETATM    4 CL1  UNL     1      26.680   4.427  49.117  1.00  0.00    -0.087 Cl
HETATM    5  C2  UNL     1      25.490   6.830  49.577  1.00  0.00     0.021 A 
HETATM    6  C3  UNL     1      24.528   7.668  50.282  1.00  0.00    -0.002 A 
HETATM    7  C4  UNL     1      23.813   7.055  51.175  1.00  0.00    -0.024 A 
HETATM    8  C5  UNL     1      23.786   5.664  51.623  1.00  0.00     0.060 A 
ENDBRANCH   1   2
BRANCH   1   9
HETATM    9  N2  UNL     1      24.746   2.498  50.553  1.00  0.00    -0.172 NA
BRANCH   9  10
HETATM   10  C7  UNL     1      24.566   1.721  51.542  1.00  0.00     0.080 A 
HETATM   11  C8  UNL     1      25.776   1.082  51.836  1.00  0.00     0.033 A 
HETATM   12  C9  UNL     1      26.077   0.058  52.738  1.00  0.00     0.005 A 
HETATM   13  C10 UNL     1      25.238  -0.495  53.658  1.00  0.00     0.040 A 
HETATM   14  C11 UNL     1      23.887  -0.272  53.819  1.00  0.00     0.102 A 
HETATM   15  C12 UNL     1      23.052   0.629  53.180  1.00  0.00     0.104 A 
HETATM   16  O2  UNL     1      23.243  -1.059  54.760  1.00  0.00    -0.346 OA
HETATM   17  C13 UNL     1      23.361   1.551  52.200  1.00  0.00     0.073 A 
HETATM   18  O1  UNL     1      21.676   0.734  53.462  1.00  0.00    -0.346 OA
HETATM   19  C14 UNL     1      21.128   0.073  54.579  1.00  0.00     0.202 C 
HETATM   20  C15 UNL     1      21.826  -1.260  54.729  1.00  0.00     0.202 C 
ENDBRANCH   9  10
ENDBRANCH   1   9
BRANCH   1  21
HETATM   21  C16 UNL     1      22.806   3.354  49.548  1.00  0.00     0.053 A 
HETATM   22  C17 UNL     1      21.540   3.811  49.928  1.00  0.00     0.031 A 
HETATM   23  C18 UNL     1      20.501   3.461  49.127  1.00  0.00     0.002 A 
HETATM   24  C19 UNL     1      20.606   2.699  47.985  1.00  0.00     0.000 A 
HETATM   25  C20 UNL     1      21.845   2.249  47.610  1.00  0.00     0.002 A 
HETATM   26  C21 UNL     1      22.921   2.590  48.404  1.00  0.00     0.031 A 
ENDBRANCH   1  21
TORSDOF 4
ENDMDL
