MODEL 1
REMARK VINA RESULT:      -8.2      0.000      0.000
REMARK  2 active torsions:
REMARK  status: ('A' for Active; 'I' for Inactive)
REMARK    1  A    between atoms: C5_7  and  C6_8 
REMARK    2  A    between atoms: N4_17  and  C13_18 
ROOT
HETATM    1  C1  UNL     1      23.532   5.326  49.790  1.00  0.00     0.104 C 
HETATM    2  C2  UNL     1      24.476   5.390  50.720  1.00  0.00     0.119 C 
HETATM    3  N1  UNL     1      24.575   4.539  51.886  1.00  0.00    -0.361 N 
HETATM    4  C3  UNL     1      23.659   3.452  51.952  1.00  0.00     0.397 C 
HETATM    5  C4  UNL     1      23.122   3.159  50.598  1.00  0.00     0.177 C 
HETATM    6  N2  UNL     1      23.060   1.900  50.448  1.00  0.00    -0.230 NA
HETATM    7  C5  UNL     1      23.534   1.230  51.650  1.00  0.00     0.383 C 
HETATM    8  N4  UNL     1      24.105   2.233  52.514  1.00  0.00     0.152 N 
HETATM    9  N5  UNL     1      22.786   4.271  49.741  1.00  0.00    -0.226 NA
HETATM   10  H2  UNL     1      25.359   5.003  52.394  1.00  0.00     0.161 HD
ENDROOT
BRANCH   7  11
HETATM   11  C6  UNL     1      22.395   0.492  52.273  1.00  0.00    -0.003 A 
HETATM   12  C7  UNL     1      22.762  -0.449  53.242  1.00  0.00     0.013 A 
HETATM   13  C8  UNL     1      21.716  -1.160  53.843  1.00  0.00     0.031 A 
HETATM   14  C9  UNL     1      20.381  -0.989  53.540  1.00  0.00     0.045 A 
HETATM   15  C10 UNL     1      20.053  -0.068  52.595  1.00  0.00    -0.019 A 
HETATM   16  N3  UNL     1      19.287  -1.688  54.125  1.00  0.00    -0.329 N 
HETATM   17  C11 UNL     1      21.057   0.650  51.981  1.00  0.00     0.021 A 
HETATM   18  C12 UNL     1      18.616   0.120  52.266  1.00  0.00     0.138 C 
HETATM   19  S1  UNL     1      17.911  -1.375  53.025  1.00  0.00    -0.051 SA
HETATM   20  H10 UNL     1      19.282  -2.256  54.998  1.00  0.00     0.174 HD
ENDBRANCH   7  11
BRANCH   8  21
HETATM   21  C13 UNL     1      25.508   2.018  52.616  1.00  0.00     0.229 C 
HETATM   22  C14 UNL     1      25.867   0.763  51.851  1.00  0.00     0.036 C 
HETATM   23  C15 UNL     1      27.074   0.152  52.546  1.00  0.00     0.002 C 
HETATM   24  C16 UNL     1      26.679   0.367  53.987  1.00  0.00     0.002 C 
HETATM   25  C17 UNL     1      25.976   1.722  54.020  1.00  0.00     0.036 C 
ENDBRANCH   8  21
TORSDOF 2
ENDMDL
MODEL 2
REMARK VINA RESULT:      -8.1      3.204      5.977
REMARK  2 active torsions:
REMARK  status: ('A' for Active; 'I' for Inactive)
REMARK    1  A    between atoms: C5_7  and  C6_8 
REMARK    2  A    between atoms: N4_17  and  C13_18 
ROOT
HETATM    1  C1  UNL     1      29.339   0.529  53.973  1.00  0.00     0.104 C 
HETATM    2  C2  UNL     1      28.459  -0.162  54.687  1.00  0.00     0.119 C 
HETATM    3  N1  UNL     1      27.051   0.141  54.816  1.00  0.00    -0.361 N 
HETATM    4  C3  UNL     1      26.552   1.185  53.988  1.00  0.00     0.397 C 
HETATM    5  C4  UNL     1      27.477   1.412  52.848  1.00  0.00     0.177 C 
HETATM    6  N2  UNL     1      26.789   1.607  51.799  1.00  0.00    -0.230 NA
HETATM    7  C5  UNL     1      25.370   1.533  52.111  1.00  0.00     0.383 C 
HETATM    8  N4  UNL     1      25.243   1.057  53.466  1.00  0.00     0.152 N 
HETATM    9  N5  UNL     1      28.897   1.377  53.103  1.00  0.00    -0.226 NA
HETATM   10  H2  UNL     1      26.774  -0.552  55.545  1.00  0.00     0.161 HD
ENDROOT
BRANCH   7  11
HETATM   11  C6  UNL     1      24.757   2.878  51.896  1.00  0.00    -0.003 A 
HETATM   12  C7  UNL     1      24.013   3.366  52.977  1.00  0.00     0.013 A 
HETATM   13  C8  UNL     1      23.425   4.626  52.805  1.00  0.00     0.031 A 
HETATM   14  C9  UNL     1      23.534   5.388  51.661  1.00  0.00     0.045 A 
HETATM   15  C10 UNL     1      24.262   4.889  50.627  1.00  0.00    -0.019 A 
HETATM   16  N3  UNL     1      22.953   6.671  51.444  1.00  0.00    -0.329 N 
HETATM   17  C11 UNL     1      24.856   3.652  50.760  1.00  0.00     0.021 A 
HETATM   18  C12 UNL     1      24.382   5.708  49.393  1.00  0.00     0.138 C 
HETATM   19  S1  UNL     1      23.053   6.917  49.675  1.00  0.00    -0.051 SA
HETATM   20  H10 UNL     1      22.557   7.324  52.152  1.00  0.00     0.174 HD
ENDBRANCH   7  11
BRANCH   8  21
HETATM   21  C13 UNL     1      24.651  -0.237  53.453  1.00  0.00     0.229 C 
HETATM   22  C14 UNL     1      23.350  -0.172  52.684  1.00  0.00     0.036 C 
HETATM   23  C15 UNL     1      22.428  -1.221  53.286  1.00  0.00     0.002 C 
HETATM   24  C16 UNL     1      22.735  -1.024  54.751  1.00  0.00     0.002 C 
HETATM   25  C17 UNL     1      24.230  -0.725  54.818  1.00  0.00     0.036 C 
ENDBRANCH   8  21
TORSDOF 2
ENDMDL
MODEL 3
REMARK VINA RESULT:      -7.8      3.013      5.357
REMARK  2 active torsions:
REMARK  status: ('A' for Active; 'I' for Inactive)
REMARK    1  A    between atoms: C5_7  and  C6_8 
REMARK    2  A    between atoms: N4_17  and  C13_18 
ROOT
HETATM    1  C1  UNL     1      23.842   5.532  48.536  1.00  0.00     0.104 C 
HETATM    2  C2  UNL     1      22.881   4.698  48.159  1.00  0.00     0.119 C 
HETATM    3  N1  UNL     1      22.712   3.338  48.621  1.00  0.00    -0.361 N 
HETATM    4  C3  UNL     1      23.568   2.919  49.677  1.00  0.00     0.397 C 
HETATM    5  C4  UNL     1      24.120   4.106  50.381  1.00  0.00     0.177 C 
HETATM    6  N2  UNL     1      24.121   3.874  51.629  1.00  0.00    -0.230 NA
HETATM    7  C5  UNL     1      23.585   2.547  51.891  1.00  0.00     0.383 C 
HETATM    8  N4  UNL     1      23.046   2.039  50.654  1.00  0.00     0.152 N 
HETATM    9  N5  UNL     1      24.533   5.239  49.589  1.00  0.00    -0.226 NA
HETATM   10  H2  UNL     1      21.941   3.019  47.993  1.00  0.00     0.161 HD
ENDROOT
BRANCH   7  11
HETATM   11  C6  UNL     1      24.669   1.692  52.459  1.00  0.00    -0.003 A 
HETATM   12  C7  UNL     1      24.262   0.415  52.864  1.00  0.00     0.013 A 
HETATM   13  C8  UNL     1      25.257  -0.411  53.403  1.00  0.00     0.031 A 
HETATM   14  C9  UNL     1      26.578  -0.044  53.555  1.00  0.00     0.045 A 
HETATM   15  C10 UNL     1      26.945   1.202  53.153  1.00  0.00    -0.019 A 
HETATM   16  N3  UNL     1      27.620  -0.850  54.096  1.00  0.00    -0.329 N 
HETATM   17  C11 UNL     1      25.992   2.042  52.617  1.00  0.00     0.021 A 
HETATM   18  C12 UNL     1      28.368   1.600  53.313  1.00  0.00     0.138 C 
HETATM   19  S1  UNL     1      28.943   0.302  54.450  1.00  0.00    -0.051 SA
HETATM   20  H10 UNL     1      27.618  -1.879  54.254  1.00  0.00     0.174 HD
ENDBRANCH   7  11
BRANCH   8  21
HETATM   21  C13 UNL     1      21.633   1.931  50.769  1.00  0.00     0.229 C 
HETATM   22  C14 UNL     1      21.214   2.421  52.138  1.00  0.00     0.036 C 
HETATM   23  C15 UNL     1      19.964   1.644  52.522  1.00  0.00     0.002 C 
HETATM   24  C16 UNL     1      20.350   0.271  52.025  1.00  0.00     0.002 C 
HETATM   25  C17 UNL     1      21.128   0.509  50.733  1.00  0.00     0.036 C 
ENDBRANCH   8  21
TORSDOF 2
ENDMDL
MODEL 4
REMARK VINA RESULT:      -7.6      2.941      5.655
REMARK  2 active torsions:
REMARK  status: ('A' for Active; 'I' for Inactive)
REMARK    1  A    between atoms: C5_7  and  C6_8 
REMARK    2  A    between atoms: N4_17  and  C13_18 
ROOT
HETATM    1  C1  UNL     1      19.453   1.464  51.974  1.00  0.00     0.104 C 
HETATM    2  C2  UNL     1      19.580   2.776  51.823  1.00  0.00     0.119 C 
HETATM    3  N1  UNL     1      20.785   3.541  52.054  1.00  0.00    -0.361 N 
HETATM    4  C3  UNL     1      21.965   2.794  52.326  1.00  0.00     0.397 C 
HETATM    5  C4  UNL     1      21.798   1.395  51.853  1.00  0.00     0.177 C 
HETATM    6  N2  UNL     1      22.882   1.016  51.312  1.00  0.00    -0.230 NA
HETATM    7  C5  UNL     1      23.866   2.087  51.361  1.00  0.00     0.383 C 
HETATM    8  N4  UNL     1      23.195   3.278  51.822  1.00  0.00     0.152 N 
HETATM    9  N5  UNL     1      20.527   0.748  52.071  1.00  0.00    -0.226 NA
HETATM   10  H2  UNL     1      20.417   4.512  51.947  1.00  0.00     0.161 HD
ENDROOT
BRANCH   7  11
HETATM   11  C6  UNL     1      24.995   1.666  52.242  1.00  0.00    -0.003 A 
HETATM   12  C7  UNL     1      25.289   2.549  53.288  1.00  0.00     0.013 A 
HETATM   13  C8  UNL     1      26.345   2.182  54.131  1.00  0.00     0.031 A 
HETATM   14  C9  UNL     1      27.092   1.031  53.990  1.00  0.00     0.045 A 
HETATM   15  C10 UNL     1      26.785   0.191  52.966  1.00  0.00    -0.019 A 
HETATM   16  N3  UNL     1      28.172   0.619  54.823  1.00  0.00    -0.329 N 
HETATM   17  C11 UNL     1      25.751   0.520  52.115  1.00  0.00     0.021 A 
HETATM   18  C12 UNL     1      27.586  -1.050  52.812  1.00  0.00     0.138 C 
HETATM   19  S1  UNL     1      29.002  -0.659  53.886  1.00  0.00    -0.051 SA
HETATM   20  H10 UNL     1      28.427   0.978  55.767  1.00  0.00     0.174 HD
ENDBRANCH   7  11
BRANCH   8  21
HETATM   21  C13 UNL     1      23.157   4.231  50.767  1.00  0.00     0.229 C 
HETATM   22  C14 UNL     1      24.060   3.758  49.648  1.00  0.00     0.036 C 
HETATM   23  C15 UNL     1      24.595   5.003  48.956  1.00  0.00     0.002 C 
HETATM   24  C16 UNL     1      24.865   5.872  50.162  1.00  0.00     0.002 C 
HETATM   25  C17 UNL     1      23.733   5.575  51.141  1.00  0.00     0.036 C 
ENDBRANCH   8  21
TORSDOF 2
ENDMDL
MODEL 5
REMARK VINA RESULT:      -7.4      3.948      7.295
REMARK  2 active torsions:
REMARK  status: ('A' for Active; 'I' for Inactive)
REMARK    1  A    between atoms: C5_7  and  C6_8 
REMARK    2  A    between atoms: N4_17  and  C13_18 
ROOT
HETATM    1  C1  UNL     1      27.568   0.540  53.824  1.00  0.00     0.104 C 
HETATM    2  C2  UNL     1      26.299   0.597  54.207  1.00  0.00     0.119 C 
HETATM    3  N1  UNL     1      25.333   1.587  53.785  1.00  0.00    -0.361 N 
HETATM    4  C3  UNL     1      25.752   2.481  52.760  1.00  0.00     0.397 C 
HETATM    5  C4  UNL     1      26.912   1.907  52.031  1.00  0.00     0.177 C 
HETATM    6  N2  UNL     1      26.767   2.138  50.791  1.00  0.00    -0.230 NA
HETATM    7  C5  UNL     1      25.531   2.869  50.560  1.00  0.00     0.383 C 
HETATM    8  N4  UNL     1      24.798   2.895  51.801  1.00  0.00     0.152 N 
HETATM    9  N5  UNL     1      27.934   1.233  52.795  1.00  0.00    -0.226 NA
HETATM   10  H2  UNL     1      24.530   1.345  54.405  1.00  0.00     0.161 HD
ENDROOT
BRANCH   7  11
HETATM   11  C6  UNL     1      25.865   4.229  50.042  1.00  0.00    -0.003 A 
HETATM   12  C7  UNL     1      26.945   4.273  49.152  1.00  0.00     0.013 A 
HETATM   13  C8  UNL     1      27.283   5.536  48.650  1.00  0.00     0.031 A 
HETATM   14  C9  UNL     1      26.629   6.707  48.976  1.00  0.00     0.045 A 
HETATM   15  C10 UNL     1      25.584   6.634  49.842  1.00  0.00    -0.019 A 
HETATM   16  N3  UNL     1      26.939   8.009  48.490  1.00  0.00    -0.329 N 
HETATM   17  C11 UNL     1      25.223   5.408  50.357  1.00  0.00     0.021 A 
HETATM   18  C12 UNL     1      24.876   7.893  50.195  1.00  0.00     0.138 C 
HETATM   19  S1  UNL     1      26.079   9.120  49.597  1.00  0.00    -0.051 SA
HETATM   20  H10 UNL     1      27.533   8.264  47.673  1.00  0.00     0.174 HD
ENDBRANCH   7  11
BRANCH   8  21
HETATM   21  C13 UNL     1      23.613   2.121  51.660  1.00  0.00     0.229 C 
HETATM   22  C14 UNL     1      23.282   1.998  50.188  1.00  0.00     0.036 C 
HETATM   23  C15 UNL     1      21.768   1.885  50.084  1.00  0.00     0.002 C 
HETATM   24  C16 UNL     1      21.361   2.906  51.120  1.00  0.00     0.002 C 
HETATM   25  C17 UNL     1      22.386   2.778  52.244  1.00  0.00     0.036 C 
ENDBRANCH   8  21
TORSDOF 2
ENDMDL
MODEL 6
REMARK VINA RESULT:      -7.3      3.864      6.897
REMARK  2 active torsions:
REMARK  status: ('A' for Active; 'I' for Inactive)
REMARK    1  A    between atoms: C5_7  and  C6_8 
REMARK    2  A    between atoms: N4_17  and  C13_18 
ROOT
HETATM    1  C1  UNL     1      20.393   2.552  50.245  1.00  0.00     0.104 C 
HETATM    2  C2  UNL     1      21.027   1.433  50.573  1.00  0.00     0.119 C 
HETATM    3  N1  UNL     1      22.454   1.215  50.493  1.00  0.00    -0.361 N 
HETATM    4  C3  UNL     1      23.249   2.351  50.172  1.00  0.00     0.397 C 
HETATM    5  C4  UNL     1      22.487   3.596  50.449  1.00  0.00     0.177 C 
HETATM    6  N2  UNL     1      23.271   4.443  50.977  1.00  0.00    -0.230 NA
HETATM    7  C5  UNL     1      24.604   3.876  51.109  1.00  0.00     0.383 C 
HETATM    8  N4  UNL     1      24.519   2.474  50.783  1.00  0.00     0.152 N 
HETATM    9  N5  UNL     1      21.088   3.633  50.098  1.00  0.00    -0.226 NA
HETATM   10  H2  UNL     1      22.503   0.196  50.712  1.00  0.00     0.161 HD
ENDROOT
BRANCH   7  11
HETATM   11  C6  UNL     1      25.540   4.633  50.225  1.00  0.00    -0.003 A 
HETATM   12  C7  UNL     1      26.560   3.864  49.651  1.00  0.00     0.013 A 
HETATM   13  C8  UNL     1      27.455   4.547  48.817  1.00  0.00     0.031 A 
HETATM   14  C9  UNL     1      27.390   5.897  48.541  1.00  0.00     0.045 A 
HETATM   15  C10 UNL     1      26.390   6.618  49.112  1.00  0.00    -0.019 A 
HETATM   16  N3  UNL     1      28.277   6.630  47.702  1.00  0.00    -0.329 N 
HETATM   17  C11 UNL     1      25.489   5.980  49.939  1.00  0.00     0.021 A 
HETATM   18  C12 UNL     1      26.315   8.073  48.816  1.00  0.00     0.138 C 
HETATM   19  S1  UNL     1      27.968   8.345  48.106  1.00  0.00    -0.051 SA
HETATM   20  H10 UNL     1      28.957   6.257  47.006  1.00  0.00     0.174 HD
ENDBRANCH   7  11
BRANCH   8  21
HETATM   21  C13 UNL     1      24.775   1.706  51.952  1.00  0.00     0.229 C 
HETATM   22  C14 UNL     1      25.143   2.643  53.082  1.00  0.00     0.036 C 
HETATM   23  C15 UNL     1      26.093   1.882  53.995  1.00  0.00     0.002 C 
HETATM   24  C16 UNL     1      26.940   1.181  52.960  1.00  0.00     0.002 C 
HETATM   25  C17 UNL     1      25.980   0.804  51.834  1.00  0.00     0.036 C 
ENDBRANCH   8  21
TORSDOF 2
ENDMDL
MODEL 7
REMARK VINA RESULT:      -7.3      6.472      9.016
REMARK  2 active torsions:
REMARK  status: ('A' for Active; 'I' for Inactive)
REMARK    1  A    between atoms: C5_7  and  C6_8 
REMARK    2  A    between atoms: N4_17  and  C13_18 
ROOT
HETATM    1  C1  UNL     1      28.934  12.067  48.571  1.00  0.00     0.104 C 
HETATM    2  C2  UNL     1      30.071  11.619  49.087  1.00  0.00     0.119 C 
HETATM    3  N1  UNL     1      30.321  10.267  49.537  1.00  0.00    -0.361 N 
HETATM    4  C3  UNL     1      29.301   9.313  49.264  1.00  0.00     0.397 C 
HETATM    5  C4  UNL     1      28.422   9.810  48.174  1.00  0.00     0.177 C 
HETATM    6  N2  UNL     1      28.147   8.842  47.400  1.00  0.00    -0.230 NA
HETATM    7  C5  UNL     1      28.793   7.626  47.872  1.00  0.00     0.383 C 
HETATM    8  N4  UNL     1      29.690   7.992  48.939  1.00  0.00     0.152 N 
HETATM    9  N5  UNL     1      28.054  11.205  48.175  1.00  0.00    -0.226 NA
HETATM   10  H2  UNL     1      31.261  10.384  49.974  1.00  0.00     0.161 HD
ENDROOT
BRANCH   7  11
HETATM   11  C6  UNL     1      27.741   6.652  48.290  1.00  0.00    -0.003 A 
HETATM   12  C7  UNL     1      28.205   5.355  48.540  1.00  0.00     0.013 A 
HETATM   13  C8  UNL     1      27.241   4.418  48.933  1.00  0.00     0.031 A 
HETATM   14  C9  UNL     1      25.898   4.695  49.082  1.00  0.00     0.045 A 
HETATM   15  C10 UNL     1      25.476   5.963  48.833  1.00  0.00    -0.019 A 
HETATM   16  N3  UNL     1      24.886   3.775  49.479  1.00  0.00    -0.329 N 
HETATM   17  C11 UNL     1      26.396   6.912  48.444  1.00  0.00     0.021 A 
HETATM   18  C12 UNL     1      24.030   6.266  48.994  1.00  0.00     0.138 C 
HETATM   19  S1  UNL     1      23.349   4.580  49.045  1.00  0.00    -0.051 SA
HETATM   20  H10 UNL     1      25.007   2.840  49.923  1.00  0.00     0.174 HD
ENDBRANCH   7  11
BRANCH   8  21
HETATM   21  C13 UNL     1      31.031   7.774  48.518  1.00  0.00     0.229 C 
HETATM   22  C14 UNL     1      31.018   7.223  47.109  1.00  0.00     0.036 C 
HETATM   23  C15 UNL     1      32.243   6.333  46.971  1.00  0.00     0.002 C 
HETATM   24  C16 UNL     1      32.216   5.646  48.315  1.00  0.00     0.002 C 
HETATM   25  C17 UNL     1      31.751   6.708  49.308  1.00  0.00     0.036 C 
ENDBRANCH   8  21
TORSDOF 2
ENDMDL
MODEL 8
REMARK VINA RESULT:      -7.2      4.647      8.361
REMARK  2 active torsions:
REMARK  status: ('A' for Active; 'I' for Inactive)
REMARK    1  A    between atoms: C5_7  and  C6_8 
REMARK    2  A    between atoms: N4_17  and  C13_18 
ROOT
HETATM    1  C1  UNL     1      26.089   1.217  53.153  1.00  0.00     0.104 C 
HETATM    2  C2  UNL     1      24.848   1.685  53.209  1.00  0.00     0.119 C 
HETATM    3  N1  UNL     1      24.360   2.869  52.536  1.00  0.00    -0.361 N 
HETATM    4  C3  UNL     1      25.258   3.493  51.627  1.00  0.00     0.397 C 
HETATM    5  C4  UNL     1      26.317   2.533  51.221  1.00  0.00     0.177 C 
HETATM    6  N2  UNL     1      26.537   2.672  49.979  1.00  0.00    -0.230 NA
HETATM    7  C5  UNL     1      25.677   3.709  49.431  1.00  0.00     0.383 C 
HETATM    8  N4  UNL     1      24.725   4.073  50.451  1.00  0.00     0.152 N 
HETATM    9  N5  UNL     1      26.876   1.667  52.230  1.00  0.00    -0.226 NA
HETATM   10  H2  UNL     1      23.402   2.937  52.945  1.00  0.00     0.161 HD
ENDROOT
BRANCH   7  11
HETATM   11  C6  UNL     1      26.525   4.851  48.979  1.00  0.00    -0.003 A 
HETATM   12  C7  UNL     1      25.850   6.071  48.844  1.00  0.00     0.013 A 
HETATM   13  C8  UNL     1      26.619   7.161  48.420  1.00  0.00     0.031 A 
HETATM   14  C9  UNL     1      27.967   7.101  48.133  1.00  0.00     0.045 A 
HETATM   15  C10 UNL     1      28.597   5.905  48.273  1.00  0.00    -0.019 A 
HETATM   16  N3  UNL     1      28.786   8.183  47.700  1.00  0.00    -0.329 N 
HETATM   17  C11 UNL     1      27.872   4.809  48.689  1.00  0.00     0.021 A 
HETATM   18  C12 UNL     1      30.050   5.837  47.967  1.00  0.00     0.138 C 
HETATM   19  S1  UNL     1      30.266   7.403  47.067  1.00  0.00    -0.051 SA
HETATM   20  H10 UNL     1      28.576   9.203  47.740  1.00  0.00     0.174 HD
ENDBRANCH   7  11
BRANCH   8  21
HETATM   21  C13 UNL     1      23.423   3.674  50.040  1.00  0.00     0.229 C 
HETATM   22  C14 UNL     1      23.539   2.865  48.766  1.00  0.00     0.036 C 
HETATM   23  C15 UNL     1      22.261   3.100  47.976  1.00  0.00     0.002 C 
HETATM   24  C16 UNL     1      22.082   4.581  48.209  1.00  0.00     0.002 C 
HETATM   25  C17 UNL     1      22.530   4.826  49.647  1.00  0.00     0.036 C 
ENDBRANCH   8  21
TORSDOF 2
ENDMDL
MODEL 9
REMARK VINA RESULT:      -7.1      3.019      4.186
REMARK  2 active torsions:
REMARK  status: ('A' for Active; 'I' for Inactive)
REMARK    1  A    between atoms: C5_7  and  C6_8 
REMARK    2  A    between atoms: N4_17  and  C13_18 
ROOT
HETATM    1  C1  UNL     1      20.698   4.307  50.061  1.00  0.00     0.104 C 
HETATM    2  C2  UNL     1      21.257   4.306  51.264  1.00  0.00     0.119 C 
HETATM    3  N1  UNL     1      20.874   3.461  52.374  1.00  0.00    -0.361 N 
HETATM    4  C3  UNL     1      19.912   2.451  52.095  1.00  0.00     0.397 C 
HETATM    5  C4  UNL     1      19.864   2.187  50.633  1.00  0.00     0.177 C 
HETATM    6  N2  UNL     1      19.761   0.936  50.448  1.00  0.00    -0.230 NA
HETATM    7  C5  UNL     1      19.729   0.243  51.727  1.00  0.00     0.383 C 
HETATM    8  N4  UNL     1      20.036   1.206  52.755  1.00  0.00     0.152 N 
HETATM    9  N5  UNL     1      19.937   3.313  49.733  1.00  0.00    -0.226 NA
HETATM   10  H2  UNL     1      21.463   3.867  53.134  1.00  0.00     0.161 HD
ENDROOT
BRANCH   7  11
HETATM   11  C6  UNL     1      18.391  -0.397  51.897  1.00  0.00    -0.003 A 
HETATM   12  C7  UNL     1      18.263  -1.204  53.035  1.00  0.00     0.013 A 
HETATM   13  C8  UNL     1      17.018  -1.819  53.220  1.00  0.00     0.031 A 
HETATM   14  C9  UNL     1      15.943  -1.680  52.367  1.00  0.00     0.045 A 
HETATM   15  C10 UNL     1      16.096  -0.891  51.271  1.00  0.00    -0.019 A 
HETATM   16  N3  UNL     1      14.663  -2.286  52.518  1.00  0.00    -0.329 N 
HETATM   17  C11 UNL     1      17.307  -0.269  51.055  1.00  0.00     0.021 A 
HETATM   18  C12 UNL     1      14.940  -0.737  50.350  1.00  0.00     0.138 C 
HETATM   19  S1  UNL     1      13.890  -2.112  50.914  1.00  0.00    -0.051 SA
HETATM   20  H10 UNL     1      14.261  -2.733  53.369  1.00  0.00     0.174 HD
ENDBRANCH   7  11
BRANCH   8  21
HETATM   21  C13 UNL     1      21.292   0.882  53.339  1.00  0.00     0.229 C 
HETATM   22  C14 UNL     1      21.990  -0.137  52.464  1.00  0.00     0.036 C 
HETATM   23  C15 UNL     1      22.853  -0.990  53.381  1.00  0.00     0.002 C 
HETATM   24  C16 UNL     1      21.908  -1.152  54.548  1.00  0.00     0.002 C 
HETATM   25  C17 UNL     1      21.181   0.184  54.673  1.00  0.00     0.036 C 
ENDBRANCH   8  21
TORSDOF 2
ENDMDL
