MODEL 1
REMARK VINA RESULT:     -10.0      0.000      0.000
REMARK  4 active torsions:
REMARK  status: ('A' for Active; 'I' for Inactive)
REMARK    1  A    between atoms: P1_11  and  C9_12 
REMARK    2  A    between atoms: C9_12  and  N2_13 
REMARK    3  A    between atoms: N2_13  and  C10_14 
REMARK    4  A    between atoms: C13_17  and  C14_18 
ROOT
HETATM    1  F1  UNL     1      30.491   5.179  47.706  1.00  0.00    -0.206 F 
HETATM    2  C1  UNL     1      29.273   5.648  48.064  1.00  0.00     0.117 A 
HETATM    3  C2  UNL     1      28.982   6.983  47.947  1.00  0.00     0.045 A 
HETATM    4  C3  UNL     1      27.740   7.458  48.311  1.00  0.00     0.041 A 
HETATM    5  C4  UNL     1      26.739   6.636  48.804  1.00  0.00     0.086 A 
HETATM    6  C5  UNL     1      27.027   5.269  48.927  1.00  0.00    -0.004 A 
HETATM    7  C6  UNL     1      28.272   4.806  48.560  1.00  0.00     0.054 A 
HETATM    8  C7  UNL     1      26.155   4.158  49.420  1.00  0.00     0.161 C 
HETATM    9  N1  UNL     1      25.294   4.706  50.465  1.00  0.00    -0.380 N 
HETATM   10  C8  UNL     1      24.247   5.658  50.464  1.00  0.00     0.111 A 
HETATM   11  P1  UNL     1      22.826   5.152  51.293  1.00  0.00     0.102 P 
HETATM   12  N3  UNL     1      21.758   6.535  51.139  1.00  0.00    -0.246 NA
HETATM   13  C21 UNL     1      22.266   7.513  50.487  1.00  0.00     0.235 A 
HETATM   14  N4  UNL     1      23.477   7.826  49.827  1.00  0.00    -0.216 NA
HETATM   15  C22 UNL     1      24.478   6.971  49.778  1.00  0.00     0.200 A 
HETATM   16  O1  UNL     1      25.610   7.452  49.071  1.00  0.00    -0.289 OA
HETATM   17  H6  UNL     1      25.543   4.363  51.400  1.00  0.00     0.160 HD
ENDROOT
BRANCH  11  18
HETATM   18  C9  UNL     1      23.365   4.354  52.576  1.00  0.00     0.648 C 
BRANCH  18  19
HETATM   19  N2  UNL     1      22.752   2.994  52.670  1.00  0.00    -0.082 N 
HETATM   20  H8  UNL     1      22.185   2.029  52.727  1.00  0.00     0.267 HD
BRANCH  19  21
HETATM   21  C10 UNL     1      23.883   2.014  52.854  1.00  0.00     0.100 A 
HETATM   22  C11 UNL     1      23.493   0.726  52.974  1.00  0.00     0.032 A 
HETATM   23  C12 UNL     1      24.575  -0.269  53.154  1.00  0.00     0.010 A 
HETATM   24  C13 UNL     1      25.646   0.540  53.129  1.00  0.00    -0.042 A 
HETATM   25  C20 UNL     1      25.391   1.984  52.943  1.00  0.00     0.103 A 
BRANCH  24  26
HETATM   26  C14 UNL     1      27.043   0.130  53.264  1.00  0.00    -0.030 A 
HETATM   27  C15 UNL     1      27.584  -1.121  53.062  1.00  0.00     0.012 A 
HETATM   28  C16 UNL     1      28.916  -1.433  53.209  1.00  0.00     0.001 A 
HETATM   29  C17 UNL     1      29.799  -0.445  53.585  1.00  0.00     0.000 A 
HETATM   30  C18 UNL     1      29.289   0.818  53.796  1.00  0.00     0.001 A 
HETATM   31  C19 UNL     1      27.954   1.111  53.644  1.00  0.00     0.012 A 
ENDBRANCH  24  26
ENDBRANCH  19  21
ENDBRANCH  18  19
ENDBRANCH  11  18
TORSDOF 4
ENDMDL
MODEL 2
REMARK VINA RESULT:      -9.9      2.778      7.320
REMARK  4 active torsions:
REMARK  status: ('A' for Active; 'I' for Inactive)
REMARK    1  A    between atoms: P1_11  and  C9_12 
REMARK    2  A    between atoms: C9_12  and  N2_13 
REMARK    3  A    between atoms: N2_13  and  C10_14 
REMARK    4  A    between atoms: C13_17  and  C14_18 
ROOT
HETATM    1  F1  UNL     1      30.884  -0.817  53.788  1.00  0.00    -0.206 F 
HETATM    2  C1  UNL     1      29.557  -0.662  53.570  1.00  0.00     0.117 A 
HETATM    3  C2  UNL     1      28.785  -1.733  53.201  1.00  0.00     0.045 A 
HETATM    4  C3  UNL     1      27.433  -1.572  52.981  1.00  0.00     0.041 A 
HETATM    5  C4  UNL     1      26.793  -0.350  53.118  1.00  0.00     0.086 A 
HETATM    6  C5  UNL     1      27.575   0.751  53.495  1.00  0.00    -0.004 A 
HETATM    7  C6  UNL     1      28.924   0.578  53.712  1.00  0.00     0.054 A 
HETATM    8  C7  UNL     1      27.164   2.172  53.718  1.00  0.00     0.161 C 
HETATM    9  N1  UNL     1      26.087   2.470  52.778  1.00  0.00    -0.380 N 
HETATM   10  C8  UNL     1      24.757   2.005  52.640  1.00  0.00     0.111 A 
HETATM   11  P1  UNL     1      23.585   3.251  52.452  1.00  0.00     0.102 P 
HETATM   12  N3  UNL     1      22.081   2.364  52.280  1.00  0.00    -0.246 NA
HETATM   13  C21 UNL     1      22.220   1.093  52.338  1.00  0.00     0.235 A 
HETATM   14  N4  UNL     1      23.261   0.150  52.507  1.00  0.00    -0.216 NA
HETATM   15  C22 UNL     1      24.514   0.526  52.659  1.00  0.00     0.200 A 
HETATM   16  O1  UNL     1      25.421  -0.553  52.819  1.00  0.00    -0.289 OA
HETATM   17  H6  UNL     1      26.381   3.111  52.033  1.00  0.00     0.160 HD
ENDROOT
BRANCH  11  18
HETATM   18  C9  UNL     1      24.297   4.342  51.515  1.00  0.00     0.648 C 
BRANCH  18  19
HETATM   19  N2  UNL     1      24.422   3.854  50.107  1.00  0.00    -0.082 N 
HETATM   20  H8  UNL     1      24.429   3.407  49.079  1.00  0.00     0.267 HD
BRANCH  19  21
HETATM   21  C10 UNL     1      25.485   4.692  49.444  1.00  0.00     0.100 A 
HETATM   22  C11 UNL     1      25.047   5.882  48.977  1.00  0.00     0.032 A 
HETATM   23  C12 UNL     1      26.061   6.738  48.320  1.00  0.00     0.010 A 
HETATM   24  C13 UNL     1      27.144   5.953  48.437  1.00  0.00    -0.042 A 
HETATM   25  C20 UNL     1      26.959   4.653  49.117  1.00  0.00     0.103 A 
BRANCH  24  26
HETATM   26  C14 UNL     1      28.492   6.262  47.962  1.00  0.00    -0.030 A 
HETATM   27  C15 UNL     1      28.920   7.391  47.298  1.00  0.00     0.012 A 
HETATM   28  C16 UNL     1      30.212   7.612  46.879  1.00  0.00     0.001 A 
HETATM   29  C17 UNL     1      31.171   6.654  47.127  1.00  0.00     0.000 A 
HETATM   30  C18 UNL     1      30.774   5.512  47.789  1.00  0.00     0.001 A 
HETATM   31  C19 UNL     1      29.478   5.309  48.200  1.00  0.00     0.012 A 
ENDBRANCH  24  26
ENDBRANCH  19  21
ENDBRANCH  18  19
ENDBRANCH  11  18
TORSDOF 4
ENDMDL
MODEL 3
REMARK VINA RESULT:      -9.2      2.618      3.546
REMARK  4 active torsions:
REMARK  status: ('A' for Active; 'I' for Inactive)
REMARK    1  A    between atoms: P1_11  and  C9_12 
REMARK    2  A    between atoms: C9_12  and  N2_13 
REMARK    3  A    between atoms: N2_13  and  C10_14 
REMARK    4  A    between atoms: C13_17  and  C14_18 
ROOT
HETATM    1  F1  UNL     1      27.167   5.181  48.720  1.00  0.00    -0.206 F 
HETATM    2  C1  UNL     1      25.836   5.140  48.959  1.00  0.00     0.117 A 
HETATM    3  C2  UNL     1      25.059   6.250  48.746  1.00  0.00     0.045 A 
HETATM    4  C3  UNL     1      23.703   6.207  48.989  1.00  0.00     0.041 A 
HETATM    5  C4  UNL     1      23.061   5.067  49.449  1.00  0.00     0.086 A 
HETATM    6  C5  UNL     1      23.847   3.927  49.669  1.00  0.00    -0.004 A 
HETATM    7  C6  UNL     1      25.202   3.983  49.424  1.00  0.00     0.054 A 
HETATM    8  C7  UNL     1      23.436   2.573  50.156  1.00  0.00     0.161 C 
HETATM    9  N1  UNL     1      22.339   2.761  51.101  1.00  0.00    -0.380 N 
HETATM   10  C8  UNL     1      21.008   3.224  50.969  1.00  0.00     0.111 A 
HETATM   11  P1  UNL     1      19.828   2.218  51.715  1.00  0.00     0.102 P 
HETATM   12  N3  UNL     1      18.324   3.066  51.404  1.00  0.00    -0.246 NA
HETATM   13  C21 UNL     1      18.468   4.151  50.739  1.00  0.00     0.235 A 
HETATM   14  N4  UNL     1      19.516   4.900  50.155  1.00  0.00    -0.216 NA
HETATM   15  C22 UNL     1      20.770   4.507  50.230  1.00  0.00     0.200 A 
HETATM   16  O1  UNL     1      21.684   5.379  49.585  1.00  0.00    -0.289 OA
HETATM   17  H6  UNL     1      22.615   2.564  52.069  1.00  0.00     0.160 HD
ENDROOT
BRANCH  11  18
HETATM   18  C9  UNL     1      20.516   1.724  53.077  1.00  0.00     0.648 C 
BRANCH  18  19
HETATM   19  N2  UNL     1      20.627   0.234  53.124  1.00  0.00    -0.082 N 
HETATM   20  H8  UNL     1      20.594  -0.886  53.124  1.00  0.00     0.267 HD
BRANCH  19  21
HETATM   21  C10 UNL     1      22.039  -0.088  53.542  1.00  0.00     0.100 A 
HETATM   22  C11 UNL     1      22.133  -0.925  54.598  1.00  0.00     0.032 A 
HETATM   23  C12 UNL     1      23.504  -1.269  55.039  1.00  0.00     0.010 A 
HETATM   24  C13 UNL     1      24.221  -0.563  54.151  1.00  0.00    -0.042 A 
HETATM   25  C20 UNL     1      23.465   0.218  53.148  1.00  0.00     0.103 A 
BRANCH  24  26
HETATM   26  C14 UNL     1      25.680  -0.495  54.076  1.00  0.00    -0.030 A 
HETATM   27  C15 UNL     1      26.538   0.232  54.870  1.00  0.00     0.012 A 
HETATM   28  C16 UNL     1      27.908   0.246  54.739  1.00  0.00     0.001 A 
HETATM   29  C17 UNL     1      28.494  -0.513  53.750  1.00  0.00     0.000 A 
HETATM   30  C18 UNL     1      27.662  -1.253  52.937  1.00  0.00     0.001 A 
HETATM   31  C19 UNL     1      26.295  -1.253  53.083  1.00  0.00     0.012 A 
ENDBRANCH  24  26
ENDBRANCH  19  21
ENDBRANCH  18  19
ENDBRANCH  11  18
TORSDOF 4
ENDMDL
MODEL 4
REMARK VINA RESULT:      -9.2      3.095      7.077
REMARK  4 active torsions:
REMARK  status: ('A' for Active; 'I' for Inactive)
REMARK    1  A    between atoms: P1_11  and  C9_12 
REMARK    2  A    between atoms: C9_12  and  N2_13 
REMARK    3  A    between atoms: N2_13  and  C10_14 
REMARK    4  A    between atoms: C13_17  and  C14_18 
ROOT
HETATM    1  F1  UNL     1      29.505   1.977  53.687  1.00  0.00    -0.206 F 
HETATM    2  C1  UNL     1      28.290   1.398  53.833  1.00  0.00     0.117 A 
HETATM    3  C2  UNL     1      28.189   0.089  54.228  1.00  0.00     0.045 A 
HETATM    4  C3  UNL     1      26.951  -0.499  54.378  1.00  0.00     0.041 A 
HETATM    5  C4  UNL     1      25.767   0.182  54.144  1.00  0.00     0.086 A 
HETATM    6  C5  UNL     1      25.860   1.522  53.740  1.00  0.00    -0.004 A 
HETATM    7  C6  UNL     1      27.103   2.098  53.593  1.00  0.00     0.054 A 
HETATM    8  C7  UNL     1      24.767   2.493  53.422  1.00  0.00     0.161 C 
HETATM    9  N1  UNL     1      23.671   1.739  52.820  1.00  0.00    -0.380 N 
HETATM   10  C8  UNL     1      22.783   0.751  53.309  1.00  0.00     0.111 A 
HETATM   11  P1  UNL     1      21.126   1.045  52.950  1.00  0.00     0.102 P 
HETATM   12  N3  UNL     1      20.312  -0.343  53.650  1.00  0.00    -0.246 NA
HETATM   13  C21 UNL     1      21.102  -1.173  54.221  1.00  0.00     0.235 A 
HETATM   14  N4  UNL     1      22.487  -1.314  54.468  1.00  0.00    -0.216 NA
HETATM   15  C22 UNL     1      23.357  -0.417  54.053  1.00  0.00     0.200 A 
HETATM   16  O1  UNL     1      24.701  -0.720  54.393  1.00  0.00    -0.289 OA
HETATM   17  H6  UNL     1      23.564   1.933  51.818  1.00  0.00     0.160 HD
ENDROOT
BRANCH  11  18
HETATM   18  C9  UNL     1      21.131   1.644  51.462  1.00  0.00     0.648 C 
BRANCH  18  19
HETATM   19  N2  UNL     1      21.199   3.137  51.474  1.00  0.00    -0.082 N 
HETATM   20  H8  UNL     1      21.151   4.254  51.554  1.00  0.00     0.267 HD
BRANCH  19  21
HETATM   21  C10 UNL     1      22.393   3.530  50.643  1.00  0.00     0.100 A 
HETATM   22  C11 UNL     1      22.648   2.704  49.605  1.00  0.00     0.032 A 
HETATM   23  C12 UNL     1      23.813   3.056  48.761  1.00  0.00     0.010 A 
HETATM   24  C13 UNL     1      24.231   4.167  49.387  1.00  0.00    -0.042 A 
HETATM   25  C20 UNL     1      23.455   4.602  50.569  1.00  0.00     0.103 A 
BRANCH  24  26
HETATM   26  C14 UNL     1      25.377   4.993  49.011  1.00  0.00    -0.030 A 
HETATM   27  C15 UNL     1      25.380   6.313  48.617  1.00  0.00     0.012 A 
HETATM   28  C16 UNL     1      26.505   7.028  48.277  1.00  0.00     0.001 A 
HETATM   29  C17 UNL     1      27.735   6.407  48.324  1.00  0.00     0.000 A 
HETATM   30  C18 UNL     1      27.766   5.085  48.714  1.00  0.00     0.001 A 
HETATM   31  C19 UNL     1      26.630   4.387  49.051  1.00  0.00     0.012 A 
ENDBRANCH  24  26
ENDBRANCH  19  21
ENDBRANCH  18  19
ENDBRANCH  11  18
TORSDOF 4
ENDMDL
MODEL 5
REMARK VINA RESULT:      -9.0      4.746      8.725
REMARK  4 active torsions:
REMARK  status: ('A' for Active; 'I' for Inactive)
REMARK    1  A    between atoms: P1_11  and  C9_12 
REMARK    2  A    between atoms: C9_12  and  N2_13 
REMARK    3  A    between atoms: N2_13  and  C10_14 
REMARK    4  A    between atoms: C13_17  and  C14_18 
ROOT
HETATM    1  F1  UNL     1      16.891   1.339  49.287  1.00  0.00    -0.206 F 
HETATM    2  C1  UNL     1      17.686   0.872  50.278  1.00  0.00     0.117 A 
HETATM    3  C2  UNL     1      17.145   0.485  51.477  1.00  0.00     0.045 A 
HETATM    4  C3  UNL     1      17.956   0.008  52.484  1.00  0.00     0.041 A 
HETATM    5  C4  UNL     1      19.331  -0.104  52.348  1.00  0.00     0.086 A 
HETATM    6  C5  UNL     1      19.893   0.290  51.125  1.00  0.00    -0.004 A 
HETATM    7  C6  UNL     1      19.072   0.764  50.126  1.00  0.00     0.054 A 
HETATM    8  C7  UNL     1      21.326   0.279  50.695  1.00  0.00     0.161 C 
HETATM    9  N1  UNL     1      22.140   0.567  51.873  1.00  0.00    -0.380 N 
HETATM   10  C8  UNL     1      22.395  -0.133  53.076  1.00  0.00     0.111 A 
HETATM   11  P1  UNL     1      24.061  -0.250  53.491  1.00  0.00     0.102 P 
HETATM   12  N3  UNL     1      24.035  -1.126  55.011  1.00  0.00    -0.246 NA
HETATM   13  C21 UNL     1      22.860  -1.444  55.406  1.00  0.00     0.235 A 
HETATM   14  N4  UNL     1      21.523  -1.297  54.969  1.00  0.00    -0.216 NA
HETATM   15  C22 UNL     1      21.228  -0.672  53.848  1.00  0.00     0.200 A 
HETATM   16  O1  UNL     1      19.838  -0.624  53.566  1.00  0.00    -0.289 OA
HETATM   17  H6  UNL     1      22.571   1.498  51.835  1.00  0.00     0.160 HD
ENDROOT
BRANCH  11  18
HETATM   18  C9  UNL     1      24.682   1.173  53.087  1.00  0.00     0.648 C 
BRANCH  18  19
HETATM   19  N2  UNL     1      25.814   1.021  52.122  1.00  0.00    -0.082 N 
HETATM   20  H8  UNL     1      26.687   0.801  51.454  1.00  0.00     0.267 HD
BRANCH  19  21
HETATM   21  C10 UNL     1      25.795   2.234  51.227  1.00  0.00     0.100 A 
HETATM   22  C11 UNL     1      24.559   2.643  50.866  1.00  0.00     0.032 A 
HETATM   23  C12 UNL     1      24.497   3.834  49.988  1.00  0.00     0.010 A 
HETATM   24  C13 UNL     1      25.806   4.100  49.858  1.00  0.00    -0.042 A 
HETATM   25  C20 UNL     1      26.746   3.207  50.571  1.00  0.00     0.103 A 
BRANCH  24  26
HETATM   26  C14 UNL     1      26.394   5.192  49.084  1.00  0.00    -0.030 A 
HETATM   27  C15 UNL     1      25.779   6.338  48.630  1.00  0.00     0.012 A 
HETATM   28  C16 UNL     1      26.401   7.327  47.903  1.00  0.00     0.001 A 
HETATM   29  C17 UNL     1      27.736   7.191  47.589  1.00  0.00     0.000 A 
HETATM   30  C18 UNL     1      28.380   6.054  48.029  1.00  0.00     0.001 A 
HETATM   31  C19 UNL     1      27.742   5.077  48.755  1.00  0.00     0.012 A 
ENDBRANCH  24  26
ENDBRANCH  19  21
ENDBRANCH  18  19
ENDBRANCH  11  18
TORSDOF 4
ENDMDL
MODEL 6
REMARK VINA RESULT:      -9.0      3.897      8.627
REMARK  4 active torsions:
REMARK  status: ('A' for Active; 'I' for Inactive)
REMARK    1  A    between atoms: P1_11  and  C9_12 
REMARK    2  A    between atoms: C9_12  and  N2_13 
REMARK    3  A    between atoms: N2_13  and  C10_14 
REMARK    4  A    between atoms: C13_17  and  C14_18 
ROOT
HETATM    1  F1  UNL     1      18.543  -1.174  53.600  1.00  0.00    -0.206 F 
HETATM    2  C1  UNL     1      19.866  -0.904  53.505  1.00  0.00     0.117 A 
HETATM    3  C2  UNL     1      20.748  -1.424  54.417  1.00  0.00     0.045 A 
HETATM    4  C3  UNL     1      22.095  -1.149  54.318  1.00  0.00     0.041 A 
HETATM    5  C4  UNL     1      22.623  -0.352  53.314  1.00  0.00     0.086 A 
HETATM    6  C5  UNL     1      21.729   0.184  52.376  1.00  0.00    -0.004 A 
HETATM    7  C6  UNL     1      20.385  -0.097  52.486  1.00  0.00     0.054 A 
HETATM    8  C7  UNL     1      22.007   1.065  51.199  1.00  0.00     0.161 C 
HETATM    9  N1  UNL     1      23.126   1.934  51.556  1.00  0.00    -0.380 N 
HETATM   10  C8  UNL     1      24.495   1.698  51.826  1.00  0.00     0.111 A 
HETATM   11  P1  UNL     1      25.575   2.739  50.983  1.00  0.00     0.102 P 
HETATM   12  N3  UNL     1      27.154   2.221  51.547  1.00  0.00    -0.246 NA
HETATM   13  C21 UNL     1      27.113   1.257  52.388  1.00  0.00     0.235 A 
HETATM   14  N4  UNL     1      26.140   0.451  53.024  1.00  0.00    -0.216 NA
HETATM   15  C22 UNL     1      24.854   0.613  52.796  1.00  0.00     0.200 A 
HETATM   16  O1  UNL     1      24.026  -0.286  53.517  1.00  0.00    -0.289 OA
HETATM   17  H6  UNL     1      22.839   2.910  51.689  1.00  0.00     0.160 HD
ENDROOT
BRANCH  11  18
HETATM   18  C9  UNL     1      24.852   4.172  50.994  1.00  0.00     0.648 C 
BRANCH  18  19
HETATM   19  N2  UNL     1      24.630   4.682  49.606  1.00  0.00    -0.082 N 
HETATM   20  H8  UNL     1      24.352   5.015  48.573  1.00  0.00     0.267 HD
BRANCH  19  21
HETATM   21  C10 UNL     1      25.896   5.385  49.188  1.00  0.00     0.100 A 
HETATM   22  C11 UNL     1      25.867   6.727  49.341  1.00  0.00     0.032 A 
HETATM   23  C12 UNL     1      27.093   7.457  48.945  1.00  0.00     0.010 A 
HETATM   24  C13 UNL     1      27.858   6.430  48.541  1.00  0.00    -0.042 A 
HETATM   25  C20 UNL     1      27.268   5.077  48.635  1.00  0.00     0.103 A 
BRANCH  24  26
HETATM   26  C14 UNL     1      29.221   6.519  48.022  1.00  0.00    -0.030 A 
HETATM   27  C15 UNL     1      30.340   5.838  48.451  1.00  0.00     0.012 A 
HETATM   28  C16 UNL     1      31.598   5.975  47.910  1.00  0.00     0.001 A 
HETATM   29  C17 UNL     1      31.786   6.848  46.861  1.00  0.00     0.000 A 
HETATM   30  C18 UNL     1      30.686   7.546  46.408  1.00  0.00     0.001 A 
HETATM   31  C19 UNL     1      29.436   7.396  46.962  1.00  0.00     0.012 A 
ENDBRANCH  24  26
ENDBRANCH  19  21
ENDBRANCH  18  19
ENDBRANCH  11  18
TORSDOF 4
ENDMDL
MODEL 7
REMARK VINA RESULT:      -9.0      4.915      7.764
REMARK  4 active torsions:
REMARK  status: ('A' for Active; 'I' for Inactive)
REMARK    1  A    between atoms: P1_11  and  C9_12 
REMARK    2  A    between atoms: C9_12  and  N2_13 
REMARK    3  A    between atoms: N2_13  and  C10_14 
REMARK    4  A    between atoms: C13_17  and  C14_18 
ROOT
HETATM    1  F1  UNL     1      24.167   6.609  48.948  1.00  0.00    -0.206 F 
HETATM    2  C1  UNL     1      24.721   5.515  49.520  1.00  0.00     0.117 A 
HETATM    3  C2  UNL     1      25.907   5.012  49.051  1.00  0.00     0.045 A 
HETATM    4  C3  UNL     1      26.470   3.898  49.636  1.00  0.00     0.041 A 
HETATM    5  C4  UNL     1      25.885   3.238  50.706  1.00  0.00     0.086 A 
HETATM    6  C5  UNL     1      24.672   3.745  51.193  1.00  0.00    -0.004 A 
HETATM    7  C6  UNL     1      24.119   4.859  50.600  1.00  0.00     0.054 A 
HETATM    8  C7  UNL     1      23.824   3.250  52.321  1.00  0.00     0.161 C 
HETATM    9  N1  UNL     1      23.945   1.795  52.356  1.00  0.00    -0.380 N 
HETATM   10  C8  UNL     1      25.015   0.913  52.644  1.00  0.00     0.111 A 
HETATM   11  P1  UNL     1      24.623  -0.338  53.760  1.00  0.00     0.102 P 
HETATM   12  N3  UNL     1      26.115  -1.252  53.876  1.00  0.00    -0.246 NA
HETATM   13  C21 UNL     1      27.065  -0.789  53.153  1.00  0.00     0.235 A 
HETATM   14  N4  UNL     1      27.283   0.280  52.254  1.00  0.00    -0.216 NA
HETATM   15  C22 UNL     1      26.331   1.142  51.963  1.00  0.00     0.200 A 
HETATM   16  O1  UNL     1      26.728   2.150  51.047  1.00  0.00    -0.289 OA
HETATM   17  H6  UNL     1      23.087   1.321  52.055  1.00  0.00     0.160 HD
ENDROOT
BRANCH  11  18
HETATM   18  C9  UNL     1      23.128  -0.774  53.373  1.00  0.00     0.648 C 
BRANCH  18  19
HETATM   19  N2  UNL     1      22.154  -0.392  54.441  1.00  0.00    -0.082 N 
HETATM   20  H8  UNL     1      21.521  -0.069  55.307  1.00  0.00     0.267 HD
BRANCH  19  21
HETATM   21  C10 UNL     1      20.779  -0.721  53.920  1.00  0.00     0.100 A 
HETATM   22  C11 UNL     1      20.277   0.186  53.054  1.00  0.00     0.032 A 
HETATM   23  C12 UNL     1      18.927  -0.102  52.516  1.00  0.00     0.010 A 
HETATM   24  C13 UNL     1      18.668  -1.263  53.139  1.00  0.00    -0.042 A 
HETATM   25  C20 UNL     1      19.717  -1.789  54.039  1.00  0.00     0.103 A 
BRANCH  24  26
HETATM   26  C14 UNL     1      17.450  -2.060  53.009  1.00  0.00    -0.030 A 
HETATM   27  C15 UNL     1      16.259  -1.702  52.415  1.00  0.00     0.012 A 
HETATM   28  C16 UNL     1      15.150  -2.511  52.331  1.00  0.00     0.001 A 
HETATM   29  C17 UNL     1      15.201  -3.778  52.870  1.00  0.00     0.000 A 
HETATM   30  C18 UNL     1      16.378  -4.167  53.473  1.00  0.00     0.001 A 
HETATM   31  C19 UNL     1      17.477  -3.344  53.548  1.00  0.00     0.012 A 
ENDBRANCH  24  26
ENDBRANCH  19  21
ENDBRANCH  18  19
ENDBRANCH  11  18
TORSDOF 4
ENDMDL
MODEL 8
REMARK VINA RESULT:      -8.8      2.588      4.130
REMARK  4 active torsions:
REMARK  status: ('A' for Active; 'I' for Inactive)
REMARK    1  A    between atoms: P1_11  and  C9_12 
REMARK    2  A    between atoms: C9_12  and  N2_13 
REMARK    3  A    between atoms: N2_13  and  C10_14 
REMARK    4  A    between atoms: C13_17  and  C14_18 
ROOT
HETATM    1  F1  UNL     1      33.709   5.457  48.803  1.00  0.00    -0.206 F 
HETATM    2  C1  UNL     1      32.675   6.330  48.771  1.00  0.00     0.117 A 
HETATM    3  C2  UNL     1      32.896   7.674  48.934  1.00  0.00     0.045 A 
HETATM    4  C3  UNL     1      31.842   8.561  48.899  1.00  0.00     0.041 A 
HETATM    5  C4  UNL     1      30.531   8.158  48.702  1.00  0.00     0.086 A 
HETATM    6  C5  UNL     1      30.294   6.786  48.533  1.00  0.00    -0.004 A 
HETATM    7  C6  UNL     1      31.356   5.908  48.570  1.00  0.00     0.054 A 
HETATM    8  C7  UNL     1      29.002   6.069  48.304  1.00  0.00     0.161 C 
HETATM    9  N1  UNL     1      27.964   6.791  49.035  1.00  0.00    -0.380 N 
HETATM   10  C8  UNL     1      27.388   8.076  48.894  1.00  0.00     0.111 A 
HETATM   11  P1  UNL     1      25.667   8.090  48.914  1.00  0.00     0.102 P 
HETATM   12  N3  UNL     1      25.278   9.793  48.754  1.00  0.00    -0.246 NA
HETATM   13  C21 UNL     1      26.304  10.553  48.663  1.00  0.00     0.235 A 
HETATM   14  N4  UNL     1      27.713  10.428  48.651  1.00  0.00    -0.216 NA
HETATM   15  C22 UNL     1      28.303   9.256  48.759  1.00  0.00     0.200 A 
HETATM   16  O1  UNL     1      29.719   9.321  48.724  1.00  0.00    -0.289 OA
HETATM   17  H6  UNL     1      27.624   6.271  49.852  1.00  0.00     0.160 HD
ENDROOT
BRANCH  11  18
HETATM   18  C9  UNL     1      25.264   7.000  50.021  1.00  0.00     0.648 C 
BRANCH  18  19
HETATM   19  N2  UNL     1      24.401   5.926  49.441  1.00  0.00    -0.082 N 
HETATM   20  H8  UNL     1      23.695   5.210  48.946  1.00  0.00     0.267 HD
BRANCH  19  21
HETATM   21  C10 UNL     1      24.888   4.617  50.006  1.00  0.00     0.100 A 
HETATM   22  C11 UNL     1      25.998   4.129  49.410  1.00  0.00     0.032 A 
HETATM   23  C12 UNL     1      26.511   2.844  49.937  1.00  0.00     0.010 A 
HETATM   24  C13 UNL     1      25.609   2.608  50.903  1.00  0.00    -0.042 A 
HETATM   25  C20 UNL     1      24.540   3.615  51.082  1.00  0.00     0.103 A 
BRANCH  24  26
HETATM   26  C14 UNL     1      25.583   1.454  51.799  1.00  0.00    -0.030 A 
HETATM   27  C15 UNL     1      26.596   0.556  52.057  1.00  0.00     0.012 A 
HETATM   28  C16 UNL     1      26.497  -0.512  52.919  1.00  0.00     0.001 A 
HETATM   29  C17 UNL     1      25.312  -0.727  53.588  1.00  0.00     0.000 A 
HETATM   30  C18 UNL     1      24.278   0.153  53.351  1.00  0.00     0.001 A 
HETATM   31  C19 UNL     1      24.396   1.216  52.486  1.00  0.00     0.012 A 
ENDBRANCH  24  26
ENDBRANCH  19  21
ENDBRANCH  18  19
ENDBRANCH  11  18
TORSDOF 4
ENDMDL
MODEL 9
REMARK VINA RESULT:      -8.8      4.099      8.804
REMARK  4 active torsions:
REMARK  status: ('A' for Active; 'I' for Inactive)
REMARK    1  A    between atoms: P1_11  and  C9_12 
REMARK    2  A    between atoms: C9_12  and  N2_13 
REMARK    3  A    between atoms: N2_13  and  C10_14 
REMARK    4  A    between atoms: C13_17  and  C14_18 
ROOT
HETATM    1  F1  UNL     1      17.667  -0.003  51.798  1.00  0.00    -0.206 F 
HETATM    2  C1  UNL     1      18.963  -0.096  52.176  1.00  0.00     0.117 A 
HETATM    3  C2  UNL     1      19.297  -0.690  53.366  1.00  0.00     0.045 A 
HETATM    4  C3  UNL     1      20.617  -0.786  53.749  1.00  0.00     0.041 A 
HETATM    5  C4  UNL     1      21.659  -0.300  52.974  1.00  0.00     0.086 A 
HETATM    6  C5  UNL     1      21.327   0.308  51.755  1.00  0.00    -0.004 A 
HETATM    7  C6  UNL     1      20.004   0.399  51.383  1.00  0.00     0.054 A 
HETATM    8  C7  UNL     1      22.226   0.914  50.724  1.00  0.00     0.161 C 
HETATM    9  N1  UNL     1      23.360   1.509  51.425  1.00  0.00    -0.380 N 
HETATM   10  C8  UNL     1      24.429   0.972  52.182  1.00  0.00     0.111 A 
HETATM   11  P1  UNL     1      25.982   1.572  51.744  1.00  0.00     0.102 P 
HETATM   12  N3  UNL     1      27.057   0.753  52.862  1.00  0.00    -0.246 NA
HETATM   13  C21 UNL     1      26.460  -0.040  53.670  1.00  0.00     0.235 A 
HETATM   14  N4  UNL     1      25.141  -0.472  53.943  1.00  0.00    -0.216 NA
HETATM   15  C22 UNL     1      24.111  -0.021  53.259  1.00  0.00     0.200 A 
HETATM   16  O1  UNL     1      22.867  -0.567  53.667  1.00  0.00    -0.289 OA
HETATM   17  H6  UNL     1      23.341   2.535  51.406  1.00  0.00     0.160 HD
ENDROOT
BRANCH  11  18
HETATM   18  C9  UNL     1      25.744   3.129  51.434  1.00  0.00     0.648 C 
BRANCH  18  19
HETATM   19  N2  UNL     1      25.294   3.342  50.025  1.00  0.00    -0.082 N 
HETATM   20  H8  UNL     1      24.871   3.418  48.990  1.00  0.00     0.267 HD
BRANCH  19  21
HETATM   21  C10 UNL     1      26.191   4.398  49.432  1.00  0.00     0.100 A 
HETATM   22  C11 UNL     1      25.741   5.663  49.582  1.00  0.00     0.032 A 
HETATM   23  C12 UNL     1      26.595   6.732  49.015  1.00  0.00     0.010 A 
HETATM   24  C13 UNL     1      27.597   5.992  48.514  1.00  0.00    -0.042 A 
HETATM   25  C20 UNL     1      27.503   4.527  48.695  1.00  0.00     0.103 A 
BRANCH  24  26
HETATM   26  C14 UNL     1      28.775   6.495  47.810  1.00  0.00    -0.030 A 
HETATM   27  C15 UNL     1      30.073   6.041  47.895  1.00  0.00     0.012 A 
HETATM   28  C16 UNL     1      31.136   6.568  47.197  1.00  0.00     0.001 A 
HETATM   29  C17 UNL     1      30.919   7.627  46.343  1.00  0.00     0.000 A 
HETATM   30  C18 UNL     1      29.630   8.105  46.235  1.00  0.00     0.001 A 
HETATM   31  C19 UNL     1      28.581   7.565  46.941  1.00  0.00     0.012 A 
ENDBRANCH  24  26
ENDBRANCH  19  21
ENDBRANCH  18  19
ENDBRANCH  11  18
TORSDOF 4
ENDMDL
