MODEL 1
REMARK VINA RESULT:     -10.9      0.000      0.000
REMARK  0 active torsions:
REMARK  status: ('A' for Active; 'I' for Inactive)
ROOT
HETATM    1  C1  UNL     1      25.692   6.796  49.448  1.00  0.00     0.117 C 
HETATM    2  N1  UNL     1      25.444   6.034  50.456  1.00  0.00    -0.242 NA
HETATM    3  C2  UNL     1      25.113   5.008  49.513  1.00  0.00     0.083 C 
HETATM    4  C3  UNL     1      24.980   3.807  48.961  1.00  0.00     0.017 C 
HETATM    5  C4  UNL     1      25.579   3.314  50.161  1.00  0.00     0.044 C 
HETATM    6  C5  UNL     1      26.029   2.388  50.944  1.00  0.00    -0.015 C 
HETATM    7  C6  UNL     1      26.434   1.158  51.571  1.00  0.00     0.021 C 
HETATM    8  C7  UNL     1      26.970   1.264  52.764  1.00  0.00     0.006 C 
HETATM    9  C8  UNL     1      27.265   2.423  53.633  1.00  0.00     0.057 C 
HETATM   10  C9  UNL     1      28.808   2.468  53.663  1.00  0.00     0.007 C 
HETATM   11  C10 UNL     1      29.214   1.166  54.310  1.00  0.00     0.020 C 
HETATM   12  C11 UNL     1      28.697  -0.062  53.626  1.00  0.00     0.122 C 
HETATM   13  N2  UNL     1      27.304  -0.027  53.321  1.00  0.00    -0.384 N 
HETATM   14  C12 UNL     1      26.113  -0.854  53.387  1.00  0.00     0.125 C 
HETATM   15  C13 UNL     1      25.220  -0.373  54.505  1.00  0.00     0.046 C 
HETATM   16  C14 UNL     1      23.930  -1.123  54.512  1.00  0.00     0.170 C 
HETATM   17  O1  UNL     1      23.151  -1.048  53.372  1.00  0.00    -0.381 OA
HETATM   18  C15 UNL     1      22.661   0.213  52.920  1.00  0.00     0.068 A 
HETATM   19  C16 UNL     1      21.366  -0.129  52.370  1.00  0.00     0.008 A 
HETATM   20  C17 UNL     1      20.752   1.032  51.871  1.00  0.00     0.028 A 
HETATM   21  C18 UNL     1      21.213   2.341  51.852  1.00  0.00     0.045 A 
HETATM   22  C19 UNL     1      22.518   2.374  52.463  1.00  0.00     0.012 A 
HETATM   23  C20 UNL     1      23.429   1.434  53.063  1.00  0.00     0.136 A 
HETATM   24  N3  UNL     1      20.716   3.561  51.389  1.00  0.00    -0.188 N 
HETATM   25  C21 UNL     1      21.101   3.896  50.059  1.00  0.00     0.728 A 
HETATM   26  N4  UNL     1      20.423   3.258  49.105  1.00  0.00    -0.075 NA
HETATM   27  C22 UNL     1      20.728   3.519  47.816  1.00  0.00     0.140 A 
HETATM   28  C23 UNL     1      21.736   4.442  47.598  1.00  0.00     0.071 A 
HETATM   29  C24 UNL     1      22.426   5.092  48.590  1.00  0.00     0.148 A 
HETATM   30  N5  UNL     1      22.102   4.813  49.867  1.00  0.00    -0.045 NA
HETATM   31  N6  UNL     1      23.421   5.998  48.159  1.00  0.00    -0.337 N 
HETATM   32  C25 UNL     1      24.640   6.261  48.891  1.00  0.00     0.094 C 
HETATM   33  H23 UNL     1      20.233   3.701  52.326  1.00  0.00     0.184 HD
HETATM   34  H26 UNL     1      23.323   6.530  47.275  1.00  0.00     0.167 HD
ENDROOT
TORSDOF 0
ENDMDL
MODEL 2
REMARK VINA RESULT:      -9.9      2.411      6.408
REMARK  0 active torsions:
REMARK  status: ('A' for Active; 'I' for Inactive)
ROOT
HETATM    1  C1  UNL     1      26.664  -0.398  53.083  1.00  0.00     0.117 C 
HETATM    2  N1  UNL     1      26.155   0.160  52.040  1.00  0.00    -0.242 NA
HETATM    3  C2  UNL     1      25.324   0.912  52.930  1.00  0.00     0.083 C 
HETATM    4  C3  UNL     1      24.610   1.913  53.436  1.00  0.00     0.017 C 
HETATM    5  C4  UNL     1      24.987   2.627  52.257  1.00  0.00     0.044 C 
HETATM    6  C5  UNL     1      25.003   3.656  51.472  1.00  0.00    -0.015 C 
HETATM    7  C6  UNL     1      24.827   4.932  50.831  1.00  0.00     0.021 C 
HETATM    8  C7  UNL     1      25.428   5.088  49.676  1.00  0.00     0.006 C 
HETATM    9  C8  UNL     1      26.284   4.200  48.861  1.00  0.00     0.057 C 
HETATM   10  C9  UNL     1      27.668   4.882  48.920  1.00  0.00     0.007 C 
HETATM   11  C10 UNL     1      27.461   6.221  48.257  1.00  0.00     0.020 C 
HETATM   12  C11 UNL     1      26.388   7.066  48.872  1.00  0.00     0.122 C 
HETATM   13  N2  UNL     1      25.155   6.384  49.098  1.00  0.00    -0.384 N 
HETATM   14  C12 UNL     1      23.724   6.560  48.939  1.00  0.00     0.125 C 
HETATM   15  C13 UNL     1      23.233   5.715  47.787  1.00  0.00     0.046 C 
HETATM   16  C14 UNL     1      21.745   5.776  47.684  1.00  0.00     0.170 C 
HETATM   17  O1  UNL     1      21.019   5.346  48.779  1.00  0.00    -0.381 OA
HETATM   18  C15 UNL     1      21.146   4.003  49.242  1.00  0.00     0.068 A 
HETATM   19  C16 UNL     1      19.808   3.701  49.707  1.00  0.00     0.008 A 
HETATM   20  C17 UNL     1      19.775   2.388  50.206  1.00  0.00     0.028 A 
HETATM   21  C18 UNL     1      20.791   1.446  50.291  1.00  0.00     0.045 A 
HETATM   22  C19 UNL     1      21.997   2.026  49.757  1.00  0.00     0.012 A 
HETATM   23  C20 UNL     1      22.402   3.282  49.180  1.00  0.00     0.136 A 
HETATM   24  N3  UNL     1      20.891   0.136  50.763  1.00  0.00    -0.188 N 
HETATM   25  C21 UNL     1      21.301   0.021  52.122  1.00  0.00     0.728 A 
HETATM   26  N4  UNL     1      20.343   0.269  53.016  1.00  0.00    -0.075 NA
HETATM   27  C22 UNL     1      20.650   0.182  54.327  1.00  0.00     0.140 A 
HETATM   28  C23 UNL     1      21.956  -0.163  54.631  1.00  0.00     0.071 A 
HETATM   29  C24 UNL     1      22.932  -0.416  53.701  1.00  0.00     0.148 A 
HETATM   30  N5  UNL     1      22.599  -0.322  52.399  1.00  0.00    -0.045 NA
HETATM   31  N6  UNL     1      24.205  -0.752  54.215  1.00  0.00    -0.337 N 
HETATM   32  C25 UNL     1      25.450  -0.416  53.563  1.00  0.00     0.094 C 
HETATM   33  H23 UNL     1      20.591  -0.215  49.804  1.00  0.00     0.184 HD
HETATM   34  H26 UNL     1      24.309  -1.268  55.109  1.00  0.00     0.167 HD
ENDROOT
TORSDOF 0
ENDMDL
MODEL 3
REMARK VINA RESULT:      -9.6      2.362      6.647
REMARK  0 active torsions:
REMARK  status: ('A' for Active; 'I' for Inactive)
ROOT
HETATM    1  C1  UNL     1      28.019   0.905  52.900  1.00  0.00     0.117 C 
HETATM    2  N1  UNL     1      27.045   1.269  52.141  1.00  0.00    -0.242 NA
HETATM    3  C2  UNL     1      26.286   1.492  53.334  1.00  0.00     0.083 C 
HETATM    4  C3  UNL     1      25.416   2.021  54.188  1.00  0.00     0.017 C 
HETATM    5  C4  UNL     1      25.106   2.932  53.130  1.00  0.00     0.044 C 
HETATM    6  C5  UNL     1      24.474   3.926  52.596  1.00  0.00    -0.015 C 
HETATM    7  C6  UNL     1      23.619   5.043  52.293  1.00  0.00     0.021 C 
HETATM    8  C7  UNL     1      23.734   5.551  51.089  1.00  0.00     0.006 C 
HETATM    9  C8  UNL     1      24.591   5.213  49.933  1.00  0.00     0.057 C 
HETATM   10  C9  UNL     1      25.534   6.430  49.816  1.00  0.00     0.007 C 
HETATM   11  C10 UNL     1      24.620   7.592  49.513  1.00  0.00     0.020 C 
HETATM   12  C11 UNL     1      23.533   7.814  50.519  1.00  0.00     0.122 C 
HETATM   13  N2  UNL     1      22.806   6.638  50.873  1.00  0.00    -0.384 N 
HETATM   14  C12 UNL     1      21.448   6.173  51.085  1.00  0.00     0.125 C 
HETATM   15  C13 UNL     1      21.020   5.305  49.927  1.00  0.00     0.046 C 
HETATM   16  C14 UNL     1      19.676   4.708  50.181  1.00  0.00     0.170 C 
HETATM   17  O1  UNL     1      19.544   3.905  51.298  1.00  0.00    -0.381 OA
HETATM   18  C15 UNL     1      20.331   2.722  51.428  1.00  0.00     0.068 A 
HETATM   19  C16 UNL     1      19.431   1.817  52.113  1.00  0.00     0.008 A 
HETATM   20  C17 UNL     1      20.078   0.588  52.320  1.00  0.00     0.028 A 
HETATM   21  C18 UNL     1      21.362   0.191  51.973  1.00  0.00     0.045 A 
HETATM   22  C19 UNL     1      22.015   1.291  51.310  1.00  0.00     0.012 A 
HETATM   23  C20 UNL     1      21.691   2.642  50.932  1.00  0.00     0.136 A 
HETATM   24  N3  UNL     1      22.115  -0.975  52.124  1.00  0.00    -0.188 N 
HETATM   25  C21 UNL     1      22.919  -1.017  53.299  1.00  0.00     0.728 A 
HETATM   26  N4  UNL     1      22.255  -1.301  54.420  1.00  0.00    -0.075 NA
HETATM   27  C22 UNL     1      22.945  -1.360  55.578  1.00  0.00     0.140 A 
HETATM   28  C23 UNL     1      24.305  -1.115  55.496  1.00  0.00     0.071 A 
HETATM   29  C24 UNL     1      24.977  -0.824  54.336  1.00  0.00     0.148 A 
HETATM   30  N5  UNL     1      24.264  -0.772  53.194  1.00  0.00    -0.045 NA
HETATM   31  N6  UNL     1      26.366  -0.604  54.464  1.00  0.00    -0.337 N 
HETATM   32  C25 UNL     1      27.117   0.307  53.629  1.00  0.00     0.094 C 
HETATM   33  H23 UNL     1      21.712  -1.335  51.208  1.00  0.00     0.184 HD
HETATM   34  H26 UNL     1      26.929  -1.097  55.182  1.00  0.00     0.167 HD
ENDROOT
TORSDOF 0
ENDMDL
MODEL 4
REMARK VINA RESULT:      -9.5      2.823      8.158
REMARK  0 active torsions:
REMARK  status: ('A' for Active; 'I' for Inactive)
ROOT
HETATM    1  C1  UNL     1      21.502  -1.009  54.959  1.00  0.00     0.117 C 
HETATM    2  N1  UNL     1      21.232   0.111  54.383  1.00  0.00    -0.242 NA
HETATM    3  C2  UNL     1      21.982  -0.363  53.259  1.00  0.00     0.083 C 
HETATM    4  C3  UNL     1      22.371  -0.564  52.004  1.00  0.00     0.017 C 
HETATM    5  C4  UNL     1      21.265   0.269  51.649  1.00  0.00     0.044 C 
HETATM    6  C5  UNL     1      20.494   0.890  50.816  1.00  0.00    -0.015 C 
HETATM    7  C6  UNL     1      19.839   1.452  49.665  1.00  0.00     0.021 C 
HETATM    8  C7  UNL     1      18.790   2.203  49.904  1.00  0.00     0.006 C 
HETATM    9  C8  UNL     1      18.107   2.608  51.151  1.00  0.00     0.057 C 
HETATM   10  C9  UNL     1      16.743   1.888  51.064  1.00  0.00     0.007 C 
HETATM   11  C10 UNL     1      16.078   2.479  49.845  1.00  0.00     0.020 C 
HETATM   12  C11 UNL     1      16.866   2.353  48.577  1.00  0.00     0.122 C 
HETATM   13  N2  UNL     1      18.232   2.750  48.688  1.00  0.00    -0.384 N 
HETATM   14  C12 UNL     1      19.242   3.521  47.988  1.00  0.00     0.125 C 
HETATM   15  C13 UNL     1      19.478   4.826  48.710  1.00  0.00     0.046 C 
HETATM   16  C14 UNL     1      20.604   5.580  48.085  1.00  0.00     0.170 C 
HETATM   17  O1  UNL     1      21.839   4.958  48.055  1.00  0.00    -0.381 OA
HETATM   18  C15 UNL     1      22.483   4.582  49.270  1.00  0.00     0.068 A 
HETATM   19  C16 UNL     1      23.884   4.787  48.964  1.00  0.00     0.008 A 
HETATM   20  C17 UNL     1      24.659   4.448  50.085  1.00  0.00     0.028 A 
HETATM   21  C18 UNL     1      24.261   3.982  51.330  1.00  0.00     0.045 A 
HETATM   22  C19 UNL     1      22.824   3.878  51.341  1.00  0.00     0.012 A 
HETATM   23  C20 UNL     1      21.739   4.124  50.427  1.00  0.00     0.136 A 
HETATM   24  N3  UNL     1      24.917   3.608  52.505  1.00  0.00    -0.188 N 
HETATM   25  C21 UNL     1      25.226   2.220  52.599  1.00  0.00     0.728 A 
HETATM   26  N4  UNL     1      26.284   1.834  51.885  1.00  0.00    -0.075 NA
HETATM   27  C22 UNL     1      26.644   0.534  51.920  1.00  0.00     0.140 A 
HETATM   28  C23 UNL     1      25.866  -0.297  52.707  1.00  0.00     0.071 A 
HETATM   29  C24 UNL     1      24.779   0.112  53.437  1.00  0.00     0.148 A 
HETATM   30  N5  UNL     1      24.443   1.416  53.385  1.00  0.00    -0.045 NA
HETATM   31  N6  UNL     1      24.116  -0.892  54.176  1.00  0.00    -0.337 N 
HETATM   32  C25 UNL     1      22.694  -0.892  54.440  1.00  0.00     0.094 C 
HETATM   33  H23 UNL     1      24.884   4.620  52.828  1.00  0.00     0.184 HD
HETATM   34  H26 UNL     1      24.630  -1.701  54.575  1.00  0.00     0.167 HD
ENDROOT
TORSDOF 0
ENDMDL
MODEL 5
REMARK VINA RESULT:      -9.4      1.688      2.239
REMARK  0 active torsions:
REMARK  status: ('A' for Active; 'I' for Inactive)
ROOT
HETATM    1  C1  UNL     1      25.152   6.594  49.548  1.00  0.00     0.117 C 
HETATM    2  N1  UNL     1      24.569   5.935  50.489  1.00  0.00    -0.242 NA
HETATM    3  C2  UNL     1      24.130   5.017  49.482  1.00  0.00     0.083 C 
HETATM    4  C3  UNL     1      23.776   3.883  48.886  1.00  0.00     0.017 C 
HETATM    5  C4  UNL     1      24.043   3.269  50.149  1.00  0.00     0.044 C 
HETATM    6  C5  UNL     1      24.117   2.269  50.966  1.00  0.00    -0.015 C 
HETATM    7  C6  UNL     1      24.094   0.985  51.615  1.00  0.00     0.021 C 
HETATM    8  C7  UNL     1      24.456   0.966  52.876  1.00  0.00     0.006 C 
HETATM    9  C8  UNL     1      24.905   2.022  53.808  1.00  0.00     0.057 C 
HETATM   10  C9  UNL     1      26.386   1.667  54.066  1.00  0.00     0.007 C 
HETATM   11  C10 UNL     1      26.342   0.314  54.734  1.00  0.00     0.020 C 
HETATM   12  C11 UNL     1      25.635  -0.748  53.950  1.00  0.00     0.122 C 
HETATM   13  N2  UNL     1      24.359  -0.359  53.444  1.00  0.00    -0.384 N 
HETATM   14  C12 UNL     1      23.000  -0.850  53.313  1.00  0.00     0.125 C 
HETATM   15  C13 UNL     1      22.104  -0.139  54.298  1.00  0.00     0.046 C 
HETATM   16  C14 UNL     1      20.678  -0.531  54.096  1.00  0.00     0.170 C 
HETATM   17  O1  UNL     1      20.123  -0.273  52.856  1.00  0.00    -0.381 OA
HETATM   18  C15 UNL     1      20.048   1.065  52.368  1.00  0.00     0.068 A 
HETATM   19  C16 UNL     1      18.805   1.061  51.624  1.00  0.00     0.008 A 
HETATM   20  C17 UNL     1      18.592   2.334  51.069  1.00  0.00     0.028 A 
HETATM   21  C18 UNL     1      19.372   3.479  51.152  1.00  0.00     0.045 A 
HETATM   22  C19 UNL     1      20.534   3.183  51.949  1.00  0.00     0.012 A 
HETATM   23  C20 UNL     1      21.073   2.048  52.654  1.00  0.00     0.136 A 
HETATM   24  N3  UNL     1      19.279   4.779  50.651  1.00  0.00    -0.188 N 
HETATM   25  C21 UNL     1      19.932   4.985  49.402  1.00  0.00     0.728 A 
HETATM   26  N4  UNL     1      19.263   4.530  48.342  1.00  0.00    -0.075 NA
HETATM   27  C22 UNL     1      19.812   4.686  47.120  1.00  0.00     0.140 A 
HETATM   28  C23 UNL     1      21.045   5.315  47.076  1.00  0.00     0.071 A 
HETATM   29  C24 UNL     1      21.723   5.778  48.174  1.00  0.00     0.148 A 
HETATM   30  N5  UNL     1      21.151   5.610  49.382  1.00  0.00    -0.045 NA
HETATM   31  N6  UNL     1      22.971   6.390  47.919  1.00  0.00    -0.337 N 
HETATM   32  C25 UNL     1      24.093   6.341  48.828  1.00  0.00     0.094 C 
HETATM   33  H23 UNL     1      18.715   5.053  51.510  1.00  0.00     0.184 HD
HETATM   34  H26 UNL     1      23.146   6.918  47.043  1.00  0.00     0.167 HD
ENDROOT
TORSDOF 0
ENDMDL
MODEL 6
REMARK VINA RESULT:      -9.4      2.219      5.711
REMARK  0 active torsions:
REMARK  status: ('A' for Active; 'I' for Inactive)
ROOT
HETATM    1  C1  UNL     1      19.424   6.000  48.067  1.00  0.00     0.117 C 
HETATM    2  N1  UNL     1      19.977   4.879  48.378  1.00  0.00    -0.242 NA
HETATM    3  C2  UNL     1      20.449   5.519  49.569  1.00  0.00     0.083 C 
HETATM    4  C3  UNL     1      20.822   5.703  50.831  1.00  0.00     0.017 C 
HETATM    5  C4  UNL     1      20.514   4.318  51.004  1.00  0.00     0.044 C 
HETATM    6  C5  UNL     1      20.414   3.222  51.685  1.00  0.00    -0.015 C 
HETATM    7  C6  UNL     1      20.417   2.190  52.688  1.00  0.00     0.021 C 
HETATM    8  C7  UNL     1      20.015   1.004  52.300  1.00  0.00     0.006 C 
HETATM    9  C8  UNL     1      19.536   0.479  51.003  1.00  0.00     0.057 C 
HETATM   10  C9  UNL     1      18.048   0.164  51.271  1.00  0.00     0.007 C 
HETATM   11  C10 UNL     1      18.070  -0.907  52.333  1.00  0.00     0.020 C 
HETATM   12  C11 UNL     1      18.803  -0.534  53.585  1.00  0.00     0.122 C 
HETATM   13  N2  UNL     1      20.094   0.033  53.368  1.00  0.00    -0.384 N 
HETATM   14  C12 UNL     1      21.457  -0.044  53.861  1.00  0.00     0.125 C 
HETATM   15  C13 UNL     1      22.321  -0.771  52.858  1.00  0.00     0.046 C 
HETATM   16  C14 UNL     1      23.752  -0.750  53.280  1.00  0.00     0.170 C 
HETATM   17  O1  UNL     1      24.346   0.489  53.433  1.00  0.00    -0.381 OA
HETATM   18  C15 UNL     1      24.437   1.383  52.326  1.00  0.00     0.068 A 
HETATM   19  C16 UNL     1      25.703   2.048  52.558  1.00  0.00     0.008 A 
HETATM   20  C17 UNL     1      25.933   2.979  51.533  1.00  0.00     0.028 A 
HETATM   21  C18 UNL     1      25.151   3.297  50.431  1.00  0.00     0.045 A 
HETATM   22  C19 UNL     1      23.964   2.482  50.464  1.00  0.00     0.012 A 
HETATM   23  C20 UNL     1      23.403   1.464  51.313  1.00  0.00     0.136 A 
HETATM   24  N3  UNL     1      25.259   4.190  49.363  1.00  0.00    -0.188 N 
HETATM   25  C21 UNL     1      24.647   5.458  49.581  1.00  0.00     0.728 A 
HETATM   26  N4  UNL     1      25.350   6.292  50.349  1.00  0.00    -0.075 NA
HETATM   27  C22 UNL     1      24.839   7.514  50.604  1.00  0.00     0.140 A 
HETATM   28  C23 UNL     1      23.608   7.797  50.037  1.00  0.00     0.071 A 
HETATM   29  C24 UNL     1      22.895   6.930  49.249  1.00  0.00     0.148 A 
HETATM   30  N5  UNL     1      23.429   5.716  49.009  1.00  0.00    -0.045 NA
HETATM   31  N6  UNL     1      21.657   7.408  48.766  1.00  0.00    -0.337 N 
HETATM   32  C25 UNL     1      20.506   6.566  48.529  1.00  0.00     0.094 C 
HETATM   33  H23 UNL     1      25.796   3.450  48.819  1.00  0.00     0.184 HD
HETATM   34  H26 UNL     1      21.509   8.413  48.554  1.00  0.00     0.167 HD
ENDROOT
TORSDOF 0
ENDMDL
MODEL 7
REMARK VINA RESULT:      -9.3      2.121      4.830
REMARK  0 active torsions:
REMARK  status: ('A' for Active; 'I' for Inactive)
ROOT
HETATM    1  C1  UNL     1      18.728   5.735  49.088  1.00  0.00     0.117 C 
HETATM    2  N1  UNL     1      19.758   5.506  49.827  1.00  0.00    -0.242 NA
HETATM    3  C2  UNL     1      19.820   4.210  49.221  1.00  0.00     0.083 C 
HETATM    4  C3  UNL     1      20.312   3.083  48.718  1.00  0.00     0.017 C 
HETATM    5  C4  UNL     1      21.592   3.627  49.047  1.00  0.00     0.044 C 
HETATM    6  C5  UNL     1      22.884   3.610  49.115  1.00  0.00    -0.015 C 
HETATM    7  C6  UNL     1      24.286   3.293  49.052  1.00  0.00     0.021 C 
HETATM    8  C7  UNL     1      25.106   4.201  49.526  1.00  0.00     0.006 C 
HETATM    9  C8  UNL     1      24.891   5.533  50.130  1.00  0.00     0.057 C 
HETATM   10  C9  UNL     1      25.482   6.502  49.083  1.00  0.00     0.007 C 
HETATM   11  C10 UNL     1      26.948   6.147  49.021  1.00  0.00     0.020 C 
HETATM   12  C11 UNL     1      27.232   4.714  48.689  1.00  0.00     0.122 C 
HETATM   13  N2  UNL     1      26.484   3.770  49.454  1.00  0.00    -0.384 N 
HETATM   14  C12 UNL     1      26.648   2.527  50.183  1.00  0.00     0.125 C 
HETATM   15  C13 UNL     1      26.595   2.796  51.667  1.00  0.00     0.046 C 
HETATM   16  C14 UNL     1      26.631   1.519  52.439  1.00  0.00     0.170 C 
HETATM   17  O1  UNL     1      25.615   0.611  52.202  1.00  0.00    -0.381 OA
HETATM   18  C15 UNL     1      24.258   0.972  52.451  1.00  0.00     0.068 A 
HETATM   19  C16 UNL     1      23.678  -0.273  52.911  1.00  0.00     0.008 A 
HETATM   20  C17 UNL     1      22.317  -0.073  53.196  1.00  0.00     0.028 A 
HETATM   21  C18 UNL     1      21.548   1.078  53.093  1.00  0.00     0.045 A 
HETATM   22  C19 UNL     1      22.389   2.146  52.615  1.00  0.00     0.012 A 
HETATM   23  C20 UNL     1      23.766   2.318  52.232  1.00  0.00     0.136 A 
HETATM   24  N3  UNL     1      20.211   1.402  53.333  1.00  0.00    -0.188 N 
HETATM   25  C21 UNL     1      19.357   1.287  52.199  1.00  0.00     0.728 A 
HETATM   26  N4  UNL     1      18.999   0.039  51.895  1.00  0.00    -0.075 NA
HETATM   27  C22 UNL     1      18.190  -0.156  50.833  1.00  0.00     0.140 A 
HETATM   28  C23 UNL     1      17.798   0.977  50.142  1.00  0.00     0.071 A 
HETATM   29  C24 UNL     1      18.174   2.256  50.465  1.00  0.00     0.148 A 
HETATM   30  N5  UNL     1      18.982   2.423  51.530  1.00  0.00    -0.045 NA
HETATM   31  N6  UNL     1      17.667   3.279  49.633  1.00  0.00    -0.337 N 
HETATM   32  C25 UNL     1      18.378   4.503  49.339  1.00  0.00     0.094 C 
HETATM   33  H23 UNL     1      20.461   1.610  54.346  1.00  0.00     0.184 HD
HETATM   34  H26 UNL     1      16.737   3.199  49.180  1.00  0.00     0.167 HD
ENDROOT
TORSDOF 0
ENDMDL
MODEL 8
REMARK VINA RESULT:      -9.1      2.742      8.276
REMARK  0 active torsions:
REMARK  status: ('A' for Active; 'I' for Inactive)
ROOT
HETATM    1  C1  UNL     1      20.118  -0.505  53.713  1.00  0.00     0.117 C 
HETATM    2  N1  UNL     1      20.124   0.636  53.115  1.00  0.00    -0.242 NA
HETATM    3  C2  UNL     1      21.162   0.115  52.277  1.00  0.00     0.083 C 
HETATM    4  C3  UNL     1      21.918  -0.106  51.207  1.00  0.00     0.017 C 
HETATM    5  C4  UNL     1      21.045   0.809  50.541  1.00  0.00     0.044 C 
HETATM    6  C5  UNL     1      20.627   1.491  49.524  1.00  0.00    -0.015 C 
HETATM    7  C6  UNL     1      20.417   2.107  48.241  1.00  0.00     0.021 C 
HETATM    8  C7  UNL     1      19.401   2.932  48.154  1.00  0.00     0.006 C 
HETATM    9  C8  UNL     1      18.382   3.378  49.128  1.00  0.00     0.057 C 
HETATM   10  C9  UNL     1      17.073   2.762  48.588  1.00  0.00     0.007 C 
HETATM   11  C10 UNL     1      16.877   3.409  47.239  1.00  0.00     0.020 C 
HETATM   12  C11 UNL     1      18.020   3.233  46.287  1.00  0.00     0.122 C 
HETATM   13  N2  UNL     1      19.302   3.527  46.841  1.00  0.00    -0.384 N 
HETATM   14  C12 UNL     1      20.534   4.225  46.524  1.00  0.00     0.125 C 
HETATM   15  C13 UNL     1      20.614   5.504  47.323  1.00  0.00     0.046 C 
HETATM   16  C14 UNL     1      21.930   6.177  47.115  1.00  0.00     0.170 C 
HETATM   17  O1  UNL     1      23.063   5.465  47.462  1.00  0.00    -0.381 OA
HETATM   18  C15 UNL     1      23.255   5.034  48.808  1.00  0.00     0.068 A 
HETATM   19  C16 UNL     1      24.690   5.137  48.973  1.00  0.00     0.008 A 
HETATM   20  C17 UNL     1      25.039   4.734  50.272  1.00  0.00     0.028 A 
HETATM   21  C18 UNL     1      24.231   4.291  51.310  1.00  0.00     0.045 A 
HETATM   22  C19 UNL     1      22.864   4.294  50.857  1.00  0.00     0.012 A 
HETATM   23  C20 UNL     1      22.149   4.626  49.652  1.00  0.00     0.136 A 
HETATM   24  N3  UNL     1      24.448   3.861  52.621  1.00  0.00    -0.188 N 
HETATM   25  C21 UNL     1      24.614   2.454  52.768  1.00  0.00     0.728 A 
HETATM   26  N4  UNL     1      25.816   1.995  52.419  1.00  0.00    -0.075 NA
HETATM   27  C22 UNL     1      26.056   0.672  52.528  1.00  0.00     0.140 A 
HETATM   28  C23 UNL     1      25.011  -0.104  53.000  1.00  0.00     0.071 A 
HETATM   29  C24 UNL     1      23.778   0.380  53.355  1.00  0.00     0.148 A 
HETATM   30  N5  UNL     1      23.566   1.705  53.237  1.00  0.00    -0.045 NA
HETATM   31  N6  UNL     1      22.846  -0.578  53.812  1.00  0.00    -0.337 N 
HETATM   32  C25 UNL     1      21.419  -0.473  53.607  1.00  0.00     0.094 C 
HETATM   33  H23 UNL     1      24.381   4.872  52.946  1.00  0.00     0.184 HD
HETATM   34  H26 UNL     1      23.148  -1.424  54.330  1.00  0.00     0.167 HD
ENDROOT
TORSDOF 0
ENDMDL
MODEL 9
REMARK VINA RESULT:      -8.7      2.761      6.840
REMARK  0 active torsions:
REMARK  status: ('A' for Active; 'I' for Inactive)
ROOT
HETATM    1  C1  UNL     1      26.256   1.837  52.975  1.00  0.00     0.117 C 
HETATM    2  N1  UNL     1      25.942   2.247  51.795  1.00  0.00    -0.242 NA
HETATM    3  C2  UNL     1      24.725   2.741  52.364  1.00  0.00     0.083 C 
HETATM    4  C3  UNL     1      23.662   3.510  52.580  1.00  0.00     0.017 C 
HETATM    5  C4  UNL     1      24.164   4.310  51.508  1.00  0.00     0.044 C 
HETATM    6  C5  UNL     1      24.137   5.312  50.690  1.00  0.00    -0.015 C 
HETATM    7  C6  UNL     1      23.828   6.500  49.939  1.00  0.00     0.021 C 
HETATM    8  C7  UNL     1      24.674   6.821  48.989  1.00  0.00     0.006 C 
HETATM    9  C8  UNL     1      25.928   6.202  48.509  1.00  0.00     0.057 C 
HETATM   10  C9  UNL     1      27.011   7.230  48.905  1.00  0.00     0.007 C 
HETATM   11  C10 UNL     1      26.664   8.471  48.121  1.00  0.00     0.020 C 
HETATM   12  C11 UNL     1      25.279   8.992  48.352  1.00  0.00     0.122 C 
HETATM   13  N2  UNL     1      24.253   8.003  48.271  1.00  0.00    -0.384 N 
HETATM   14  C12 UNL     1      22.934   7.790  47.706  1.00  0.00     0.125 C 
HETATM   15  C13 UNL     1      23.030   6.855  46.525  1.00  0.00     0.046 C 
HETATM   16  C14 UNL     1      21.673   6.516  46.006  1.00  0.00     0.170 C 
HETATM   17  O1  UNL     1      20.799   5.898  46.882  1.00  0.00    -0.381 OA
HETATM   18  C15 UNL     1      21.132   4.634  47.452  1.00  0.00     0.068 A 
HETATM   19  C16 UNL     1      19.843   3.979  47.545  1.00  0.00     0.008 A 
HETATM   20  C17 UNL     1      20.009   2.702  48.104  1.00  0.00     0.028 A 
HETATM   21  C18 UNL     1      21.165   2.066  48.534  1.00  0.00     0.045 A 
HETATM   22  C19 UNL     1      22.280   2.952  48.319  1.00  0.00     0.012 A 
HETATM   23  C20 UNL     1      22.494   4.276  47.794  1.00  0.00     0.136 A 
HETATM   24  N3  UNL     1      21.461   0.825  49.104  1.00  0.00    -0.188 N 
HETATM   25  C21 UNL     1      21.479   0.812  50.528  1.00  0.00     0.728 A 
HETATM   26  N4  UNL     1      20.274   0.787  51.100  1.00  0.00    -0.075 NA
HETATM   27  C22 UNL     1      20.203   0.773  52.447  1.00  0.00     0.140 A 
HETATM   28  C23 UNL     1      21.409   0.788  53.126  1.00  0.00     0.071 A 
HETATM   29  C24 UNL     1      22.642   0.814  52.526  1.00  0.00     0.148 A 
HETATM   30  N5  UNL     1      22.684   0.827  51.179  1.00  0.00    -0.045 NA
HETATM   31  N6  UNL     1      23.754   0.827  53.396  1.00  0.00    -0.337 N 
HETATM   32  C25 UNL     1      25.003   1.490  53.096  1.00  0.00     0.094 C 
HETATM   33  H23 UNL     1      21.551   0.416  48.126  1.00  0.00     0.184 HD
HETATM   34  H26 UNL     1      23.728   0.350  54.317  1.00  0.00     0.167 HD
ENDROOT
TORSDOF 0
ENDMDL
