MODEL 1
REMARK VINA RESULT:      -8.6      0.000      0.000
REMARK  5 active torsions:
REMARK  status: ('A' for Active; 'I' for Inactive)
REMARK    1  A    between atoms: C5_7  and  C6_8 
REMARK    2  A    between atoms: C6_8  and  C7_9 
REMARK    3  A    between atoms: C7_9  and  O2_10 
REMARK    4  A    between atoms: O2_10  and  C8_11 
REMARK    5  A    between atoms: C10_13  and  N2_14 
ROOT
HETATM    1  C8  UNL     1      26.876   1.747  51.466  1.00  0.00     0.138 A 
HETATM    2  C9  UNL     1      26.344   0.578  51.687  1.00  0.00     0.097 A 
HETATM    3  C10 UNL     1      25.824   1.053  53.151  1.00  0.00     0.060 C 
HETATM    4  C16 UNL     1      26.482  -0.138  53.956  1.00  0.00     0.041 C 
HETATM    5  C17 UNL     1      27.746  -0.230  53.141  1.00  0.00     0.036 C 
HETATM    6  C18 UNL     1      27.713   1.019  52.553  1.00  0.00     0.130 A 
HETATM    7  O3  UNL     1      28.574   2.136  53.011  1.00  0.00    -0.290 OA
HETATM    8  N3  UNL     1      27.647   2.672  54.165  1.00  0.00    -0.203 NA
HETATM    9  C19 UNL     1      26.316   2.235  53.788  1.00  0.00     0.149 C 
HETATM   10  H19 UNL     1      27.745   3.683  53.938  1.00  0.00     0.153 HD
ENDROOT
BRANCH   1  11
HETATM   11  O2  UNL     1      26.048   2.408  50.422  1.00  0.00    -0.373 OA
BRANCH  11  12
HETATM   12  C7  UNL     1      26.613   3.651  49.982  1.00  0.00     0.171 C 
BRANCH  12  13
HETATM   13  C6  UNL     1      25.598   4.356  49.158  1.00  0.00     0.063 C 
BRANCH  13  14
HETATM   14  C5  UNL     1      24.360   4.815  49.850  1.00  0.00     0.236 C 
HETATM   15  C2  UNL     1      23.133   4.027  49.599  1.00  0.00     0.024 C 
HETATM   16  C1  UNL     1      22.736   3.039  48.776  1.00  0.00     0.015 C 
HETATM   17  C3  UNL     1      21.968   4.382  50.469  1.00  0.00     0.182 C 
HETATM   18  O1  UNL     1      22.311   5.549  51.159  1.00  0.00    -0.362 OA
HETATM   19  C4  UNL     1      23.433   5.438  51.942  1.00  0.00     0.438 C 
HETATM   20  N1  UNL     1      24.554   4.784  51.307  1.00  0.00     0.112 N 
HETATM   21  H7  UNL     1      24.526   3.759  51.585  1.00  0.00     0.319 HD
ENDBRANCH  13  14
ENDBRANCH  12  13
ENDBRANCH  11  12
ENDBRANCH   1  11
BRANCH   3  22
HETATM   22  N2  UNL     1      24.445   0.832  53.279  1.00  0.00    -0.352 N 
HETATM   23  C11 UNL     1      23.460   1.781  52.890  1.00  0.00     0.107 C 
HETATM   24  C12 UNL     1      22.175   1.527  52.742  1.00  0.00     0.035 C 
HETATM   25  C13 UNL     1      21.599   0.587  53.465  1.00  0.00     0.152 C 
HETATM   26  F1  UNL     1      20.273   0.655  53.751  1.00  0.00    -0.203 F 
HETATM   27  C14 UNL     1      22.504  -0.478  53.902  1.00  0.00     0.089 C 
HETATM   28 CL1  UNL     1      21.761  -1.908  54.554  1.00  0.00    -0.080 Cl
HETATM   29  C15 UNL     1      23.812  -0.352  53.810  1.00  0.00     0.118 C 
ENDBRANCH   3  22
TORSDOF 5
ENDMDL
MODEL 2
REMARK VINA RESULT:      -8.3      1.377      1.750
REMARK  5 active torsions:
REMARK  status: ('A' for Active; 'I' for Inactive)
REMARK    1  A    between atoms: C5_7  and  C6_8 
REMARK    2  A    between atoms: C6_8  and  C7_9 
REMARK    3  A    between atoms: C7_9  and  O2_10 
REMARK    4  A    between atoms: O2_10  and  C8_11 
REMARK    5  A    between atoms: C10_13  and  N2_14 
ROOT
HETATM    1  C8  UNL     1      27.059   1.669  52.187  1.00  0.00     0.138 A 
HETATM    2  C9  UNL     1      26.288   0.701  51.781  1.00  0.00     0.097 A 
HETATM    3  C10 UNL     1      25.749   0.449  53.294  1.00  0.00     0.060 C 
HETATM    4  C16 UNL     1      26.084  -1.096  53.334  1.00  0.00     0.041 C 
HETATM    5  C17 UNL     1      27.370  -1.022  52.552  1.00  0.00     0.036 C 
HETATM    6  C18 UNL     1      27.637   0.324  52.705  1.00  0.00     0.130 A 
HETATM    7  O3  UNL     1      28.661   0.827  53.652  1.00  0.00    -0.290 OA
HETATM    8  N3  UNL     1      27.765   0.875  54.945  1.00  0.00    -0.203 NA
HETATM    9  C19 UNL     1      26.411   0.994  54.438  1.00  0.00     0.149 C 
HETATM   10  H19 UNL     1      28.082   1.808  55.277  1.00  0.00     0.153 HD
ENDROOT
BRANCH   1  11
HETATM   11  O2  UNL     1      26.472   2.934  51.671  1.00  0.00    -0.373 OA
BRANCH  11  12
HETATM   12  C7  UNL     1      26.493   3.001  50.238  1.00  0.00     0.171 C 
BRANCH  12  13
HETATM   13  C6  UNL     1      25.190   3.551  49.780  1.00  0.00     0.063 C 
BRANCH  13  14
HETATM   14  C5  UNL     1      25.034   5.033  49.797  1.00  0.00     0.236 C 
HETATM   15  C2  UNL     1      24.177   5.594  50.864  1.00  0.00     0.024 C 
HETATM   16  C1  UNL     1      23.329   5.137  51.803  1.00  0.00     0.015 C 
HETATM   17  C3  UNL     1      24.214   7.085  50.982  1.00  0.00     0.182 C 
HETATM   18  O1  UNL     1      24.912   7.569  49.870  1.00  0.00    -0.362 OA
HETATM   19  C4  UNL     1      26.197   7.099  49.757  1.00  0.00     0.438 C 
HETATM   20  N1  UNL     1      26.345   5.677  49.968  1.00  0.00     0.112 N 
HETATM   21  H7  UNL     1      26.614   5.530  50.985  1.00  0.00     0.319 HD
ENDBRANCH  13  14
ENDBRANCH  12  13
ENDBRANCH  11  12
ENDBRANCH   1  11
BRANCH   3  22
HETATM   22  N2  UNL     1      24.348   0.496  53.331  1.00  0.00    -0.352 N 
HETATM   23  C11 UNL     1      23.589   1.615  52.888  1.00  0.00     0.107 C 
HETATM   24  C12 UNL     1      22.292   1.610  52.655  1.00  0.00     0.035 C 
HETATM   25  C13 UNL     1      21.502   0.801  53.332  1.00  0.00     0.152 C 
HETATM   26  F1  UNL     1      20.197   1.123  53.533  1.00  0.00    -0.203 F 
HETATM   27  C14 UNL     1      22.156  -0.415  53.818  1.00  0.00     0.089 C 
HETATM   28 CL1  UNL     1      21.113  -1.674  54.409  1.00  0.00    -0.080 Cl
HETATM   29  C15 UNL     1      23.468  -0.542  53.811  1.00  0.00     0.118 C 
ENDBRANCH   3  22
TORSDOF 5
ENDMDL
MODEL 3
REMARK VINA RESULT:      -8.1      3.622      7.046
REMARK  5 active torsions:
REMARK  status: ('A' for Active; 'I' for Inactive)
REMARK    1  A    between atoms: C5_7  and  C6_8 
REMARK    2  A    between atoms: C6_8  and  C7_9 
REMARK    3  A    between atoms: C7_9  and  O2_10 
REMARK    4  A    between atoms: O2_10  and  C8_11 
REMARK    5  A    between atoms: C10_13  and  N2_14 
ROOT
HETATM    1  C8  UNL     1      23.338   2.844  52.076  1.00  0.00     0.138 A 
HETATM    2  C9  UNL     1      23.523   2.692  50.796  1.00  0.00     0.097 A 
HETATM    3  C10 UNL     1      23.733   4.291  50.601  1.00  0.00     0.060 C 
HETATM    4  C16 UNL     1      22.643   4.465  49.469  1.00  0.00     0.041 C 
HETATM    5  C17 UNL     1      21.647   3.479  50.024  1.00  0.00     0.036 C 
HETATM    6  C18 UNL     1      22.107   3.421  51.325  1.00  0.00     0.130 A 
HETATM    7  O3  UNL     1      21.423   4.118  52.441  1.00  0.00    -0.290 OA
HETATM    8  N3  UNL     1      22.110   5.525  52.279  1.00  0.00    -0.203 NA
HETATM    9  C19 UNL     1      23.364   5.236  51.608  1.00  0.00     0.149 C 
HETATM   10  H19 UNL     1      22.299   5.684  53.289  1.00  0.00     0.153 HD
ENDROOT
BRANCH   1  11
HETATM   11  O2  UNL     1      24.535   2.280  52.756  1.00  0.00    -0.373 OA
BRANCH  11  12
HETATM   12  C7  UNL     1      24.528   0.846  52.773  1.00  0.00     0.171 C 
BRANCH  12  13
HETATM   13  C6  UNL     1      25.882   0.371  52.385  1.00  0.00     0.063 C 
BRANCH  13  14
HETATM   14  C5  UNL     1      27.023   0.795  53.244  1.00  0.00     0.236 C 
HETATM   15  C2  UNL     1      28.124  -0.179  53.408  1.00  0.00     0.024 C 
HETATM   16  C1  UNL     1      28.364  -1.469  53.110  1.00  0.00     0.015 C 
HETATM   17  C3  UNL     1      29.341   0.356  54.095  1.00  0.00     0.182 C 
HETATM   18  O1  UNL     1      29.007   1.617  54.601  1.00  0.00    -0.362 OA
HETATM   19  C4  UNL     1      28.598   2.520  53.651  1.00  0.00     0.438 C 
HETATM   20  N1  UNL     1      27.649   2.005  52.691  1.00  0.00     0.112 N 
HETATM   21  H7  UNL     1      28.196   1.689  51.838  1.00  0.00     0.319 HD
ENDBRANCH  13  14
ENDBRANCH  12  13
ENDBRANCH  11  12
ENDBRANCH   1  11
BRANCH   3  22
HETATM   22  N2  UNL     1      24.947   4.552  49.949  1.00  0.00    -0.352 N 
HETATM   23  C11 UNL     1      26.030   3.630  49.910  1.00  0.00     0.107 C 
HETATM   24  C12 UNL     1      27.069   3.711  49.105  1.00  0.00     0.035 C 
HETATM   25  C13 UNL     1      27.498   4.887  48.694  1.00  0.00     0.152 C 
HETATM   26  F1  UNL     1      28.801   5.065  48.353  1.00  0.00    -0.203 F 
HETATM   27  C14 UNL     1      26.466   5.925  48.653  1.00  0.00     0.089 C 
HETATM   28 CL1  UNL     1      26.870   7.388  47.805  1.00  0.00    -0.080 Cl
HETATM   29  C15 UNL     1      25.295   5.757  49.234  1.00  0.00     0.118 C 
ENDBRANCH   3  22
TORSDOF 5
ENDMDL
MODEL 4
REMARK VINA RESULT:      -7.9      3.683      5.990
REMARK  5 active torsions:
REMARK  status: ('A' for Active; 'I' for Inactive)
REMARK    1  A    between atoms: C5_7  and  C6_8 
REMARK    2  A    between atoms: C6_8  and  C7_9 
REMARK    3  A    between atoms: C7_9  and  O2_10 
REMARK    4  A    between atoms: O2_10  and  C8_11 
REMARK    5  A    between atoms: C10_13  and  N2_14 
ROOT
HETATM    1  C8  UNL     1      23.194   1.333  52.861  1.00  0.00     0.138 A 
HETATM    2  C9  UNL     1      24.032   0.886  51.970  1.00  0.00     0.097 A 
HETATM    3  C10 UNL     1      25.213   1.840  52.550  1.00  0.00     0.060 C 
HETATM    4  C16 UNL     1      25.567   2.524  51.170  1.00  0.00     0.041 C 
HETATM    5  C17 UNL     1      24.158   2.604  50.641  1.00  0.00     0.036 C 
HETATM    6  C18 UNL     1      23.474   2.462  51.833  1.00  0.00     0.130 A 
HETATM    7  O3  UNL     1      22.843   3.611  52.527  1.00  0.00    -0.290 OA
HETATM    8  N3  UNL     1      24.105   4.106  53.329  1.00  0.00    -0.203 NA
HETATM    9  C19 UNL     1      24.945   2.928  53.437  1.00  0.00     0.149 C 
HETATM   10  H19 UNL     1      23.619   4.256  54.237  1.00  0.00     0.153 HD
ENDROOT
BRANCH   1  11
HETATM   11  O2  UNL     1      22.954   0.224  53.823  1.00  0.00    -0.373 OA
BRANCH  11  12
HETATM   12  C7  UNL     1      21.659   0.304  54.436  1.00  0.00     0.171 C 
BRANCH  12  13
HETATM   13  C6  UNL     1      20.848  -0.845  53.958  1.00  0.00     0.063 C 
BRANCH  13  14
HETATM   14  C5  UNL     1      19.483  -0.546  53.441  1.00  0.00     0.236 C 
HETATM   15  C2  UNL     1      19.397  -0.072  52.041  1.00  0.00     0.024 C 
HETATM   16  C1  UNL     1      20.240   0.327  51.072  1.00  0.00     0.015 C 
HETATM   17  C3  UNL     1      18.008   0.012  51.491  1.00  0.00     0.182 C 
HETATM   18  O1  UNL     1      17.128  -0.183  52.560  1.00  0.00    -0.362 OA
HETATM   19  C4  UNL     1      17.277  -1.385  53.207  1.00  0.00     0.438 C 
HETATM   20  N1  UNL     1      18.644  -1.752  53.499  1.00  0.00     0.112 N 
HETATM   21  H7  UNL     1      18.981  -2.382  52.714  1.00  0.00     0.319 HD
ENDBRANCH  13  14
ENDBRANCH  12  13
ENDBRANCH  11  12
ENDBRANCH   1  11
BRANCH   3  22
HETATM   22  N2  UNL     1      26.351   1.081  52.857  1.00  0.00    -0.352 N 
HETATM   23  C11 UNL     1      27.536   1.636  53.415  1.00  0.00     0.107 C 
HETATM   24  C12 UNL     1      28.517   0.945  53.960  1.00  0.00     0.035 C 
HETATM   25  C13 UNL     1      28.777  -0.278  53.541  1.00  0.00     0.152 C 
HETATM   26  F1  UNL     1      30.029  -0.792  53.651  1.00  0.00    -0.203 F 
HETATM   27  C14 UNL     1      27.624  -0.978  52.972  1.00  0.00     0.089 C 
HETATM   28 CL1  UNL     1      27.802  -2.689  52.721  1.00  0.00    -0.080 Cl
HETATM   29  C15 UNL     1      26.513  -0.340  52.662  1.00  0.00     0.118 C 
ENDBRANCH   3  22
TORSDOF 5
ENDMDL
MODEL 5
REMARK VINA RESULT:      -7.9      2.111      5.621
REMARK  5 active torsions:
REMARK  status: ('A' for Active; 'I' for Inactive)
REMARK    1  A    between atoms: C5_7  and  C6_8 
REMARK    2  A    between atoms: C6_8  and  C7_9 
REMARK    3  A    between atoms: C7_9  and  O2_10 
REMARK    4  A    between atoms: O2_10  and  C8_11 
REMARK    5  A    between atoms: C10_13  and  N2_14 
ROOT
HETATM    1  C8  UNL     1      24.640   2.989  51.826  1.00  0.00     0.138 A 
HETATM    2  C9  UNL     1      23.725   3.150  52.739  1.00  0.00     0.097 A 
HETATM    3  C10 UNL     1      22.585   2.543  51.752  1.00  0.00     0.060 C 
HETATM    4  C16 UNL     1      21.590   3.766  51.877  1.00  0.00     0.041 C 
HETATM    5  C17 UNL     1      22.639   4.848  51.921  1.00  0.00     0.036 C 
HETATM    6  C18 UNL     1      23.698   4.141  51.386  1.00  0.00     0.130 A 
HETATM    7  O3  UNL     1      24.149   4.327  49.985  1.00  0.00    -0.290 OA
HETATM    8  N3  UNL     1      23.152   3.324  49.295  1.00  0.00    -0.203 NA
HETATM    9  C19 UNL     1      22.798   2.390  50.347  1.00  0.00     0.149 C 
HETATM   10  H19 UNL     1      23.850   2.874  48.668  1.00  0.00     0.153 HD
ENDROOT
BRANCH   1  11
HETATM   11  O2  UNL     1      25.519   1.880  52.286  1.00  0.00    -0.373 OA
BRANCH  11  12
HETATM   12  C7  UNL     1      25.907   2.025  53.660  1.00  0.00     0.171 C 
BRANCH  12  13
HETATM   13  C6  UNL     1      26.070   0.668  54.242  1.00  0.00     0.063 C 
BRANCH  13  14
HETATM   14  C5  UNL     1      27.429   0.061  54.181  1.00  0.00     0.236 C 
HETATM   15  C2  UNL     1      27.597  -1.093  53.270  1.00  0.00     0.024 C 
HETATM   16  C1  UNL     1      26.814  -1.901  52.533  1.00  0.00     0.015 C 
HETATM   17  C3  UNL     1      29.012  -1.538  53.073  1.00  0.00     0.182 C 
HETATM   18  O1  UNL     1      29.794  -0.850  54.007  1.00  0.00    -0.362 OA
HETATM   19  C4  UNL     1      29.739   0.517  53.896  1.00  0.00     0.438 C 
HETATM   20  N1  UNL     1      28.410   1.060  53.732  1.00  0.00     0.112 N 
HETATM   21  H7  UNL     1      28.242   1.189  52.692  1.00  0.00     0.319 HD
ENDBRANCH  13  14
ENDBRANCH  12  13
ENDBRANCH  11  12
ENDBRANCH   1  11
BRANCH   3  22
HETATM   22  N2  UNL     1      21.906   1.487  52.376  1.00  0.00    -0.352 N 
HETATM   23  C11 UNL     1      22.476   0.690  53.408  1.00  0.00     0.107 C 
HETATM   24  C12 UNL     1      21.806  -0.125  54.198  1.00  0.00     0.035 C 
HETATM   25  C13 UNL     1      20.708  -0.712  53.765  1.00  0.00     0.152 C 
HETATM   26  F1  UNL     1      20.315  -1.905  54.282  1.00  0.00    -0.203 F 
HETATM   27  C14 UNL     1      20.001   0.029  52.717  1.00  0.00     0.089 C 
HETATM   28 CL1  UNL     1      18.387  -0.501  52.348  1.00  0.00    -0.080 Cl
HETATM   29  C15 UNL     1      20.565   1.039  52.087  1.00  0.00     0.118 C 
ENDBRANCH   3  22
TORSDOF 5
ENDMDL
MODEL 6
REMARK VINA RESULT:      -7.8      1.725      2.354
REMARK  5 active torsions:
REMARK  status: ('A' for Active; 'I' for Inactive)
REMARK    1  A    between atoms: C5_7  and  C6_8 
REMARK    2  A    between atoms: C6_8  and  C7_9 
REMARK    3  A    between atoms: C7_9  and  O2_10 
REMARK    4  A    between atoms: O2_10  and  C8_11 
REMARK    5  A    between atoms: C10_13  and  N2_14 
ROOT
HETATM    1  C8  UNL     1      26.572   2.150  51.425  1.00  0.00     0.138 A 
HETATM    2  C9  UNL     1      26.082   0.945  51.504  1.00  0.00     0.097 A 
HETATM    3  C10 UNL     1      25.654   1.184  53.054  1.00  0.00     0.060 C 
HETATM    4  C16 UNL     1      26.392  -0.090  53.629  1.00  0.00     0.041 C 
HETATM    5  C17 UNL     1      27.599  -0.022  52.728  1.00  0.00     0.036 C 
HETATM    6  C18 UNL     1      27.497   1.298  52.335  1.00  0.00     0.130 A 
HETATM    7  O3  UNL     1      28.363   2.363  52.896  1.00  0.00    -0.290 OA
HETATM    8  N3  UNL     1      27.507   2.695  54.175  1.00  0.00    -0.203 NA
HETATM    9  C19 UNL     1      26.163   2.276  53.825  1.00  0.00     0.149 C 
HETATM   10  H19 UNL     1      27.567   3.731  54.094  1.00  0.00     0.153 HD
ENDROOT
BRANCH   1  11
HETATM   11  O2  UNL     1      25.658   2.929  50.547  1.00  0.00    -0.373 OA
BRANCH  11  12
HETATM   12  C7  UNL     1      26.228   3.184  49.255  1.00  0.00     0.171 C 
BRANCH  12  13
HETATM   13  C6  UNL     1      27.052   4.418  49.346  1.00  0.00     0.063 C 
BRANCH  13  14
HETATM   14  C5  UNL     1      26.335   5.721  49.260  1.00  0.00     0.236 C 
HETATM   15  C2  UNL     1      26.941   6.751  48.387  1.00  0.00     0.024 C 
HETATM   16  C1  UNL     1      28.088   6.930  47.708  1.00  0.00     0.015 C 
HETATM   17  C3  UNL     1      26.090   7.960  48.157  1.00  0.00     0.182 C 
HETATM   18  O1  UNL     1      25.006   7.874  49.036  1.00  0.00    -0.362 OA
HETATM   19  C4  UNL     1      24.233   6.750  48.878  1.00  0.00     0.438 C 
HETATM   20  N1  UNL     1      24.975   5.518  48.741  1.00  0.00     0.112 N 
HETATM   21  H7  UNL     1      25.083   5.322  47.703  1.00  0.00     0.319 HD
ENDBRANCH  13  14
ENDBRANCH  12  13
ENDBRANCH  11  12
ENDBRANCH   1  11
BRANCH   3  22
HETATM   22  N2  UNL     1      24.293   0.903  53.237  1.00  0.00    -0.352 N 
HETATM   23  C11 UNL     1      23.251   1.806  52.886  1.00  0.00     0.107 C 
HETATM   24  C12 UNL     1      21.975   1.494  52.790  1.00  0.00     0.035 C 
HETATM   25  C13 UNL     1      21.470   0.533  53.537  1.00  0.00     0.152 C 
HETATM   26  F1  UNL     1      20.155   0.544  53.876  1.00  0.00    -0.203 F 
HETATM   27  C14 UNL     1      22.438  -0.488  53.942  1.00  0.00     0.089 C 
HETATM   28 CL1  UNL     1      21.786  -1.947  54.627  1.00  0.00    -0.080 Cl
HETATM   29  C15 UNL     1      23.735  -0.305  53.797  1.00  0.00     0.118 C 
ENDBRANCH   3  22
TORSDOF 5
ENDMDL
MODEL 7
REMARK VINA RESULT:      -7.8      3.422      5.333
REMARK  5 active torsions:
REMARK  status: ('A' for Active; 'I' for Inactive)
REMARK    1  A    between atoms: C5_7  and  C6_8 
REMARK    2  A    between atoms: C6_8  and  C7_9 
REMARK    3  A    between atoms: C7_9  and  O2_10 
REMARK    4  A    between atoms: O2_10  and  C8_11 
REMARK    5  A    between atoms: C10_13  and  N2_14 
ROOT
HETATM    1  C8  UNL     1      24.921  -0.037  53.735  1.00  0.00     0.138 A 
HETATM    2  C9  UNL     1      25.289   1.213  53.760  1.00  0.00     0.097 A 
HETATM    3  C10 UNL     1      26.110   1.034  52.368  1.00  0.00     0.060 C 
HETATM    4  C16 UNL     1      27.484   1.595  52.913  1.00  0.00     0.041 C 
HETATM    5  C17 UNL     1      27.387   1.000  54.294  1.00  0.00     0.036 C 
HETATM    6  C18 UNL     1      26.441   0.026  54.042  1.00  0.00     0.130 A 
HETATM    7  O3  UNL     1      26.797  -1.406  53.893  1.00  0.00    -0.290 OA
HETATM    8  N3  UNL     1      27.162  -1.387  52.362  1.00  0.00    -0.203 NA
HETATM    9  C19 UNL     1      26.430  -0.252  51.833  1.00  0.00     0.149 C 
HETATM   10  H19 UNL     1      26.658  -2.260  52.108  1.00  0.00     0.153 HD
ENDROOT
BRANCH   1  11
HETATM   11  O2  UNL     1      23.463  -0.051  53.440  1.00  0.00    -0.373 OA
BRANCH  11  12
HETATM   12  C7  UNL     1      22.724  -0.848  54.377  1.00  0.00     0.171 C 
BRANCH  12  13
HETATM   13  C6  UNL     1      21.298  -0.435  54.314  1.00  0.00     0.063 C 
BRANCH  13  14
HETATM   14  C5  UNL     1      20.772  -0.009  52.987  1.00  0.00     0.236 C 
HETATM   15  C2  UNL     1      19.367  -0.367  52.688  1.00  0.00     0.024 C 
HETATM   16  C1  UNL     1      18.398  -1.128  53.227  1.00  0.00     0.015 C 
HETATM   17  C3  UNL     1      18.810   0.257  51.447  1.00  0.00     0.182 C 
HETATM   18  O1  UNL     1      19.877   0.859  50.774  1.00  0.00    -0.362 OA
HETATM   19  C4  UNL     1      20.536   1.822  51.498  1.00  0.00     0.438 C 
HETATM   20  N1  UNL     1      20.838   1.455  52.862  1.00  0.00     0.112 N 
HETATM   21  H7  UNL     1      20.060   1.837  53.477  1.00  0.00     0.319 HD
ENDBRANCH  13  14
ENDBRANCH  12  13
ENDBRANCH  11  12
ENDBRANCH   1  11
BRANCH   3  22
HETATM   22  N2  UNL     1      25.698   1.990  51.429  1.00  0.00    -0.352 N 
HETATM   23  C11 UNL     1      24.334   2.261  51.132  1.00  0.00     0.107 C 
HETATM   24  C12 UNL     1      23.893   3.311  50.469  1.00  0.00     0.035 C 
HETATM   25  C13 UNL     1      24.649   3.878  49.550  1.00  0.00     0.152 C 
HETATM   26  F1  UNL     1      24.084   4.553  48.515  1.00  0.00    -0.203 F 
HETATM   27  C14 UNL     1      26.087   3.703  49.759  1.00  0.00     0.089 C 
HETATM   28 CL1  UNL     1      27.138   4.699  48.797  1.00  0.00    -0.080 Cl
HETATM   29  C15 UNL     1      26.556   2.830  50.628  1.00  0.00     0.118 C 
ENDBRANCH   3  22
TORSDOF 5
ENDMDL
MODEL 8
REMARK VINA RESULT:      -7.6      2.526      5.275
REMARK  5 active torsions:
REMARK  status: ('A' for Active; 'I' for Inactive)
REMARK    1  A    between atoms: C5_7  and  C6_8 
REMARK    2  A    between atoms: C6_8  and  C7_9 
REMARK    3  A    between atoms: C7_9  and  O2_10 
REMARK    4  A    between atoms: O2_10  and  C8_11 
REMARK    5  A    between atoms: C10_13  and  N2_14 
ROOT
HETATM    1  C8  UNL     1      20.698   3.058  51.409  1.00  0.00     0.138 A 
HETATM    2  C9  UNL     1      20.102   2.324  52.306  1.00  0.00     0.097 A 
HETATM    3  C10 UNL     1      20.775   0.975  51.699  1.00  0.00     0.060 C 
HETATM    4  C16 UNL     1      19.419   0.183  51.512  1.00  0.00     0.041 C 
HETATM    5  C17 UNL     1      18.580   1.361  51.086  1.00  0.00     0.036 C 
HETATM    6  C18 UNL     1      19.593   2.221  50.710  1.00  0.00     0.130 A 
HETATM    7  O3  UNL     1      19.935   2.471  49.289  1.00  0.00    -0.290 OA
HETATM    8  N3  UNL     1      20.912   1.254  49.077  1.00  0.00    -0.203 NA
HETATM    9  C19 UNL     1      21.393   0.945  50.411  1.00  0.00     0.149 C 
HETATM   10  H19 UNL     1      21.650   1.779  48.567  1.00  0.00     0.153 HD
ENDROOT
BRANCH   1  11
HETATM   11  O2  UNL     1      21.745   3.841  52.118  1.00  0.00    -0.373 OA
BRANCH  11  12
HETATM   12  C7  UNL     1      22.387   4.796  51.262  1.00  0.00     0.171 C 
BRANCH  12  13
HETATM   13  C6  UNL     1      23.383   4.076  50.427  1.00  0.00     0.063 C 
BRANCH  13  14
HETATM   14  C5  UNL     1      24.377   3.225  51.138  1.00  0.00     0.236 C 
HETATM   15  C2  UNL     1      25.752   3.217  50.590  1.00  0.00     0.024 C 
HETATM   16  C1  UNL     1      26.388   3.666  49.493  1.00  0.00     0.015 C 
HETATM   17  C3  UNL     1      26.767   2.528  51.447  1.00  0.00     0.182 C 
HETATM   18  O1  UNL     1      26.068   1.871  52.465  1.00  0.00    -0.362 OA
HETATM   19  C4  UNL     1      25.307   2.696  53.255  1.00  0.00     0.438 C 
HETATM   20  N1  UNL     1      24.515   3.667  52.534  1.00  0.00     0.112 N 
HETATM   21  H7  UNL     1      25.068   4.572  52.502  1.00  0.00     0.319 HD
ENDBRANCH  13  14
ENDBRANCH  12  13
ENDBRANCH  11  12
ENDBRANCH   1  11
BRANCH   3  22
HETATM   22  N2  UNL     1      21.447   0.266  52.705  1.00  0.00    -0.352 N 
HETATM   23  C11 UNL     1      20.789  -0.335  53.814  1.00  0.00     0.107 C 
HETATM   24  C12 UNL     1      21.327  -1.220  54.629  1.00  0.00     0.035 C 
HETATM   25  C13 UNL     1      22.624  -1.203  54.862  1.00  0.00     0.152 C 
HETATM   26  F1  UNL     1      23.119  -1.681  56.033  1.00  0.00    -0.203 F 
HETATM   27  C14 UNL     1      23.425  -0.636  53.775  1.00  0.00     0.089 C 
HETATM   28 CL1  UNL     1      25.142  -0.893  53.862  1.00  0.00    -0.080 Cl
HETATM   29  C15 UNL     1      22.870   0.037  52.788  1.00  0.00     0.118 C 
ENDBRANCH   3  22
TORSDOF 5
ENDMDL
MODEL 9
REMARK VINA RESULT:      -7.5      1.753      5.434
REMARK  5 active torsions:
REMARK  status: ('A' for Active; 'I' for Inactive)
REMARK    1  A    between atoms: C5_7  and  C6_8 
REMARK    2  A    between atoms: C6_8  and  C7_9 
REMARK    3  A    between atoms: C7_9  and  O2_10 
REMARK    4  A    between atoms: O2_10  and  C8_11 
REMARK    5  A    between atoms: C10_13  and  N2_14 
ROOT
HETATM    1  C8  UNL     1      24.014   3.719  50.436  1.00  0.00     0.138 A 
HETATM    2  C9  UNL     1      23.698   3.838  51.695  1.00  0.00     0.097 A 
HETATM    3  C10 UNL     1      22.271   3.102  51.442  1.00  0.00     0.060 C 
HETATM    4  C16 UNL     1      21.380   4.242  52.080  1.00  0.00     0.041 C 
HETATM    5  C17 UNL     1      22.195   5.408  51.581  1.00  0.00     0.036 C 
HETATM    6  C18 UNL     1      22.880   4.771  50.565  1.00  0.00     0.130 A 
HETATM    7  O3  UNL     1      22.517   4.940  49.137  1.00  0.00    -0.290 OA
HETATM    8  N3  UNL     1      21.402   3.831  49.058  1.00  0.00    -0.203 NA
HETATM    9  C19 UNL     1      21.734   2.913  50.131  1.00  0.00     0.149 C 
HETATM   10  H19 UNL     1      21.708   3.416  48.155  1.00  0.00     0.153 HD
ENDROOT
BRANCH   1  11
HETATM   11  O2  UNL     1      25.100   2.705  50.359  1.00  0.00    -0.373 OA
BRANCH  11  12
HETATM   12  C7  UNL     1      26.075   2.870  51.399  1.00  0.00     0.171 C 
BRANCH  12  13
HETATM   13  C6  UNL     1      26.721   1.554  51.640  1.00  0.00     0.063 C 
BRANCH  13  14
HETATM   14  C5  UNL     1      27.396   1.359  52.955  1.00  0.00     0.236 C 
HETATM   15  C2  UNL     1      27.742  -0.033  53.319  1.00  0.00     0.024 C 
HETATM   16  C1  UNL     1      27.496  -1.273  52.858  1.00  0.00     0.015 C 
HETATM   17  C3  UNL     1      28.602  -0.169  54.535  1.00  0.00     0.182 C 
HETATM   18  O1  UNL     1      28.667   1.092  55.137  1.00  0.00    -0.362 OA
HETATM   19  C4  UNL     1      29.185   2.078  54.335  1.00  0.00     0.438 C 
HETATM   20  N1  UNL     1      28.666   2.099  52.986  1.00  0.00     0.112 N 
HETATM   21  H7  UNL     1      29.340   1.552  52.375  1.00  0.00     0.319 HD
ENDBRANCH  13  14
ENDBRANCH  12  13
ENDBRANCH  11  12
ENDBRANCH   1  11
BRANCH   3  22
HETATM   22  N2  UNL     1      22.116   2.017  52.317  1.00  0.00    -0.352 N 
HETATM   23  C11 UNL     1      20.854   1.582  52.810  1.00  0.00     0.107 C 
HETATM   24  C12 UNL     1      20.628   0.430  53.409  1.00  0.00     0.035 C 
HETATM   25  C13 UNL     1      21.582  -0.150  54.110  1.00  0.00     0.152 C 
HETATM   26  F1  UNL     1      21.271  -0.981  55.139  1.00  0.00    -0.203 F 
HETATM   27  C14 UNL     1      22.939   0.190  53.680  1.00  0.00     0.089 C 
HETATM   28 CL1  UNL     1      24.224  -0.789  54.321  1.00  0.00    -0.080 Cl
HETATM   29  C15 UNL     1      23.170   1.190  52.853  1.00  0.00     0.118 C 
ENDBRANCH   3  22
TORSDOF 5
ENDMDL
