MODEL 1
REMARK VINA RESULT:      -8.3      0.000      0.000
REMARK  7 active torsions:
REMARK  status: ('A' for Active; 'I' for Inactive)
REMARK    1  A    between atoms: O1_2  and  C2_3 
REMARK    2  A    between atoms: C6_9  and  O2_10 
REMARK    3  A    between atoms: O2_10  and  C7_11 
REMARK    4  A    between atoms: C10_14  and  C11_15 
REMARK       I    between atoms: C11_15  and  N3_17 
REMARK    5  A    between atoms: N3_17  and  C12_18 
REMARK    6  A    between atoms: C18_24  and  N4_25 
REMARK    7  A    between atoms: C21_28  and  O4_29 
ROOT
HETATM    1  C7  UNL     1      26.005   4.834  49.443  1.00  0.00     0.101 A 
HETATM    2  C8  UNL     1      26.808   3.786  49.376  1.00  0.00     0.018 A 
HETATM    3  C9  UNL     1      26.352   2.776  50.329  1.00  0.00     0.077 A 
HETATM    4  C10 UNL     1      25.157   3.344  50.992  1.00  0.00     0.042 A 
HETATM    5  C18 UNL     1      25.008   4.522  50.444  1.00  0.00     0.072 A 
ENDROOT
BRANCH   1   6
HETATM    6  O2  UNL     1      26.210   5.945  48.639  1.00  0.00    -0.289 OA
BRANCH   6   7
HETATM    7  C6  UNL     1      26.512   7.213  49.094  1.00  0.00     0.183 A 
HETATM    8  N2  UNL     1      25.699   8.063  49.747  1.00  0.00    -0.217 NA
HETATM    9  C5  UNL     1      26.084   9.278  50.150  1.00  0.00     0.236 A 
HETATM   10  N1  UNL     1      27.354   9.687  49.896  1.00  0.00    -0.241 NA
HETATM   11  C4  UNL     1      28.229   8.881  49.243  1.00  0.00     0.075 A 
HETATM   12  C3  UNL     1      29.515   9.333  49.002  1.00  0.00     0.072 A 
HETATM   13  C19 UNL     1      27.803   7.627  48.835  1.00  0.00     0.049 A 
HETATM   14  C2  UNL     1      30.397   8.485  48.327  1.00  0.00     0.103 A 
HETATM   15  C21 UNL     1      30.017   7.229  47.904  1.00  0.00     0.102 A 
HETATM   16  C20 UNL     1      28.730   6.830  48.168  1.00  0.00     0.057 A 
BRANCH  14  17
HETATM   17  O1  UNL     1      31.699   8.898  48.063  1.00  0.00    -0.353 OA
HETATM   18  C1  UNL     1      31.989  10.110  47.394  1.00  0.00     0.210 C 
ENDBRANCH  14  17
BRANCH  15  19
HETATM   19  O4  UNL     1      30.941   6.435  47.237  1.00  0.00    -0.353 OA
HETATM   20  C22 UNL     1      31.204   5.144  47.756  1.00  0.00     0.210 C 
ENDBRANCH  15  19
ENDBRANCH   6   7
ENDBRANCH   1   6
BRANCH   5  21
HETATM   21  N4  UNL     1      24.014   5.503  50.706  1.00  0.00    -0.396 N 
HETATM   22  H15 UNL     1      23.830   6.532  50.749  1.00  0.00     0.156 HD
HETATM   23  H16 UNL     1      22.992   5.569  50.981  1.00  0.00     0.156 HD
ENDBRANCH   5  21
BRANCH   4  24
HETATM   24  C11 UNL     1      24.357   2.698  52.022  1.00  0.00     0.254 C 
HETATM   25  O3  UNL     1      24.188   3.339  53.097  1.00  0.00    -0.268 OA
HETATM   26  N3  UNL     1      23.752   1.446  51.952  1.00  0.00    -0.323 N 
HETATM   27  H9  UNL     1      23.930   0.973  51.038  1.00  0.00     0.169 HD
BRANCH  26  28
HETATM   28  C12 UNL     1      22.963   0.737  52.886  1.00  0.00     0.035 A 
HETATM   29  C13 UNL     1      21.637   0.928  53.168  1.00  0.00     0.029 A 
HETATM   30  C14 UNL     1      20.905   0.215  54.087  1.00  0.00     0.002 A 
HETATM   31  C15 UNL     1      21.545  -0.778  54.793  1.00  0.00     0.000 A 
HETATM   32  C16 UNL     1      22.861  -1.016  54.560  1.00  0.00     0.002 A 
HETATM   33  C17 UNL     1      23.527  -0.272  53.634  1.00  0.00     0.029 A 
ENDBRANCH  26  28
ENDBRANCH   4  24
TORSDOF 7
ENDMDL
MODEL 2
REMARK VINA RESULT:      -8.1      7.431     11.027
REMARK  7 active torsions:
REMARK  status: ('A' for Active; 'I' for Inactive)
REMARK    1  A    between atoms: O1_2  and  C2_3 
REMARK    2  A    between atoms: C6_9  and  O2_10 
REMARK    3  A    between atoms: O2_10  and  C7_11 
REMARK    4  A    between atoms: C10_14  and  C11_15 
REMARK       I    between atoms: C11_15  and  N3_17 
REMARK    5  A    between atoms: N3_17  and  C12_18 
REMARK    6  A    between atoms: C18_24  and  N4_25 
REMARK    7  A    between atoms: C21_28  and  O4_29 
ROOT
HETATM    1  C7  UNL     1      21.365  -0.475  53.211  1.00  0.00     0.101 A 
HETATM    2  C8  UNL     1      21.194  -1.178  54.317  1.00  0.00     0.018 A 
HETATM    3  C9  UNL     1      22.495  -1.401  54.945  1.00  0.00     0.077 A 
HETATM    4  C10 UNL     1      23.492  -0.739  54.074  1.00  0.00     0.042 A 
HETATM    5  C18 UNL     1      22.787  -0.227  53.099  1.00  0.00     0.072 A 
ENDROOT
BRANCH   1   6
HETATM    6  O2  UNL     1      20.287  -0.120  52.415  1.00  0.00    -0.289 OA
BRANCH   6   7
HETATM    7  C6  UNL     1      19.843   1.170  52.204  1.00  0.00     0.183 A 
HETATM    8  N2  UNL     1      20.543   2.309  52.343  1.00  0.00    -0.217 NA
HETATM    9  C5  UNL     1      20.023   3.520  52.114  1.00  0.00     0.236 A 
HETATM   10  N1  UNL     1      18.727   3.618  51.720  1.00  0.00    -0.241 NA
HETATM   11  C4  UNL     1      17.962   2.509  51.557  1.00  0.00     0.075 A 
HETATM   12  C3  UNL     1      16.645   2.651  51.153  1.00  0.00     0.072 A 
HETATM   13  C19 UNL     1      18.526   1.268  51.802  1.00  0.00     0.049 A 
HETATM   14  C2  UNL     1      15.876   1.494  50.994  1.00  0.00     0.103 A 
HETATM   15  C21 UNL     1      16.396   0.239  51.226  1.00  0.00     0.102 A 
HETATM   16  C20 UNL     1      17.707   0.155  51.625  1.00  0.00     0.057 A 
BRANCH  14  17
HETATM   17  O1  UNL     1      14.548   1.587  50.590  1.00  0.00    -0.353 OA
HETATM   18  C1  UNL     1      13.496   1.845  51.500  1.00  0.00     0.210 C 
ENDBRANCH  14  17
BRANCH  15  19
HETATM   19  O4  UNL     1      15.579  -0.871  51.050  1.00  0.00    -0.353 OA
HETATM   20  C22 UNL     1      15.295  -1.673  52.182  1.00  0.00     0.210 C 
ENDBRANCH  15  19
ENDBRANCH   6   7
ENDBRANCH   1   6
BRANCH   5  21
HETATM   21  N4  UNL     1      23.234   0.521  51.977  1.00  0.00    -0.396 N 
HETATM   22  H15 UNL     1      23.149   1.439  51.483  1.00  0.00     0.156 HD
HETATM   23  H16 UNL     1      23.881   0.423  51.143  1.00  0.00     0.156 HD
ENDBRANCH   5  21
BRANCH   4  24
HETATM   24  C11 UNL     1      24.931  -0.693  54.295  1.00  0.00     0.254 C 
HETATM   25  O3  UNL     1      25.329  -0.859  55.482  1.00  0.00    -0.268 OA
HETATM   26  N3  UNL     1      25.919  -0.489  53.337  1.00  0.00    -0.323 N 
HETATM   27  H9  UNL     1      25.521  -0.360  52.380  1.00  0.00     0.169 HD
BRANCH  26  28
HETATM   28  C12 UNL     1      27.327  -0.429  53.448  1.00  0.00     0.035 A 
HETATM   29  C13 UNL     1      28.086   0.648  53.822  1.00  0.00     0.029 A 
HETATM   30  C14 UNL     1      29.457   0.664  53.918  1.00  0.00     0.002 A 
HETATM   31  C15 UNL     1      30.140  -0.491  53.613  1.00  0.00     0.000 A 
HETATM   32  C16 UNL     1      29.444  -1.594  53.234  1.00  0.00     0.002 A 
HETATM   33  C17 UNL     1      28.086  -1.542  53.161  1.00  0.00     0.029 A 
ENDBRANCH  26  28
ENDBRANCH   4  24
TORSDOF 7
ENDMDL
MODEL 3
REMARK VINA RESULT:      -7.9      2.218     10.080
REMARK  7 active torsions:
REMARK  status: ('A' for Active; 'I' for Inactive)
REMARK    1  A    between atoms: O1_2  and  C2_3 
REMARK    2  A    between atoms: C6_9  and  O2_10 
REMARK    3  A    between atoms: O2_10  and  C7_11 
REMARK    4  A    between atoms: C10_14  and  C11_15 
REMARK       I    between atoms: C11_15  and  N3_17 
REMARK    5  A    between atoms: N3_17  and  C12_18 
REMARK    6  A    between atoms: C18_24  and  N4_25 
REMARK    7  A    between atoms: C21_28  and  O4_29 
ROOT
HETATM    1  C7  UNL     1      25.293   4.605  49.861  1.00  0.00     0.101 A 
HETATM    2  C8  UNL     1      24.364   5.487  50.187  1.00  0.00     0.018 A 
HETATM    3  C9  UNL     1      24.858   6.831  49.892  1.00  0.00     0.077 A 
HETATM    4  C10 UNL     1      26.220   6.656  49.339  1.00  0.00     0.042 A 
HETATM    5  C18 UNL     1      26.413   5.363  49.346  1.00  0.00     0.072 A 
ENDROOT
BRANCH   1   6
HETATM    6  O2  UNL     1      25.083   3.246  50.038  1.00  0.00    -0.289 OA
BRANCH   6   7
HETATM    7  C6  UNL     1      25.632   2.480  51.046  1.00  0.00     0.183 A 
HETATM    8  N2  UNL     1      26.927   2.397  51.398  1.00  0.00    -0.217 NA
HETATM    9  C5  UNL     1      27.365   1.621  52.396  1.00  0.00     0.236 A 
HETATM   10  N1  UNL     1      26.471   0.878  53.096  1.00  0.00    -0.241 NA
HETATM   11  C4  UNL     1      25.148   0.913  52.796  1.00  0.00     0.075 A 
HETATM   12  C3  UNL     1      24.266   0.140  53.533  1.00  0.00     0.072 A 
HETATM   13  C19 UNL     1      24.721   1.725  51.758  1.00  0.00     0.049 A 
HETATM   14  C2  UNL     1      22.909   0.193  53.205  1.00  0.00     0.103 A 
HETATM   15  C21 UNL     1      22.439   0.987  52.180  1.00  0.00     0.102 A 
HETATM   16  C20 UNL     1      23.357   1.733  51.481  1.00  0.00     0.057 A 
BRANCH  14  17
HETATM   17  O1  UNL     1      21.987  -0.566  53.919  1.00  0.00    -0.353 OA
HETATM   18  C1  UNL     1      22.369  -1.416  54.983  1.00  0.00     0.210 C 
ENDBRANCH  14  17
BRANCH  15  19
HETATM   19  O4  UNL     1      21.078   0.994  51.903  1.00  0.00    -0.353 OA
HETATM   20  C22 UNL     1      20.311   2.088  52.373  1.00  0.00     0.210 C 
ENDBRANCH  15  19
ENDBRANCH   6   7
ENDBRANCH   1   6
BRANCH   5  21
HETATM   21  N4  UNL     1      27.556   4.634  48.920  1.00  0.00    -0.396 N 
HETATM   22  H15 UNL     1      28.539   4.726  48.573  1.00  0.00     0.156 HD
HETATM   23  H16 UNL     1      27.873   3.632  48.780  1.00  0.00     0.156 HD
ENDBRANCH   5  21
BRANCH   4  24
HETATM   24  C11 UNL     1      27.112   7.720  48.899  1.00  0.00     0.254 C 
HETATM   25  O3  UNL     1      27.386   7.758  47.667  1.00  0.00    -0.268 OA
HETATM   26  N3  UNL     1      27.696   8.705  49.689  1.00  0.00    -0.323 N 
HETATM   27  H9  UNL     1      27.427   8.616  50.695  1.00  0.00     0.169 HD
BRANCH  26  28
HETATM   28  C12 UNL     1      28.566   9.770  49.361  1.00  0.00     0.035 A 
HETATM   29  C13 UNL     1      28.219  11.038  48.979  1.00  0.00     0.029 A 
HETATM   30  C14 UNL     1      29.098  12.047  48.669  1.00  0.00     0.002 A 
HETATM   31  C15 UNL     1      30.446  11.776  48.741  1.00  0.00     0.000 A 
HETATM   32  C16 UNL     1      30.854  10.536  49.114  1.00  0.00     0.002 A 
HETATM   33  C17 UNL     1      29.929   9.582  49.409  1.00  0.00     0.029 A 
ENDBRANCH  26  28
ENDBRANCH   4  24
TORSDOF 7
ENDMDL
MODEL 4
REMARK VINA RESULT:      -7.8      2.175      9.515
REMARK  7 active torsions:
REMARK  status: ('A' for Active; 'I' for Inactive)
REMARK    1  A    between atoms: O1_2  and  C2_3 
REMARK    2  A    between atoms: C6_9  and  O2_10 
REMARK    3  A    between atoms: O2_10  and  C7_11 
REMARK    4  A    between atoms: C10_14  and  C11_15 
REMARK       I    between atoms: C11_15  and  N3_17 
REMARK    5  A    between atoms: N3_17  and  C12_18 
REMARK    6  A    between atoms: C18_24  and  N4_25 
REMARK    7  A    between atoms: C21_28  and  O4_29 
ROOT
HETATM    1  C7  UNL     1      24.689   4.932  50.604  1.00  0.00     0.101 A 
HETATM    2  C8  UNL     1      25.212   4.129  49.694  1.00  0.00     0.018 A 
HETATM    3  C9  UNL     1      26.175   4.881  48.892  1.00  0.00     0.077 A 
HETATM    4  C10 UNL     1      26.174   6.259  49.433  1.00  0.00     0.042 A 
HETATM    5  C18 UNL     1      25.305   6.227  50.410  1.00  0.00     0.072 A 
ENDROOT
BRANCH   1   6
HETATM    6  O2  UNL     1      23.740   4.472  51.505  1.00  0.00    -0.289 OA
BRANCH   6   7
HETATM    7  C6  UNL     1      23.143   3.228  51.468  1.00  0.00     0.183 A 
HETATM    8  N2  UNL     1      22.036   2.872  50.792  1.00  0.00    -0.217 NA
HETATM    9  C5  UNL     1      21.531   1.634  50.818  1.00  0.00     0.236 A 
HETATM   10  N1  UNL     1      22.154   0.681  51.556  1.00  0.00    -0.241 NA
HETATM   11  C4  UNL     1      23.277   0.970  52.263  1.00  0.00     0.075 A 
HETATM   12  C3  UNL     1      23.884  -0.030  53.004  1.00  0.00     0.072 A 
HETATM   13  C19 UNL     1      23.779   2.260  52.219  1.00  0.00     0.049 A 
HETATM   14  C2  UNL     1      25.039   0.292  53.724  1.00  0.00     0.103 A 
HETATM   15  C21 UNL     1      25.574   1.562  53.709  1.00  0.00     0.102 A 
HETATM   16  C20 UNL     1      24.931   2.516  52.957  1.00  0.00     0.057 A 
BRANCH  14  17
HETATM   17  O1  UNL     1      25.683  -0.680  54.483  1.00  0.00    -0.353 OA
HETATM   18  C1  UNL     1      25.137  -1.187  55.685  1.00  0.00     0.210 C 
ENDBRANCH  14  17
BRANCH  15  19
HETATM   19  O4  UNL     1      26.723   1.818  54.446  1.00  0.00    -0.353 OA
HETATM   20  C22 UNL     1      27.895   2.185  53.742  1.00  0.00     0.210 C 
ENDBRANCH  15  19
ENDBRANCH   6   7
ENDBRANCH   1   6
BRANCH   5  21
HETATM   21  N4  UNL     1      24.905   7.279  51.277  1.00  0.00    -0.396 N 
HETATM   22  H15 UNL     1      24.734   7.532  52.278  1.00  0.00     0.156 HD
HETATM   23  H16 UNL     1      24.602   8.294  51.235  1.00  0.00     0.156 HD
ENDBRANCH   5  21
BRANCH   4  24
HETATM   24  C11 UNL     1      26.979   7.372  48.951  1.00  0.00     0.254 C 
HETATM   25  O3  UNL     1      26.907   7.634  47.717  1.00  0.00    -0.268 OA
HETATM   26  N3  UNL     1      27.823   8.184  49.704  1.00  0.00    -0.323 N 
HETATM   27  H9  UNL     1      27.834   7.914  50.712  1.00  0.00     0.169 HD
BRANCH  26  28
HETATM   28  C12 UNL     1      28.638   9.278  49.334  1.00  0.00     0.035 A 
HETATM   29  C13 UNL     1      28.238  10.561  49.069  1.00  0.00     0.029 A 
HETATM   30  C14 UNL     1      29.065  11.598  48.712  1.00  0.00     0.002 A 
HETATM   31  C15 UNL     1      30.414  11.343  48.607  1.00  0.00     0.000 A 
HETATM   32  C16 UNL     1      30.874  10.090  48.856  1.00  0.00     0.002 A 
HETATM   33  C17 UNL     1      29.999   9.108  49.206  1.00  0.00     0.029 A 
ENDBRANCH  26  28
ENDBRANCH   4  24
TORSDOF 7
ENDMDL
MODEL 5
REMARK VINA RESULT:      -7.7      4.892      8.409
REMARK  7 active torsions:
REMARK  status: ('A' for Active; 'I' for Inactive)
REMARK    1  A    between atoms: O1_2  and  C2_3 
REMARK    2  A    between atoms: C6_9  and  O2_10 
REMARK    3  A    between atoms: O2_10  and  C7_11 
REMARK    4  A    between atoms: C10_14  and  C11_15 
REMARK       I    between atoms: C11_15  and  N3_17 
REMARK    5  A    between atoms: N3_17  and  C12_18 
REMARK    6  A    between atoms: C18_24  and  N4_25 
REMARK    7  A    between atoms: C21_28  and  O4_29 
ROOT
HETATM    1  C7  UNL     1      20.845   1.556  51.186  1.00  0.00     0.101 A 
HETATM    2  C8  UNL     1      20.136   0.557  50.691  1.00  0.00     0.018 A 
HETATM    3  C9  UNL     1      18.722   0.928  50.695  1.00  0.00     0.077 A 
HETATM    4  C10 UNL     1      18.656   2.295  51.260  1.00  0.00     0.042 A 
HETATM    5  C18 UNL     1      19.901   2.600  51.522  1.00  0.00     0.072 A 
ENDROOT
BRANCH   1   6
HETATM    6  O2  UNL     1      22.224   1.469  51.298  1.00  0.00    -0.289 OA
BRANCH   6   7
HETATM    7  C6  UNL     1      22.902   0.772  52.277  1.00  0.00     0.183 A 
HETATM    8  N2  UNL     1      22.395  -0.125  53.142  1.00  0.00    -0.217 NA
HETATM    9  C5  UNL     1      23.136  -0.754  54.061  1.00  0.00     0.236 A 
HETATM   10  N1  UNL     1      24.465  -0.484  54.136  1.00  0.00    -0.241 NA
HETATM   11  C4  UNL     1      25.044   0.408  53.293  1.00  0.00     0.075 A 
HETATM   12  C3  UNL     1      26.402   0.656  53.400  1.00  0.00     0.072 A 
HETATM   13  C19 UNL     1      24.253   1.046  52.351  1.00  0.00     0.049 A 
HETATM   14  C2  UNL     1      26.975   1.581  52.522  1.00  0.00     0.103 A 
HETATM   15  C21 UNL     1      26.227   2.238  51.569  1.00  0.00     0.102 A 
HETATM   16  C20 UNL     1      24.884   1.955  51.506  1.00  0.00     0.057 A 
BRANCH  14  17
HETATM   17  O1  UNL     1      28.336   1.861  52.593  1.00  0.00    -0.353 OA
HETATM   18  C1  UNL     1      28.929   2.451  53.733  1.00  0.00     0.210 C 
ENDBRANCH  14  17
BRANCH  15  19
HETATM   19  O4  UNL     1      26.856   3.145  50.726  1.00  0.00    -0.353 OA
HETATM   20  C22 UNL     1      26.102   3.695  49.661  1.00  0.00     0.210 C 
ENDBRANCH  15  19
ENDBRANCH   6   7
ENDBRANCH   1   6
BRANCH   5  21
HETATM   21  N4  UNL     1      20.422   3.799  52.079  1.00  0.00    -0.396 N 
HETATM   22  H15 UNL     1      20.791   4.235  52.956  1.00  0.00     0.156 HD
HETATM   23  H16 UNL     1      20.651   4.793  51.793  1.00  0.00     0.156 HD
ENDBRANCH   5  21
BRANCH   4  24
HETATM   24  C11 UNL     1      17.450   3.085  51.461  1.00  0.00     0.254 C 
HETATM   25  O3  UNL     1      17.525   4.316  51.188  1.00  0.00    -0.268 OA
HETATM   26  N3  UNL     1      16.218   2.631  51.921  1.00  0.00    -0.323 N 
HETATM   27  H9  UNL     1      16.226   1.607  52.126  1.00  0.00     0.169 HD
BRANCH  26  28
HETATM   28  C12 UNL     1      14.999   3.310  52.147  1.00  0.00     0.035 A 
HETATM   29  C13 UNL     1      14.000   3.549  51.242  1.00  0.00     0.029 A 
HETATM   30  C14 UNL     1      12.827   4.216  51.504  1.00  0.00     0.002 A 
HETATM   31  C15 UNL     1      12.624   4.690  52.780  1.00  0.00     0.000 A 
HETATM   32  C16 UNL     1      13.578   4.485  53.724  1.00  0.00     0.002 A 
HETATM   33  C17 UNL     1      14.718   3.815  53.397  1.00  0.00     0.029 A 
ENDBRANCH  26  28
ENDBRANCH   4  24
TORSDOF 7
ENDMDL
MODEL 6
REMARK VINA RESULT:      -7.5      3.199      4.486
REMARK  7 active torsions:
REMARK  status: ('A' for Active; 'I' for Inactive)
REMARK    1  A    between atoms: O1_2  and  C2_3 
REMARK    2  A    between atoms: C6_9  and  O2_10 
REMARK    3  A    between atoms: O2_10  and  C7_11 
REMARK    4  A    between atoms: C10_14  and  C11_15 
REMARK       I    between atoms: C11_15  and  N3_17 
REMARK    5  A    between atoms: N3_17  and  C12_18 
REMARK    6  A    between atoms: C18_24  and  N4_25 
REMARK    7  A    between atoms: C21_28  and  O4_29 
ROOT
HETATM    1  C7  UNL     1      26.967   6.983  48.909  1.00  0.00     0.101 A 
HETATM    2  C8  UNL     1      27.837   6.252  48.234  1.00  0.00     0.018 A 
HETATM    3  C9  UNL     1      27.636   4.844  48.568  1.00  0.00     0.077 A 
HETATM    4  C10 UNL     1      26.522   4.806  49.542  1.00  0.00     0.042 A 
HETATM    5  C18 UNL     1      26.181   6.059  49.697  1.00  0.00     0.072 A 
ENDROOT
BRANCH   1   6
HETATM    6  O2  UNL     1      26.937   8.363  48.778  1.00  0.00    -0.289 OA
BRANCH   6   7
HETATM    7  C6  UNL     1      28.024   9.201  48.924  1.00  0.00     0.183 A 
HETATM    8  N2  UNL     1      29.282   8.859  49.251  1.00  0.00    -0.217 NA
HETATM    9  C5  UNL     1      30.275   9.748  49.369  1.00  0.00     0.236 A 
HETATM   10  N1  UNL     1      30.013  11.062  49.150  1.00  0.00    -0.241 NA
HETATM   11  C4  UNL     1      28.766  11.479  48.815  1.00  0.00     0.075 A 
HETATM   12  C3  UNL     1      28.540  12.828  48.599  1.00  0.00     0.072 A 
HETATM   13  C19 UNL     1      27.757  10.537  48.700  1.00  0.00     0.049 A 
HETATM   14  C2  UNL     1      27.246  13.233  48.256  1.00  0.00     0.103 A 
HETATM   15  C21 UNL     1      26.212  12.331  48.130  1.00  0.00     0.102 A 
HETATM   16  C20 UNL     1      26.492  11.005  48.355  1.00  0.00     0.057 A 
BRANCH  14  17
HETATM   17  O1  UNL     1      26.972  14.578  48.030  1.00  0.00    -0.353 OA
HETATM   18  C1  UNL     1      27.415  15.256  46.871  1.00  0.00     0.210 C 
ENDBRANCH  14  17
BRANCH  15  19
HETATM   19  O4  UNL     1      24.949  12.797  47.787  1.00  0.00    -0.353 OA
HETATM   20  C22 UNL     1      23.953  11.843  47.468  1.00  0.00     0.210 C 
ENDBRANCH  15  19
ENDBRANCH   6   7
ENDBRANCH   1   6
BRANCH   5  21
HETATM   21  N4  UNL     1      25.161   6.605  50.522  1.00  0.00    -0.396 N 
HETATM   22  H15 UNL     1      24.240   6.403  50.977  1.00  0.00     0.156 HD
HETATM   23  H16 UNL     1      24.925   7.504  51.032  1.00  0.00     0.156 HD
ENDBRANCH   5  21
BRANCH   4  24
HETATM   24  C11 UNL     1      25.963   3.614  50.163  1.00  0.00     0.254 C 
HETATM   25  O3  UNL     1      24.907   3.148  49.651  1.00  0.00    -0.268 OA
HETATM   26  N3  UNL     1      26.468   2.926  51.262  1.00  0.00    -0.323 N 
HETATM   27  H9  UNL     1      27.341   3.363  51.634  1.00  0.00     0.169 HD
BRANCH  26  28
HETATM   28  C12 UNL     1      26.006   1.771  51.933  1.00  0.00     0.035 A 
HETATM   29  C13 UNL     1      24.847   1.635  52.651  1.00  0.00     0.029 A 
HETATM   30  C14 UNL     1      24.433   0.491  53.290  1.00  0.00     0.002 A 
HETATM   31  C15 UNL     1      25.240  -0.621  53.212  1.00  0.00     0.000 A 
HETATM   32  C16 UNL     1      26.403  -0.550  52.515  1.00  0.00     0.002 A 
HETATM   33  C17 UNL     1      26.754   0.615  51.905  1.00  0.00     0.029 A 
ENDBRANCH  26  28
ENDBRANCH   4  24
TORSDOF 7
ENDMDL
MODEL 7
REMARK VINA RESULT:      -7.5      2.061      3.177
REMARK  7 active torsions:
REMARK  status: ('A' for Active; 'I' for Inactive)
REMARK    1  A    between atoms: O1_2  and  C2_3 
REMARK    2  A    between atoms: C6_9  and  O2_10 
REMARK    3  A    between atoms: O2_10  and  C7_11 
REMARK    4  A    between atoms: C10_14  and  C11_15 
REMARK       I    between atoms: C11_15  and  N3_17 
REMARK    5  A    between atoms: N3_17  and  C12_18 
REMARK    6  A    between atoms: C18_24  and  N4_25 
REMARK    7  A    between atoms: C21_28  and  O4_29 
ROOT
HETATM    1  C7  UNL     1      25.835   5.986  49.042  1.00  0.00     0.101 A 
HETATM    2  C8  UNL     1      24.761   6.699  49.330  1.00  0.00     0.018 A 
HETATM    3  C9  UNL     1      23.961   5.978  50.318  1.00  0.00     0.077 A 
HETATM    4  C10 UNL     1      24.690   4.722  50.601  1.00  0.00     0.042 A 
HETATM    5  C18 UNL     1      25.754   4.783  49.842  1.00  0.00     0.072 A 
ENDROOT
BRANCH   1   6
HETATM    6  O2  UNL     1      26.772   6.440  48.126  1.00  0.00    -0.289 OA
BRANCH   6   7
HETATM    7  C6  UNL     1      28.140   6.428  48.312  1.00  0.00     0.183 A 
HETATM    8  N2  UNL     1      28.964   5.367  48.246  1.00  0.00    -0.217 NA
HETATM    9  C5  UNL     1      30.285   5.455  48.441  1.00  0.00     0.236 A 
HETATM   10  N1  UNL     1      30.832   6.666  48.720  1.00  0.00    -0.241 NA
HETATM   11  C4  UNL     1      30.060   7.779  48.801  1.00  0.00     0.075 A 
HETATM   12  C3  UNL     1      30.655   8.995  49.088  1.00  0.00     0.072 A 
HETATM   13  C19 UNL     1      28.695   7.659  48.595  1.00  0.00     0.049 A 
HETATM   14  C2  UNL     1      29.839  10.127  49.167  1.00  0.00     0.103 A 
HETATM   15  C21 UNL     1      28.477  10.056  48.968  1.00  0.00     0.102 A 
HETATM   16  C20 UNL     1      27.938   8.824  48.687  1.00  0.00     0.057 A 
BRANCH  14  17
HETATM   17  O1  UNL     1      30.394  11.371  49.452  1.00  0.00    -0.353 OA
HETATM   18  C1  UNL     1      31.147  12.099  48.502  1.00  0.00     0.210 C 
ENDBRANCH  14  17
BRANCH  15  19
HETATM   19  O4  UNL     1      27.721  11.217  49.061  1.00  0.00    -0.353 OA
HETATM   20  C22 UNL     1      26.543  11.307  48.280  1.00  0.00     0.210 C 
ENDBRANCH  15  19
ENDBRANCH   6   7
ENDBRANCH   1   6
BRANCH   5  21
HETATM   21  N4  UNL     1      26.807   3.838  49.713  1.00  0.00    -0.396 N 
HETATM   22  H15 UNL     1      27.513   3.442  49.050  1.00  0.00     0.156 HD
HETATM   23  H16 UNL     1      27.321   3.114  50.291  1.00  0.00     0.156 HD
ENDBRANCH   5  21
BRANCH   4  24
HETATM   24  C11 UNL     1      24.277   3.678  51.528  1.00  0.00     0.254 C 
HETATM   25  O3  UNL     1      24.061   4.030  52.721  1.00  0.00    -0.268 OA
HETATM   26  N3  UNL     1      24.090   2.329  51.241  1.00  0.00    -0.323 N 
HETATM   27  H9  UNL     1      24.284   2.107  50.239  1.00  0.00     0.169 HD
BRANCH  26  28
HETATM   28  C12 UNL     1      23.694   1.248  52.061  1.00  0.00     0.035 A 
HETATM   29  C13 UNL     1      24.456   0.582  52.984  1.00  0.00     0.029 A 
HETATM   30  C14 UNL     1      24.031  -0.467  53.763  1.00  0.00     0.002 A 
HETATM   31  C15 UNL     1      22.732  -0.899  53.614  1.00  0.00     0.000 A 
HETATM   32  C16 UNL     1      21.926  -0.280  52.714  1.00  0.00     0.002 A 
HETATM   33  C17 UNL     1      22.411   0.755  51.974  1.00  0.00     0.029 A 
ENDBRANCH  26  28
ENDBRANCH   4  24
TORSDOF 7
ENDMDL
MODEL 8
REMARK VINA RESULT:      -7.5      2.745      9.956
REMARK  7 active torsions:
REMARK  status: ('A' for Active; 'I' for Inactive)
REMARK    1  A    between atoms: O1_2  and  C2_3 
REMARK    2  A    between atoms: C6_9  and  O2_10 
REMARK    3  A    between atoms: O2_10  and  C7_11 
REMARK    4  A    between atoms: C10_14  and  C11_15 
REMARK       I    between atoms: C11_15  and  N3_17 
REMARK    5  A    between atoms: N3_17  and  C12_18 
REMARK    6  A    between atoms: C18_24  and  N4_25 
REMARK    7  A    between atoms: C21_28  and  O4_29 
ROOT
HETATM    1  C7  UNL     1      25.647   5.019  50.057  1.00  0.00     0.101 A 
HETATM    2  C8  UNL     1      26.403   4.924  48.977  1.00  0.00     0.018 A 
HETATM    3  C9  UNL     1      26.772   6.268  48.535  1.00  0.00     0.077 A 
HETATM    4  C10 UNL     1      26.141   7.204  49.491  1.00  0.00     0.042 A 
HETATM    5  C18 UNL     1      25.511   6.432  50.338  1.00  0.00     0.072 A 
ENDROOT
BRANCH   1   6
HETATM    6  O2  UNL     1      25.154   3.887  50.688  1.00  0.00    -0.289 OA
BRANCH   6   7
HETATM    7  C6  UNL     1      23.822   3.635  50.947  1.00  0.00     0.183 A 
HETATM    8  N2  UNL     1      22.758   4.342  50.524  1.00  0.00    -0.217 NA
HETATM    9  C5  UNL     1      21.497   4.018  50.829  1.00  0.00     0.236 A 
HETATM   10  N1  UNL     1      21.264   2.925  51.600  1.00  0.00    -0.241 NA
HETATM   11  C4  UNL     1      22.289   2.164  52.060  1.00  0.00     0.075 A 
HETATM   12  C3  UNL     1      22.011   1.057  52.844  1.00  0.00     0.072 A 
HETATM   13  C19 UNL     1      23.586   2.524  51.730  1.00  0.00     0.049 A 
HETATM   14  C2  UNL     1      23.084   0.290  53.306  1.00  0.00     0.103 A 
HETATM   15  C21 UNL     1      24.390   0.609  53.002  1.00  0.00     0.102 A 
HETATM   16  C20 UNL     1      24.610   1.718  52.222  1.00  0.00     0.057 A 
BRANCH  14  17
HETATM   17  O1  UNL     1      22.852  -0.831  54.096  1.00  0.00    -0.353 OA
HETATM   18  C1  UNL     1      21.567  -1.157  54.589  1.00  0.00     0.210 C 
ENDBRANCH  14  17
BRANCH  15  19
HETATM   19  O4  UNL     1      25.412  -0.193  53.494  1.00  0.00    -0.353 OA
HETATM   20  C22 UNL     1      26.299   0.368  54.443  1.00  0.00     0.210 C 
ENDBRANCH  15  19
ENDBRANCH   6   7
ENDBRANCH   1   6
BRANCH   5  21
HETATM   21  N4  UNL     1      24.733   6.803  51.468  1.00  0.00    -0.396 N 
HETATM   22  H15 UNL     1      24.490   7.596  52.105  1.00  0.00     0.156 HD
HETATM   23  H16 UNL     1      24.046   6.378  52.154  1.00  0.00     0.156 HD
ENDBRANCH   5  21
BRANCH   4  24
HETATM   24  C11 UNL     1      26.229   8.657  49.457  1.00  0.00     0.254 C 
HETATM   25  O3  UNL     1      25.433   9.293  50.203  1.00  0.00    -0.268 OA
HETATM   26  N3  UNL     1      27.100   9.426  48.690  1.00  0.00    -0.323 N 
HETATM   27  H9  UNL     1      27.729   8.839  48.099  1.00  0.00     0.169 HD
BRANCH  26  28
HETATM   28  C12 UNL     1      27.262  10.827  48.586  1.00  0.00     0.035 A 
HETATM   29  C13 UNL     1      28.371  11.561  48.914  1.00  0.00     0.029 A 
HETATM   30  C14 UNL     1      28.488  12.925  48.798  1.00  0.00     0.002 A 
HETATM   31  C15 UNL     1      27.409  13.628  48.313  1.00  0.00     0.000 A 
HETATM   32  C16 UNL     1      26.279  12.957  47.971  1.00  0.00     0.002 A 
HETATM   33  C17 UNL     1      26.230  11.604  48.111  1.00  0.00     0.029 A 
ENDBRANCH  26  28
ENDBRANCH   4  24
TORSDOF 7
ENDMDL
MODEL 9
REMARK VINA RESULT:      -7.4      6.093      8.786
REMARK  7 active torsions:
REMARK  status: ('A' for Active; 'I' for Inactive)
REMARK    1  A    between atoms: O1_2  and  C2_3 
REMARK    2  A    between atoms: C6_9  and  O2_10 
REMARK    3  A    between atoms: O2_10  and  C7_11 
REMARK    4  A    between atoms: C10_14  and  C11_15 
REMARK       I    between atoms: C11_15  and  N3_17 
REMARK    5  A    between atoms: N3_17  and  C12_18 
REMARK    6  A    between atoms: C18_24  and  N4_25 
REMARK    7  A    between atoms: C21_28  and  O4_29 
ROOT
HETATM    1  C7  UNL     1      20.707  -0.102  52.348  1.00  0.00     0.101 A 
HETATM    2  C8  UNL     1      20.475  -0.883  53.389  1.00  0.00     0.018 A 
HETATM    3  C9  UNL     1      19.033  -1.090  53.517  1.00  0.00     0.077 A 
HETATM    4  C10 UNL     1      18.409  -0.330  52.411  1.00  0.00     0.042 A 
HETATM    5  C18 UNL     1      19.416   0.214  51.777  1.00  0.00     0.072 A 
ENDROOT
BRANCH   1   6
HETATM    6  O2  UNL     1      22.000   0.256  51.997  1.00  0.00    -0.289 OA
BRANCH   6   7
HETATM    7  C6  UNL     1      22.587   1.477  52.259  1.00  0.00     0.183 A 
HETATM    8  N2  UNL     1      22.064   2.698  52.049  1.00  0.00    -0.217 NA
HETATM    9  C5  UNL     1      22.714   3.831  52.337  1.00  0.00     0.236 A 
HETATM   10  N1  UNL     1      23.962   3.760  52.867  1.00  0.00    -0.241 NA
HETATM   11  C4  UNL     1      24.551   2.562  53.106  1.00  0.00     0.075 A 
HETATM   12  C3  UNL     1      25.825   2.531  53.648  1.00  0.00     0.072 A 
HETATM   13  C19 UNL     1      23.856   1.404  52.798  1.00  0.00     0.049 A 
HETATM   14  C2  UNL     1      26.411   1.284  53.885  1.00  0.00     0.103 A 
HETATM   15  C21 UNL     1      25.756   0.106  53.594  1.00  0.00     0.102 A 
HETATM   16  C20 UNL     1      24.495   0.194  53.058  1.00  0.00     0.057 A 
BRANCH  14  17
HETATM   17  O1  UNL     1      27.689   1.204  54.428  1.00  0.00    -0.353 OA
HETATM   18  C1  UNL     1      28.782   1.933  53.903  1.00  0.00     0.210 C 
ENDBRANCH  14  17
BRANCH  15  19
HETATM   19  O4  UNL     1      26.394  -1.100  53.853  1.00  0.00    -0.353 OA
HETATM   20  C22 UNL     1      26.929  -1.817  52.755  1.00  0.00     0.210 C 
ENDBRANCH  15  19
ENDBRANCH   6   7
ENDBRANCH   1   6
BRANCH   5  21
HETATM   21  N4  UNL     1      19.394   1.051  50.630  1.00  0.00    -0.396 N 
HETATM   22  H15 UNL     1      18.927   1.880  50.194  1.00  0.00     0.156 HD
HETATM   23  H16 UNL     1      19.887   1.162  49.698  1.00  0.00     0.156 HD
ENDBRANCH   5  21
BRANCH   4  24
HETATM   24  C11 UNL     1      16.983  -0.236  52.130  1.00  0.00     0.254 C 
HETATM   25  O3  UNL     1      16.656   0.118  50.962  1.00  0.00    -0.268 OA
HETATM   26  N3  UNL     1      15.936  -0.498  53.009  1.00  0.00    -0.323 N 
HETATM   27  H9  UNL     1      16.277  -0.786  53.953  1.00  0.00     0.169 HD
BRANCH  26  28
HETATM   28  C12 UNL     1      14.535  -0.438  52.835  1.00  0.00     0.035 A 
HETATM   29  C13 UNL     1      13.716   0.637  53.056  1.00  0.00     0.029 A 
HETATM   30  C14 UNL     1      12.354   0.654  52.873  1.00  0.00     0.002 A 
HETATM   31  C15 UNL     1      11.746  -0.500  52.432  1.00  0.00     0.000 A 
HETATM   32  C16 UNL     1      12.505  -1.601  52.195  1.00  0.00     0.002 A 
HETATM   33  C17 UNL     1      13.850  -1.549  52.396  1.00  0.00     0.029 A 
ENDBRANCH  26  28
ENDBRANCH   4  24
TORSDOF 7
ENDMDL
