MODEL 1
REMARK VINA RESULT:      -7.8      0.000      0.000
REMARK  6 active torsions:
REMARK  status: ('A' for Active; 'I' for Inactive)
REMARK    1  A    between atoms: C3_4  and  C4_5 
REMARK    2  A    between atoms: C4_5  and  N1_6 
REMARK    3  A    between atoms: N1_6  and  C5_7 
REMARK    4  A    between atoms: C6_9  and  N3_10 
REMARK    5  A    between atoms: N5_16  and  C11_17 
REMARK    6  A    between atoms: C11_17  and  C12_18 
ROOT
HETATM    1  C5  UNL     1      22.009   1.005  51.506  1.00  0.00     0.157 A 
HETATM    2  N2  UNL     1      21.362   0.146  52.317  1.00  0.00    -0.045 NA
HETATM    3  C6  UNL     1      21.957  -0.416  53.389  1.00  0.00     0.724 A 
HETATM    4  N4  UNL     1      23.236  -0.111  53.660  1.00  0.00    -0.044 NA
HETATM    5  C7  UNL     1      23.918   0.742  52.876  1.00  0.00     0.163 A 
HETATM    6  C8  UNL     1      23.322   1.309  51.796  1.00  0.00     0.058 A 
HETATM    7  C9  UNL     1      24.271   2.106  51.235  1.00  0.00     0.036 A 
HETATM    8  C10 UNL     1      25.402   1.978  52.011  1.00  0.00     0.094 A 
HETATM    9  N5  UNL     1      25.194   1.115  53.057  1.00  0.00    -0.336 N 
ENDROOT
BRANCH   9  10
HETATM   10  C11 UNL     1      26.268   0.872  53.954  1.00  0.00     0.169 C 
BRANCH  10  11
HETATM   11  C12 UNL     1      27.222  -0.176  53.654  1.00  0.00    -0.034 A 
HETATM   12  C13 UNL     1      26.778  -1.372  53.058  1.00  0.00     0.009 A 
HETATM   13  C14 UNL     1      27.571  -2.437  52.711  1.00  0.00     0.001 A 
HETATM   14  C15 UNL     1      28.919  -2.381  52.944  1.00  0.00     0.001 A 
HETATM   15  C16 UNL     1      29.415  -1.236  53.526  1.00  0.00     0.007 A 
HETATM   16  C17 UNL     1      28.583  -0.190  53.859  1.00  0.00    -0.054 A 
HETATM   17  C18 UNL     1      29.190   0.988  54.484  1.00  0.00     0.049 C 
ENDBRANCH  10  11
ENDBRANCH   9  10
BRANCH   3  18
HETATM   18  N3  UNL     1      21.107  -1.292  54.115  1.00  0.00    -0.231 N 
HETATM   19  H8  UNL     1      21.211  -2.146  54.683  1.00  0.00     0.174 HD
HETATM   20  H9  UNL     1      20.072  -1.143  54.167  1.00  0.00     0.174 HD
ENDBRANCH   3  18
BRANCH   1  21
HETATM   21  N1  UNL     1      21.345   1.587  50.363  1.00  0.00    -0.370 N 
HETATM   22  H7  UNL     1      20.779   2.448  50.531  1.00  0.00     0.161 HD
BRANCH  21  23
HETATM   23  C4  UNL     1      21.502   0.958  49.083  1.00  0.00     0.149 C 
BRANCH  23  24
HETATM   24  C3  UNL     1      21.569   1.986  48.016  1.00  0.00     0.007 C 
HETATM   25  C2  UNL     1      22.091   3.144  47.637  1.00  0.00    -0.018 C 
HETATM   26  C1  UNL     1      23.046   3.997  48.409  1.00  0.00     0.056 C 
HETATM   27 BR1  UNL     1      21.636   3.888  45.913  1.00  0.00    -0.056 Br
ENDBRANCH  23  24
ENDBRANCH  21  23
ENDBRANCH   1  21
TORSDOF 6
ENDMDL
MODEL 2
REMARK VINA RESULT:      -7.8      2.869      4.069
REMARK  6 active torsions:
REMARK  status: ('A' for Active; 'I' for Inactive)
REMARK    1  A    between atoms: C3_4  and  C4_5 
REMARK    2  A    between atoms: C4_5  and  N1_6 
REMARK    3  A    between atoms: N1_6  and  C5_7 
REMARK    4  A    between atoms: C6_9  and  N3_10 
REMARK    5  A    between atoms: N5_16  and  C11_17 
REMARK    6  A    between atoms: C11_17  and  C12_18 
ROOT
HETATM    1  C5  UNL     1      21.323   0.516  53.631  1.00  0.00     0.157 A 
HETATM    2  N2  UNL     1      20.880   1.577  52.927  1.00  0.00    -0.045 NA
HETATM    3  C6  UNL     1      21.705   2.338  52.181  1.00  0.00     0.724 A 
HETATM    4  N4  UNL     1      23.011   2.032  52.134  1.00  0.00    -0.044 NA
HETATM    5  C7  UNL     1      23.495   0.983  52.820  1.00  0.00     0.163 A 
HETATM    6  C8  UNL     1      22.667   0.214  53.573  1.00  0.00     0.058 A 
HETATM    7  C9  UNL     1      23.461  -0.745  54.121  1.00  0.00     0.036 A 
HETATM    8  C10 UNL     1      24.740  -0.505  53.667  1.00  0.00     0.094 A 
HETATM    9  N5  UNL     1      24.777   0.590  52.840  1.00  0.00    -0.336 N 
ENDROOT
BRANCH   9  10
HETATM   10  C11 UNL     1      26.029   0.974  52.287  1.00  0.00     0.169 C 
BRANCH  10  11
HETATM   11  C12 UNL     1      27.241   0.342  52.767  1.00  0.00    -0.034 A 
HETATM   12  C13 UNL     1      27.398  -1.050  52.641  1.00  0.00     0.009 A 
HETATM   13  C14 UNL     1      28.494  -1.774  53.040  1.00  0.00     0.001 A 
HETATM   14  C15 UNL     1      29.555  -1.129  53.617  1.00  0.00     0.001 A 
HETATM   15  C16 UNL     1      29.463   0.236  53.768  1.00  0.00     0.007 A 
HETATM   16  C17 UNL     1      28.343   0.923  53.354  1.00  0.00    -0.054 A 
HETATM   17  C18 UNL     1      28.320   2.373  53.561  1.00  0.00     0.049 C 
ENDBRANCH  10  11
ENDBRANCH   9  10
BRANCH   3  18
HETATM   18  N3  UNL     1      21.044   3.406  51.518  1.00  0.00    -0.231 N 
HETATM   19  H8  UNL     1      21.142   3.918  50.628  1.00  0.00     0.174 HD
HETATM   20  H9  UNL     1      20.220   3.894  51.939  1.00  0.00     0.174 HD
ENDBRANCH   3  18
BRANCH   1  21
HETATM   21  N1  UNL     1      20.415  -0.278  54.425  1.00  0.00    -0.370 N 
HETATM   22  H7  UNL     1      20.254   0.029  55.409  1.00  0.00     0.161 HD
BRANCH  21  23
HETATM   23  C4  UNL     1      19.795  -1.423  53.822  1.00  0.00     0.149 C 
BRANCH  23  24
HETATM   24  C3  UNL     1      18.438  -1.070  53.338  1.00  0.00     0.007 C 
HETATM   25  C2  UNL     1      17.723  -0.562  52.344  1.00  0.00    -0.018 C 
HETATM   26  C1  UNL     1      18.236  -0.047  51.037  1.00  0.00     0.056 C 
HETATM   27 BR1  UNL     1      15.801  -0.440  52.504  1.00  0.00    -0.056 Br
ENDBRANCH  23  24
ENDBRANCH  21  23
ENDBRANCH   1  21
TORSDOF 6
ENDMDL
MODEL 3
REMARK VINA RESULT:      -7.7      2.477      3.221
REMARK  6 active torsions:
REMARK  status: ('A' for Active; 'I' for Inactive)
REMARK    1  A    between atoms: C3_4  and  C4_5 
REMARK    2  A    between atoms: C4_5  and  N1_6 
REMARK    3  A    between atoms: N1_6  and  C5_7 
REMARK    4  A    between atoms: C6_9  and  N3_10 
REMARK    5  A    between atoms: N5_16  and  C11_17 
REMARK    6  A    between atoms: C11_17  and  C12_18 
ROOT
HETATM    1  C5  UNL     1      21.774   0.226  52.119  1.00  0.00     0.157 A 
HETATM    2  N2  UNL     1      21.489  -0.654  53.099  1.00  0.00    -0.045 NA
HETATM    3  C6  UNL     1      22.394  -1.006  54.035  1.00  0.00     0.724 A 
HETATM    4  N4  UNL     1      23.621  -0.463  53.992  1.00  0.00    -0.044 NA
HETATM    5  C7  UNL     1      23.948   0.419  53.031  1.00  0.00     0.163 A 
HETATM    6  C8  UNL     1      23.039   0.775  52.088  1.00  0.00     0.058 A 
HETATM    7  C9  UNL     1      23.679   1.668  51.286  1.00  0.00     0.036 A 
HETATM    8  C10 UNL     1      24.954   1.807  51.791  1.00  0.00     0.094 A 
HETATM    9  N5  UNL     1      25.140   1.020  52.899  1.00  0.00    -0.336 N 
ENDROOT
BRANCH   9  10
HETATM   10  C11 UNL     1      26.408   1.047  53.540  1.00  0.00     0.169 C 
BRANCH  10  11
HETATM   11  C12 UNL     1      27.302  -0.083  53.395  1.00  0.00    -0.034 A 
HETATM   12  C13 UNL     1      26.813  -1.295  52.873  1.00  0.00     0.009 A 
HETATM   13  C14 UNL     1      27.549  -2.436  52.672  1.00  0.00     0.001 A 
HETATM   14  C15 UNL     1      28.881  -2.447  52.990  1.00  0.00     0.001 A 
HETATM   15  C16 UNL     1      29.419  -1.289  53.506  1.00  0.00     0.007 A 
HETATM   16  C17 UNL     1      28.644  -0.166  53.692  1.00  0.00    -0.054 A 
HETATM   17  C18 UNL     1      29.291   1.021  54.255  1.00  0.00     0.049 C 
ENDBRANCH  10  11
ENDBRANCH   9  10
BRANCH   3  18
HETATM   18  N3  UNL     1      21.898  -1.944  54.978  1.00  0.00    -0.231 N 
HETATM   19  H8  UNL     1      20.990  -2.170  55.413  1.00  0.00     0.174 HD
HETATM   20  H9  UNL     1      22.518  -2.655  55.431  1.00  0.00     0.174 HD
ENDBRANCH   3  18
BRANCH   1  21
HETATM   21  N1  UNL     1      20.784   0.579  51.129  1.00  0.00    -0.370 N 
HETATM   22  H7  UNL     1      20.937   0.225  50.159  1.00  0.00     0.161 HD
BRANCH  21  23
HETATM   23  C4  UNL     1      19.665   1.380  51.532  1.00  0.00     0.149 C 
BRANCH  23  24
HETATM   24  C3  UNL     1      18.411   0.596  51.416  1.00  0.00     0.007 C 
HETATM   25  C2  UNL     1      17.670  -0.376  51.931  1.00  0.00    -0.018 C 
HETATM   26  C1  UNL     1      17.983  -1.204  53.136  1.00  0.00     0.056 C 
HETATM   27 BR1  UNL     1      15.983  -0.838  51.112  1.00  0.00    -0.056 Br
ENDBRANCH  23  24
ENDBRANCH  21  23
ENDBRANCH   1  21
TORSDOF 6
ENDMDL
MODEL 4
REMARK VINA RESULT:      -7.6      2.112      3.575
REMARK  6 active torsions:
REMARK  status: ('A' for Active; 'I' for Inactive)
REMARK    1  A    between atoms: C3_4  and  C4_5 
REMARK    2  A    between atoms: C4_5  and  N1_6 
REMARK    3  A    between atoms: N1_6  and  C5_7 
REMARK    4  A    between atoms: C6_9  and  N3_10 
REMARK    5  A    between atoms: N5_16  and  C11_17 
REMARK    6  A    between atoms: C11_17  and  C12_18 
ROOT
HETATM    1  C5  UNL     1      23.412   2.392  50.794  1.00  0.00     0.157 A 
HETATM    2  N2  UNL     1      24.547   3.059  50.507  1.00  0.00    -0.045 NA
HETATM    3  C6  UNL     1      25.713   2.795  51.130  1.00  0.00     0.724 A 
HETATM    4  N4  UNL     1      25.748   1.836  52.069  1.00  0.00    -0.044 NA
HETATM    5  C7  UNL     1      24.639   1.146  52.387  1.00  0.00     0.163 A 
HETATM    6  C8  UNL     1      23.464   1.409  51.760  1.00  0.00     0.058 A 
HETATM    7  C9  UNL     1      22.563   0.548  52.305  1.00  0.00     0.036 A 
HETATM    8  C10 UNL     1      23.246  -0.198  53.240  1.00  0.00     0.094 A 
HETATM    9  N5  UNL     1      24.566   0.171  53.304  1.00  0.00    -0.336 N 
ENDROOT
BRANCH   9  10
HETATM   10  C11 UNL     1      25.410  -0.506  54.225  1.00  0.00     0.169 C 
BRANCH  10  11
HETATM   11  C12 UNL     1      26.839  -0.532  53.991  1.00  0.00    -0.034 A 
HETATM   12  C13 UNL     1      27.678   0.350  54.697  1.00  0.00     0.009 A 
HETATM   13  C14 UNL     1      29.043   0.424  54.582  1.00  0.00     0.001 A 
HETATM   14  C15 UNL     1      29.695  -0.415  53.718  1.00  0.00     0.001 A 
HETATM   15  C16 UNL     1      28.929  -1.304  52.998  1.00  0.00     0.007 A 
HETATM   16  C17 UNL     1      27.561  -1.343  53.144  1.00  0.00    -0.054 A 
HETATM   17  C18 UNL     1      26.818  -2.311  52.332  1.00  0.00     0.049 C 
ENDBRANCH  10  11
ENDBRANCH   9  10
BRANCH   3  18
HETATM   18  N3  UNL     1      26.790   3.607  50.685  1.00  0.00    -0.231 N 
HETATM   19  H8  UNL     1      27.816   3.532  50.624  1.00  0.00     0.174 HD
HETATM   20  H9  UNL     1      26.636   4.563  50.289  1.00  0.00     0.174 HD
ENDBRANCH   3  18
BRANCH   1  21
HETATM   21  N1  UNL     1      22.178   2.701  50.112  1.00  0.00    -0.370 N 
HETATM   22  H7  UNL     1      21.703   3.593  50.371  1.00  0.00     0.161 HD
BRANCH  21  23
HETATM   23  C4  UNL     1      21.685   1.777  49.130  1.00  0.00     0.149 C 
BRANCH  23  24
HETATM   24  C3  UNL     1      20.322   1.323  49.499  1.00  0.00     0.007 C 
HETATM   25  C2  UNL     1      19.335   1.410  50.379  1.00  0.00    -0.018 C 
HETATM   26  C1  UNL     1      19.308   2.241  51.622  1.00  0.00     0.056 C 
HETATM   27 BR1  UNL     1      17.711   0.399  50.109  1.00  0.00    -0.056 Br
ENDBRANCH  23  24
ENDBRANCH  21  23
ENDBRANCH   1  21
TORSDOF 6
ENDMDL
MODEL 5
REMARK VINA RESULT:      -7.6      2.219      2.798
REMARK  6 active torsions:
REMARK  status: ('A' for Active; 'I' for Inactive)
REMARK    1  A    between atoms: C3_4  and  C4_5 
REMARK    2  A    between atoms: C4_5  and  N1_6 
REMARK    3  A    between atoms: N1_6  and  C5_7 
REMARK    4  A    between atoms: C6_9  and  N3_10 
REMARK    5  A    between atoms: N5_16  and  C11_17 
REMARK    6  A    between atoms: C11_17  and  C12_18 
ROOT
HETATM    1  C5  UNL     1      21.469   1.704  51.976  1.00  0.00     0.157 A 
HETATM    2  N2  UNL     1      20.493   1.000  52.582  1.00  0.00    -0.045 NA
HETATM    3  C6  UNL     1      20.759   0.015  53.462  1.00  0.00     0.724 A 
HETATM    4  N4  UNL     1      22.039  -0.278  53.748  1.00  0.00    -0.044 NA
HETATM    5  C7  UNL     1      23.043   0.400  53.166  1.00  0.00     0.163 A 
HETATM    6  C8  UNL     1      22.778   1.393  52.279  1.00  0.00     0.058 A 
HETATM    7  C9  UNL     1      23.993   1.864  51.889  1.00  0.00     0.036 A 
HETATM    8  C10 UNL     1      24.938   1.126  52.567  1.00  0.00     0.094 A 
HETATM    9  N5  UNL     1      24.350   0.191  53.381  1.00  0.00    -0.336 N 
ENDROOT
BRANCH   9  10
HETATM   10  C11 UNL     1      25.192  -0.657  54.150  1.00  0.00     0.169 C 
BRANCH  10  11
HETATM   11  C12 UNL     1      26.629  -0.560  53.997  1.00  0.00    -0.034 A 
HETATM   12  C13 UNL     1      27.357   0.331  54.807  1.00  0.00     0.009 A 
HETATM   13  C14 UNL     1      28.717   0.514  54.776  1.00  0.00     0.001 A 
HETATM   14  C15 UNL     1      29.476  -0.210  53.896  1.00  0.00     0.001 A 
HETATM   15  C16 UNL     1      28.821  -1.100  53.076  1.00  0.00     0.007 A 
HETATM   16  C17 UNL     1      27.454  -1.252  53.140  1.00  0.00    -0.054 A 
HETATM   17  C18 UNL     1      26.834  -2.212  52.224  1.00  0.00     0.049 C 
ENDBRANCH  10  11
ENDBRANCH   9  10
BRANCH   3  18
HETATM   18  N3  UNL     1      19.595  -0.605  53.989  1.00  0.00    -0.231 N 
HETATM   19  H8  UNL     1      19.308  -1.553  54.275  1.00  0.00     0.174 HD
HETATM   20  H9  UNL     1      18.721  -0.064  54.187  1.00  0.00     0.174 HD
ENDBRANCH   3  18
BRANCH   1  21
HETATM   21  N1  UNL     1      21.152   2.752  51.034  1.00  0.00    -0.370 N 
HETATM   22  H7  UNL     1      21.197   2.507  50.021  1.00  0.00     0.161 HD
BRANCH  21  23
HETATM   23  C4  UNL     1      20.795   4.046  51.540  1.00  0.00     0.149 C 
BRANCH  23  24
HETATM   24  C3  UNL     1      21.928   4.989  51.366  1.00  0.00     0.007 C 
HETATM   25  C2  UNL     1      22.292   6.223  51.049  1.00  0.00    -0.018 C 
HETATM   26  C1  UNL     1      21.395   7.354  50.660  1.00  0.00     0.056 C 
HETATM   27 BR1  UNL     1      24.161   6.712  51.072  1.00  0.00    -0.056 Br
ENDBRANCH  23  24
ENDBRANCH  21  23
ENDBRANCH   1  21
TORSDOF 6
ENDMDL
MODEL 6
REMARK VINA RESULT:      -7.6      2.176      3.539
REMARK  6 active torsions:
REMARK  status: ('A' for Active; 'I' for Inactive)
REMARK    1  A    between atoms: C3_4  and  C4_5 
REMARK    2  A    between atoms: C4_5  and  N1_6 
REMARK    3  A    between atoms: N1_6  and  C5_7 
REMARK    4  A    between atoms: C6_9  and  N3_10 
REMARK    5  A    between atoms: N5_16  and  C11_17 
REMARK    6  A    between atoms: C11_17  and  C12_18 
ROOT
HETATM    1  C5  UNL     1      23.850   2.922  50.157  1.00  0.00     0.157 A 
HETATM    2  N2  UNL     1      24.892   3.531  49.558  1.00  0.00    -0.045 NA
HETATM    3  C6  UNL     1      26.142   3.472  50.059  1.00  0.00     0.724 A 
HETATM    4  N4  UNL     1      26.360   2.784  51.192  1.00  0.00    -0.044 NA
HETATM    5  C7  UNL     1      25.348   2.163  51.821  1.00  0.00     0.163 A 
HETATM    6  C8  UNL     1      24.088   2.220  51.320  1.00  0.00     0.058 A 
HETATM    7  C9  UNL     1      23.322   1.497  52.180  1.00  0.00     0.036 A 
HETATM    8  C10 UNL     1      24.166   1.035  53.167  1.00  0.00     0.094 A 
HETATM    9  N5  UNL     1      25.456   1.450  52.953  1.00  0.00    -0.336 N 
ENDROOT
BRANCH   9  10
HETATM   10  C11 UNL     1      26.454   1.058  53.886  1.00  0.00     0.169 C 
BRANCH  10  11
HETATM   11  C12 UNL     1      27.311  -0.068  53.578  1.00  0.00    -0.034 A 
HETATM   12  C13 UNL     1      26.753  -1.243  53.043  1.00  0.00     0.009 A 
HETATM   13  C14 UNL     1      27.447  -2.375  52.696  1.00  0.00     0.001 A 
HETATM   14  C15 UNL     1      28.806  -2.413  52.865  1.00  0.00     0.001 A 
HETATM   15  C16 UNL     1      29.412  -1.292  53.385  1.00  0.00     0.007 A 
HETATM   16  C17 UNL     1      28.677  -0.177  53.720  1.00  0.00    -0.054 A 
HETATM   17  C18 UNL     1      29.397   0.970  54.278  1.00  0.00     0.049 C 
ENDBRANCH  10  11
ENDBRANCH   9  10
BRANCH   3  18
HETATM   18  N3  UNL     1      27.098   4.178  49.281  1.00  0.00    -0.231 N 
HETATM   19  H8  UNL     1      27.330   5.163  49.082  1.00  0.00     0.174 HD
HETATM   20  H9  UNL     1      27.819   3.683  48.707  1.00  0.00     0.174 HD
ENDBRANCH   3  18
BRANCH   1  21
HETATM   21  N1  UNL     1      22.521   3.008  49.598  1.00  0.00    -0.370 N 
HETATM   22  H7  UNL     1      21.985   3.885  49.781  1.00  0.00     0.161 HD
BRANCH  21  23
HETATM   23  C4  UNL     1      22.024   1.899  48.835  1.00  0.00     0.149 C 
BRANCH  23  24
HETATM   24  C3  UNL     1      20.611   1.627  49.196  1.00  0.00     0.007 C 
HETATM   25  C2  UNL     1      19.788   1.086  50.084  1.00  0.00    -0.018 C 
HETATM   26  C1  UNL     1      20.164   0.388  51.351  1.00  0.00     0.056 C 
HETATM   27 BR1  UNL     1      17.879   1.164  49.800  1.00  0.00    -0.056 Br
ENDBRANCH  23  24
ENDBRANCH  21  23
ENDBRANCH   1  21
TORSDOF 6
ENDMDL
MODEL 7
REMARK VINA RESULT:      -7.5      2.865      3.713
REMARK  6 active torsions:
REMARK  status: ('A' for Active; 'I' for Inactive)
REMARK    1  A    between atoms: C3_4  and  C4_5 
REMARK    2  A    between atoms: C4_5  and  N1_6 
REMARK    3  A    between atoms: N1_6  and  C5_7 
REMARK    4  A    between atoms: C6_9  and  N3_10 
REMARK    5  A    between atoms: N5_16  and  C11_17 
REMARK    6  A    between atoms: C11_17  and  C12_18 
ROOT
HETATM    1  C5  UNL     1      23.820   3.975  50.055  1.00  0.00     0.157 A 
HETATM    2  N2  UNL     1      22.632   4.006  50.691  1.00  0.00    -0.045 NA
HETATM    3  C6  UNL     1      22.441   3.407  51.884  1.00  0.00     0.724 A 
HETATM    4  N4  UNL     1      23.465   2.759  52.461  1.00  0.00    -0.044 NA
HETATM    5  C7  UNL     1      24.667   2.704  51.861  1.00  0.00     0.163 A 
HETATM    6  C8  UNL     1      24.863   3.306  50.660  1.00  0.00     0.058 A 
HETATM    7  C9  UNL     1      26.164   3.067  50.343  1.00  0.00     0.036 A 
HETATM    8  C10 UNL     1      26.692   2.327  51.378  1.00  0.00     0.094 A 
HETATM    9  N5  UNL     1      25.753   2.088  52.350  1.00  0.00    -0.336 N 
ENDROOT
BRANCH   9  10
HETATM   10  C11 UNL     1      26.140   1.332  53.489  1.00  0.00     0.169 C 
BRANCH  10  11
HETATM   11  C12 UNL     1      26.973   0.161  53.315  1.00  0.00    -0.034 A 
HETATM   12  C13 UNL     1      26.412  -1.024  52.804  1.00  0.00     0.009 A 
HETATM   13  C14 UNL     1      27.085  -2.199  52.579  1.00  0.00     0.001 A 
HETATM   14  C15 UNL     1      28.423  -2.275  52.859  1.00  0.00     0.001 A 
HETATM   15  C16 UNL     1      29.032  -1.147  53.362  1.00  0.00     0.007 A 
HETATM   16  C17 UNL     1      28.318   0.011  53.573  1.00  0.00    -0.054 A 
HETATM   17  C18 UNL     1      29.038   1.163  54.121  1.00  0.00     0.049 C 
ENDBRANCH  10  11
ENDBRANCH   9  10
BRANCH   3  18
HETATM   18  N3  UNL     1      21.120   3.554  52.385  1.00  0.00    -0.231 N 
HETATM   19  H8  UNL     1      20.554   3.152  53.148  1.00  0.00     0.174 HD
HETATM   20  H9  UNL     1      20.435   4.217  51.955  1.00  0.00     0.174 HD
ENDBRANCH   3  18
BRANCH   1  21
HETATM   21  N1  UNL     1      23.993   4.623  48.776  1.00  0.00    -0.370 N 
HETATM   22  H7  UNL     1      23.898   4.025  47.926  1.00  0.00     0.161 HD
BRANCH  21  23
HETATM   23  C4  UNL     1      24.277   6.029  48.750  1.00  0.00     0.149 C 
BRANCH  23  24
HETATM   24  C3  UNL     1      25.732   6.249  48.562  1.00  0.00     0.007 C 
HETATM   25  C2  UNL     1      26.779   7.003  48.866  1.00  0.00    -0.018 C 
HETATM   26  C1  UNL     1      26.792   8.208  49.751  1.00  0.00     0.056 C 
HETATM   27 BR1  UNL     1      28.519   6.575  48.143  1.00  0.00    -0.056 Br
ENDBRANCH  23  24
ENDBRANCH  21  23
ENDBRANCH   1  21
TORSDOF 6
ENDMDL
MODEL 8
REMARK VINA RESULT:      -7.4      1.925      2.532
REMARK  6 active torsions:
REMARK  status: ('A' for Active; 'I' for Inactive)
REMARK    1  A    between atoms: C3_4  and  C4_5 
REMARK    2  A    between atoms: C4_5  and  N1_6 
REMARK    3  A    between atoms: N1_6  and  C5_7 
REMARK    4  A    between atoms: C6_9  and  N3_10 
REMARK    5  A    between atoms: N5_16  and  C11_17 
REMARK    6  A    between atoms: C11_17  and  C12_18 
ROOT
HETATM    1  C5  UNL     1      23.216   2.614  50.245  1.00  0.00     0.157 A 
HETATM    2  N2  UNL     1      22.155   2.206  50.969  1.00  0.00    -0.045 NA
HETATM    3  C6  UNL     1      22.283   1.724  52.222  1.00  0.00     0.724 A 
HETATM    4  N4  UNL     1      23.507   1.646  52.769  1.00  0.00    -0.044 NA
HETATM    5  C7  UNL     1      24.592   2.041  52.081  1.00  0.00     0.163 A 
HETATM    6  C8  UNL     1      24.466   2.528  50.820  1.00  0.00     0.058 A 
HETATM    7  C9  UNL     1      25.730   2.832  50.421  1.00  0.00     0.036 A 
HETATM    8  C10 UNL     1      26.563   2.512  51.471  1.00  0.00     0.094 A 
HETATM    9  N5  UNL     1      25.854   2.008  52.533  1.00  0.00    -0.336 N 
ENDROOT
BRANCH   9  10
HETATM   10  C11 UNL     1      26.570   1.626  53.699  1.00  0.00     0.169 C 
BRANCH  10  11
HETATM   11  C12 UNL     1      27.568   0.580  53.610  1.00  0.00    -0.034 A 
HETATM   12  C13 UNL     1      27.192  -0.710  53.192  1.00  0.00     0.009 A 
HETATM   13  C14 UNL     1      28.032  -1.785  53.052  1.00  0.00     0.001 A 
HETATM   14  C15 UNL     1      29.365  -1.642  53.331  1.00  0.00     0.001 A 
HETATM   15  C16 UNL     1      29.797  -0.402  53.745  1.00  0.00     0.007 A 
HETATM   16  C17 UNL     1      28.918   0.650  53.872  1.00  0.00    -0.054 A 
HETATM   17  C18 UNL     1      29.457   1.934  54.329  1.00  0.00     0.049 C 
ENDBRANCH  10  11
ENDBRANCH   9  10
BRANCH   3  18
HETATM   18  N3  UNL     1      21.048   1.349  52.814  1.00  0.00    -0.231 N 
HETATM   19  H8  UNL     1      20.482   1.639  53.625  1.00  0.00     0.174 HD
HETATM   20  H9  UNL     1      20.452   0.586  52.416  1.00  0.00     0.174 HD
ENDBRANCH   3  18
BRANCH   1  21
HETATM   21  N1  UNL     1      23.046   3.122  48.904  1.00  0.00    -0.370 N 
HETATM   22  H7  UNL     1      23.276   2.473  48.119  1.00  0.00     0.161 HD
BRANCH  21  23
HETATM   23  C4  UNL     1      22.578   4.467  48.733  1.00  0.00     0.149 C 
BRANCH  23  24
HETATM   24  C3  UNL     1      23.728   5.389  48.569  1.00  0.00     0.007 C 
HETATM   25  C2  UNL     1      24.586   6.196  49.179  1.00  0.00    -0.018 C 
HETATM   26  C1  UNL     1      24.655   6.495  50.642  1.00  0.00     0.056 C 
HETATM   27 BR1  UNL     1      25.932   7.124  48.151  1.00  0.00    -0.056 Br
ENDBRANCH  23  24
ENDBRANCH  21  23
ENDBRANCH   1  21
TORSDOF 6
ENDMDL
MODEL 9
REMARK VINA RESULT:      -7.4      4.099      5.440
REMARK  6 active torsions:
REMARK  status: ('A' for Active; 'I' for Inactive)
REMARK    1  A    between atoms: C3_4  and  C4_5 
REMARK    2  A    between atoms: C4_5  and  N1_6 
REMARK    3  A    between atoms: N1_6  and  C5_7 
REMARK    4  A    between atoms: C6_9  and  N3_10 
REMARK    5  A    between atoms: N5_16  and  C11_17 
REMARK    6  A    between atoms: C11_17  and  C12_18 
ROOT
HETATM    1  C5  UNL     1      24.896   5.932  49.641  1.00  0.00     0.157 A 
HETATM    2  N2  UNL     1      23.848   6.251  50.425  1.00  0.00    -0.045 NA
HETATM    3  C6  UNL     1      23.398   5.427  51.392  1.00  0.00     0.724 A 
HETATM    4  N4  UNL     1      24.012   4.248  51.584  1.00  0.00    -0.044 NA
HETATM    5  C7  UNL     1      25.061   3.891  50.824  1.00  0.00     0.163 A 
HETATM    6  C8  UNL     1      25.517   4.718  49.849  1.00  0.00     0.058 A 
HETATM    7  C9  UNL     1      26.569   4.068  49.283  1.00  0.00     0.036 A 
HETATM    8  C10 UNL     1      26.697   2.869  49.952  1.00  0.00     0.094 A 
HETATM    9  N5  UNL     1      25.746   2.742  50.932  1.00  0.00    -0.336 N 
ENDROOT
BRANCH   9  10
HETATM   10  C11 UNL     1      25.740   1.556  51.715  1.00  0.00     0.169 C 
BRANCH  10  11
HETATM   11  C12 UNL     1      26.904   1.225  52.510  1.00  0.00    -0.034 A 
HETATM   12  C13 UNL     1      27.698   2.255  53.048  1.00  0.00     0.009 A 
HETATM   13  C14 UNL     1      28.816   2.084  53.825  1.00  0.00     0.001 A 
HETATM   14  C15 UNL     1      29.238   0.818  54.133  1.00  0.00     0.001 A 
HETATM   15  C16 UNL     1      28.502  -0.234  53.637  1.00  0.00     0.007 A 
HETATM   16  C17 UNL     1      27.386  -0.017  52.860  1.00  0.00    -0.054 A 
HETATM   17  C18 UNL     1      26.666  -1.192  52.362  1.00  0.00     0.049 C 
ENDBRANCH  10  11
ENDBRANCH   9  10
BRANCH   3  18
HETATM   18  N3  UNL     1      22.285   5.946  52.106  1.00  0.00    -0.231 N 
HETATM   19  H8  UNL     1      22.106   6.336  53.044  1.00  0.00     0.174 HD
HETATM   20  H9  UNL     1      21.332   6.003  51.680  1.00  0.00     0.174 HD
ENDBRANCH   3  18
BRANCH   1  21
HETATM   21  N1  UNL     1      25.352   6.834  48.610  1.00  0.00    -0.370 N 
HETATM   22  H7  UNL     1      24.932   6.721  47.661  1.00  0.00     0.161 HD
BRANCH  21  23
HETATM   23  C4  UNL     1      26.339   7.820  48.946  1.00  0.00     0.149 C 
BRANCH  23  24
HETATM   24  C3  UNL     1      27.350   7.916  47.865  1.00  0.00     0.007 C 
HETATM   25  C2  UNL     1      28.462   7.408  47.351  1.00  0.00    -0.018 C 
HETATM   26  C1  UNL     1      29.246   6.247  47.873  1.00  0.00     0.056 C 
HETATM   27 BR1  UNL     1      29.223   8.178  45.752  1.00  0.00    -0.056 Br
ENDBRANCH  23  24
ENDBRANCH  21  23
ENDBRANCH   1  21
TORSDOF 6
ENDMDL
