MODEL 1
REMARK VINA RESULT:      -8.5      0.000      0.000
REMARK  6 active torsions:
REMARK  status: ('A' for Active; 'I' for Inactive)
REMARK    1  A    between atoms: C2_2  and  C3_3 
REMARK    2  A    between atoms: C3_3  and  S1_4 
REMARK    3  A    between atoms: S1_4  and  C4_5 
REMARK    4  A    between atoms: C7_8  and  O1_9 
REMARK    5  A    between atoms: C11_13  and  C12_14 
REMARK    6  A    between atoms: C12_14  and  C14_17 
REMARK       I    between atoms: C14_17  and  N2_18 
ROOT
HETATM    1  C12 UNL     1      25.244  -0.517  53.317  1.00  0.00     0.217 C 
HETATM    2  C13 UNL     1      26.176   0.266  52.513  1.00  0.00     0.078 C 
HETATM    3  N1  UNL     1      26.910   0.893  51.885  1.00  0.00    -0.196 NA
ENDROOT
BRANCH   1   4
HETATM    4  C11 UNL     1      23.839  -0.072  53.149  1.00  0.00    -0.035 C 
HETATM    5  C10 UNL     1      23.576   0.908  52.313  1.00  0.00    -0.006 C 
HETATM    6  C2  UNL     1      22.357   1.641  51.856  1.00  0.00     0.004 C 
HETATM    7  C1  UNL     1      21.842   1.065  50.577  1.00  0.00     0.022 C 
HETATM    8  C18 UNL     1      21.243   1.509  52.886  1.00  0.00     0.181 C 
HETATM    9  O3  UNL     1      20.558   0.312  52.737  1.00  0.00    -0.386 OA
HETATM   10  C17 UNL     1      20.468  -0.383  53.917  1.00  0.00     0.195 C 
HETATM   11  C16 UNL     1      21.732  -1.038  54.334  1.00  0.00    -0.000 C 
HETATM   12  C15 UNL     1      23.037  -0.922  54.041  1.00  0.00     0.007 C 
BRANCH   6  13
HETATM   13  C3  UNL     1      22.648   3.107  51.717  1.00  0.00     0.095 C 
BRANCH  13  14
HETATM   14  S1  UNL     1      22.844   3.718  50.073  1.00  0.00    -0.129 SA
BRANCH  14  15
HETATM   15  C4  UNL     1      24.401   4.331  49.583  1.00  0.00     0.000 A 
HETATM   16  C5  UNL     1      24.937   5.499  49.103  1.00  0.00     0.021 A 
HETATM   17  C6  UNL     1      26.237   5.744  48.808  1.00  0.00     0.038 A 
HETATM   18  C7  UNL     1      27.134   4.739  48.999  1.00  0.00     0.065 A 
HETATM   19  C8  UNL     1      26.698   3.501  49.486  1.00  0.00     0.038 A 
HETATM   20  C9  UNL     1      25.340   3.308  49.772  1.00  0.00     0.021 A 
BRANCH  18  21
HETATM   21  O1  UNL     1      28.468   5.009  48.690  1.00  0.00    -0.361 OA
HETATM   22  H8  UNL     1      28.644   5.523  47.840  1.00  0.00     0.217 HD
ENDBRANCH  18  21
ENDBRANCH  14  15
ENDBRANCH  13  14
ENDBRANCH   6  13
ENDBRANCH   1   4
BRANCH   1  23
HETATM   23  C14 UNL     1      25.674  -0.354  54.752  1.00  0.00     0.237 C 
HETATM   24  N2  UNL     1      26.446   0.837  54.869  1.00  0.00    -0.369 N 
HETATM   25  H13 UNL     1      26.785   1.814  55.009  1.00  0.00     0.159 HD
HETATM   26  H14 UNL     1      27.458   0.621  54.677  1.00  0.00     0.159 HD
HETATM   27  O2  UNL     1      25.618  -0.865  55.900  1.00  0.00    -0.272 OA
ENDBRANCH   1  23
TORSDOF 6
ENDMDL
MODEL 2
REMARK VINA RESULT:      -8.4      3.131      5.688
REMARK  6 active torsions:
REMARK  status: ('A' for Active; 'I' for Inactive)
REMARK    1  A    between atoms: C2_2  and  C3_3 
REMARK    2  A    between atoms: C3_3  and  S1_4 
REMARK    3  A    between atoms: S1_4  and  C4_5 
REMARK    4  A    between atoms: C7_8  and  O1_9 
REMARK    5  A    between atoms: C11_13  and  C12_14 
REMARK    6  A    between atoms: C12_14  and  C14_17 
REMARK       I    between atoms: C14_17  and  N2_18 
ROOT
HETATM    1  C12 UNL     1      21.874  -0.360  53.050  1.00  0.00     0.217 C 
HETATM    2  C13 UNL     1      22.404  -0.929  54.284  1.00  0.00     0.078 C 
HETATM    3  N1  UNL     1      22.816  -1.373  55.264  1.00  0.00    -0.196 NA
ENDROOT
BRANCH   1   4
HETATM    4  C11 UNL     1      22.390   1.007  52.791  1.00  0.00    -0.035 C 
HETATM    5  C10 UNL     1      23.686   1.222  52.856  1.00  0.00    -0.006 C 
HETATM    6  C2  UNL     1      24.596   2.393  52.674  1.00  0.00     0.004 C 
HETATM    7  C1  UNL     1      25.156   2.417  51.289  1.00  0.00     0.022 C 
HETATM    8  C18 UNL     1      23.831   3.694  52.871  1.00  0.00     0.181 C 
HETATM    9  O3  UNL     1      23.157   4.063  51.715  1.00  0.00    -0.386 OA
HETATM   10  C17 UNL     1      21.832   4.329  51.952  1.00  0.00     0.195 C 
HETATM   11  C16 UNL     1      21.001   3.121  52.177  1.00  0.00    -0.000 C 
HETATM   12  C15 UNL     1      21.211   1.835  52.501  1.00  0.00     0.007 C 
BRANCH   6  13
HETATM   13  C3  UNL     1      25.689   2.372  53.704  1.00  0.00     0.095 C 
BRANCH  13  14
HETATM   14  S1  UNL     1      27.323   2.071  53.112  1.00  0.00    -0.129 SA
BRANCH  14  15
HETATM   15  C4  UNL     1      27.957   0.448  53.175  1.00  0.00     0.000 A 
HETATM   16  C5  UNL     1      29.126  -0.182  53.520  1.00  0.00     0.021 A 
HETATM   17  C6  UNL     1      29.374  -1.515  53.506  1.00  0.00     0.038 A 
HETATM   18  C7  UNL     1      28.372  -2.345  53.110  1.00  0.00     0.065 A 
HETATM   19  C8  UNL     1      27.134  -1.810  52.734  1.00  0.00     0.038 A 
HETATM   20  C9  UNL     1      26.937  -0.423  52.770  1.00  0.00     0.021 A 
BRANCH  18  21
HETATM   21  O1  UNL     1      28.645  -3.714  53.101  1.00  0.00    -0.361 OA
HETATM   22  H8  UNL     1      28.040  -4.303  53.654  1.00  0.00     0.217 HD
ENDBRANCH  18  21
ENDBRANCH  14  15
ENDBRANCH  13  14
ENDBRANCH   6  13
ENDBRANCH   1   4
BRANCH   1  23
HETATM   23  C14 UNL     1      20.375  -0.330  53.202  1.00  0.00     0.237 C 
HETATM   24  N2  UNL     1      20.054  -0.146  54.576  1.00  0.00    -0.369 N 
HETATM   25  H13 UNL     1      19.819   0.236  55.519  1.00  0.00     0.159 HD
HETATM   26  H14 UNL     1      20.001  -1.082  55.054  1.00  0.00     0.159 HD
HETATM   27  O2  UNL     1      19.283  -0.407  52.581  1.00  0.00    -0.272 OA
ENDBRANCH   1  23
TORSDOF 6
ENDMDL
MODEL 3
REMARK VINA RESULT:      -8.1      1.550      1.939
REMARK  6 active torsions:
REMARK  status: ('A' for Active; 'I' for Inactive)
REMARK    1  A    between atoms: C2_2  and  C3_3 
REMARK    2  A    between atoms: C3_3  and  S1_4 
REMARK    3  A    between atoms: S1_4  and  C4_5 
REMARK    4  A    between atoms: C7_8  and  O1_9 
REMARK    5  A    between atoms: C11_13  and  C12_14 
REMARK    6  A    between atoms: C12_14  and  C14_17 
REMARK       I    between atoms: C14_17  and  N2_18 
ROOT
HETATM    1  C12 UNL     1      26.058   0.687  52.587  1.00  0.00     0.217 C 
HETATM    2  C13 UNL     1      26.471   1.692  51.613  1.00  0.00     0.078 C 
HETATM    3  N1  UNL     1      26.795   2.493  50.852  1.00  0.00    -0.196 NA
ENDROOT
BRANCH   1   4
HETATM    4  C11 UNL     1      24.585   0.624  52.745  1.00  0.00    -0.035 C 
HETATM    5  C10 UNL     1      23.829   1.394  51.992  1.00  0.00    -0.006 C 
HETATM    6  C2  UNL     1      22.365   1.641  51.827  1.00  0.00     0.004 C 
HETATM    7  C1  UNL     1      21.816   0.831  50.699  1.00  0.00     0.022 C 
HETATM    8  C18 UNL     1      21.613   1.225  53.085  1.00  0.00     0.181 C 
HETATM    9  O3  UNL     1      21.363  -0.139  53.094  1.00  0.00    -0.386 OA
HETATM   10  C17 UNL     1      21.773  -0.732  54.263  1.00  0.00     0.195 C 
HETATM   11  C16 UNL     1      23.242  -0.894  54.379  1.00  0.00    -0.000 C 
HETATM   12  C15 UNL     1      24.333  -0.373  53.795  1.00  0.00     0.007 C 
BRANCH   6  13
HETATM   13  C3  UNL     1      22.100   3.105  51.628  1.00  0.00     0.095 C 
BRANCH  13  14
HETATM   14  S1  UNL     1      22.566   3.784  50.067  1.00  0.00    -0.129 SA
BRANCH  14  15
HETATM   15  C4  UNL     1      23.878   4.931  50.005  1.00  0.00     0.000 A 
HETATM   16  C5  UNL     1      25.007   5.156  49.260  1.00  0.00     0.021 A 
HETATM   17  C6  UNL     1      25.891   6.174  49.398  1.00  0.00     0.038 A 
HETATM   18  C7  UNL     1      25.660   7.091  50.376  1.00  0.00     0.065 A 
HETATM   19  C8  UNL     1      24.535   6.960  51.200  1.00  0.00     0.038 A 
HETATM   20  C9  UNL     1      23.657   5.885  51.008  1.00  0.00     0.021 A 
BRANCH  18  21
HETATM   21  O1  UNL     1      26.581   8.132  50.505  1.00  0.00    -0.361 OA
HETATM   22  H8  UNL     1      26.970   8.504  49.651  1.00  0.00     0.217 HD
ENDBRANCH  18  21
ENDBRANCH  14  15
ENDBRANCH  13  14
ENDBRANCH   6  13
ENDBRANCH   1   4
BRANCH   1  23
HETATM   23  C14 UNL     1      26.707   1.064  53.893  1.00  0.00     0.237 C 
HETATM   24  N2  UNL     1      26.774   2.483  53.981  1.00  0.00    -0.369 N 
HETATM   25  H13 UNL     1      26.599   3.496  54.163  1.00  0.00     0.159 HD
HETATM   26  H14 UNL     1      27.666   2.822  53.537  1.00  0.00     0.159 HD
HETATM   27  O2  UNL     1      27.219   0.610  54.949  1.00  0.00    -0.272 OA
ENDBRANCH   1  23
TORSDOF 6
ENDMDL
MODEL 4
REMARK VINA RESULT:      -7.8      2.164      3.814
REMARK  6 active torsions:
REMARK  status: ('A' for Active; 'I' for Inactive)
REMARK    1  A    between atoms: C2_2  and  C3_3 
REMARK    2  A    between atoms: C3_3  and  S1_4 
REMARK    3  A    between atoms: S1_4  and  C4_5 
REMARK    4  A    between atoms: C7_8  and  O1_9 
REMARK    5  A    between atoms: C11_13  and  C12_14 
REMARK    6  A    between atoms: C12_14  and  C14_17 
REMARK       I    between atoms: C14_17  and  N2_18 
ROOT
HETATM    1  C12 UNL     1      22.400  -0.727  53.392  1.00  0.00     0.217 C 
HETATM    2  C13 UNL     1      22.557  -1.394  54.679  1.00  0.00     0.078 C 
HETATM    3  N1  UNL     1      22.677  -1.912  55.701  1.00  0.00    -0.196 NA
ENDROOT
BRANCH   1   4
HETATM    4  C11 UNL     1      23.507   0.218  53.106  1.00  0.00    -0.035 C 
HETATM    5  C10 UNL     1      23.270   1.270  52.352  1.00  0.00    -0.006 C 
HETATM    6  C2  UNL     1      24.059   2.428  51.834  1.00  0.00     0.004 C 
HETATM    7  C1  UNL     1      23.879   3.625  52.710  1.00  0.00     0.022 C 
HETATM    8  C18 UNL     1      25.545   2.096  51.830  1.00  0.00     0.181 C 
HETATM    9  O3  UNL     1      26.110   2.294  53.081  1.00  0.00    -0.386 OA
HETATM   10  C17 UNL     1      26.813   1.197  53.512  1.00  0.00     0.195 C 
HETATM   11  C16 UNL     1      25.962   0.067  53.959  1.00  0.00    -0.000 C 
HETATM   12  C15 UNL     1      24.684  -0.316  53.805  1.00  0.00     0.007 C 
BRANCH   6  13
HETATM   13  C3  UNL     1      23.677   2.728  50.413  1.00  0.00     0.095 C 
BRANCH  13  14
HETATM   14  S1  UNL     1      23.915   4.390  49.870  1.00  0.00    -0.129 SA
BRANCH  14  15
HETATM   15  C4  UNL     1      25.491   4.874  49.302  1.00  0.00     0.000 A 
HETATM   16  C5  UNL     1      26.726   4.310  49.104  1.00  0.00     0.021 A 
HETATM   17  C6  UNL     1      27.833   4.915  48.608  1.00  0.00     0.038 A 
HETATM   18  C7  UNL     1      27.741   6.226  48.258  1.00  0.00     0.065 A 
HETATM   19  C8  UNL     1      26.526   6.903  48.418  1.00  0.00     0.038 A 
HETATM   20  C9  UNL     1      25.416   6.225  48.937  1.00  0.00     0.021 A 
BRANCH  18  21
HETATM   21  O1  UNL     1      28.890   6.832  47.750  1.00  0.00    -0.361 OA
HETATM   22  H8  UNL     1      29.708   6.249  47.653  1.00  0.00     0.217 HD
ENDBRANCH  18  21
ENDBRANCH  14  15
ENDBRANCH  13  14
ENDBRANCH   6  13
ENDBRANCH   1   4
BRANCH   1  23
HETATM   23  C14 UNL     1      21.087   0.011  53.449  1.00  0.00     0.237 C 
HETATM   24  N2  UNL     1      20.734   0.219  54.812  1.00  0.00    -0.369 N 
HETATM   25  H13 UNL     1      20.599   0.591  55.778  1.00  0.00     0.159 HD
HETATM   26  H14 UNL     1      20.189  -0.610  55.165  1.00  0.00     0.159 HD
HETATM   27  O2  UNL     1      20.170   0.520  52.754  1.00  0.00    -0.272 OA
ENDBRANCH   1  23
TORSDOF 6
ENDMDL
MODEL 5
REMARK VINA RESULT:      -7.8      2.835      5.091
REMARK  6 active torsions:
REMARK  status: ('A' for Active; 'I' for Inactive)
REMARK    1  A    between atoms: C2_2  and  C3_3 
REMARK    2  A    between atoms: C3_3  and  S1_4 
REMARK    3  A    between atoms: S1_4  and  C4_5 
REMARK    4  A    between atoms: C7_8  and  O1_9 
REMARK    5  A    between atoms: C11_13  and  C12_14 
REMARK    6  A    between atoms: C12_14  and  C14_17 
REMARK       I    between atoms: C14_17  and  N2_18 
ROOT
HETATM    1  C12 UNL     1      24.073   4.171  51.705  1.00  0.00     0.217 C 
HETATM    2  C13 UNL     1      25.138   4.265  50.713  1.00  0.00     0.078 C 
HETATM    3  N1  UNL     1      25.972   4.342  49.923  1.00  0.00    -0.196 NA
ENDROOT
BRANCH   1   4
HETATM    4  C11 UNL     1      23.165   3.025  51.454  1.00  0.00    -0.035 C 
HETATM    5  C10 UNL     1      22.662   2.373  52.479  1.00  0.00    -0.006 C 
HETATM    6  C2  UNL     1      21.745   1.209  52.675  1.00  0.00     0.004 C 
HETATM    7  C1  UNL     1      20.344   1.673  52.907  1.00  0.00     0.022 C 
HETATM    8  C18 UNL     1      21.727   0.334  51.429  1.00  0.00     0.181 C 
HETATM    9  O3  UNL     1      20.856   0.836  50.473  1.00  0.00    -0.386 OA
HETATM   10  C17 UNL     1      21.454   0.965  49.244  1.00  0.00     0.195 C 
HETATM   11  C16 UNL     1      22.392   2.110  49.143  1.00  0.00    -0.000 C 
HETATM   12  C15 UNL     1      23.056   2.909  49.993  1.00  0.00     0.007 C 
BRANCH   6  13
HETATM   13  C3  UNL     1      22.228   0.346  53.804  1.00  0.00     0.095 C 
BRANCH  13  14
HETATM   14  S1  UNL     1      23.644  -0.656  53.479  1.00  0.00    -0.129 SA
BRANCH  14  15
HETATM   15  C4  UNL     1      25.159   0.122  53.109  1.00  0.00     0.000 A 
HETATM   16  C5  UNL     1      25.786   0.681  52.024  1.00  0.00     0.021 A 
HETATM   17  C6  UNL     1      27.007   1.268  51.995  1.00  0.00     0.038 A 
HETATM   18  C7  UNL     1      27.714   1.326  53.155  1.00  0.00     0.065 A 
HETATM   19  C8  UNL     1      27.171   0.786  54.327  1.00  0.00     0.038 A 
HETATM   20  C9  UNL     1      25.903   0.191  54.295  1.00  0.00     0.021 A 
BRANCH  18  21
HETATM   21  O1  UNL     1      28.969   1.935  53.107  1.00  0.00    -0.361 OA
HETATM   22  H8  UNL     1      29.764   1.358  53.340  1.00  0.00     0.217 HD
ENDBRANCH  18  21
ENDBRANCH  14  15
ENDBRANCH  13  14
ENDBRANCH   6  13
ENDBRANCH   1   4
BRANCH   1  23
HETATM   23  C14 UNL     1      23.307   5.467  51.634  1.00  0.00     0.237 C 
HETATM   24  N2  UNL     1      24.205   6.546  51.866  1.00  0.00    -0.369 N 
HETATM   25  H13 UNL     1      24.885   7.334  51.783  1.00  0.00     0.159 HD
HETATM   26  H14 UNL     1      24.267   6.736  52.900  1.00  0.00     0.159 HD
HETATM   27  O2  UNL     1      22.170   5.973  51.448  1.00  0.00    -0.272 OA
ENDBRANCH   1  23
TORSDOF 6
ENDMDL
MODEL 6
REMARK VINA RESULT:      -7.7      2.866      5.424
REMARK  6 active torsions:
REMARK  status: ('A' for Active; 'I' for Inactive)
REMARK    1  A    between atoms: C2_2  and  C3_3 
REMARK    2  A    between atoms: C3_3  and  S1_4 
REMARK    3  A    between atoms: S1_4  and  C4_5 
REMARK    4  A    between atoms: C7_8  and  O1_9 
REMARK    5  A    between atoms: C11_13  and  C12_14 
REMARK    6  A    between atoms: C12_14  and  C14_17 
REMARK       I    between atoms: C14_17  and  N2_18 
ROOT
HETATM    1  C12 UNL     1      24.777   4.587  49.457  1.00  0.00     0.217 C 
HETATM    2  C13 UNL     1      24.677   5.759  50.319  1.00  0.00     0.078 C 
HETATM    3  N1  UNL     1      24.602   6.679  51.008  1.00  0.00    -0.196 NA
ENDROOT
BRANCH   1   4
HETATM    4  C11 UNL     1      23.762   3.556  49.784  1.00  0.00    -0.035 C 
HETATM    5  C10 UNL     1      23.486   3.309  51.046  1.00  0.00    -0.006 C 
HETATM    6  C2  UNL     1      22.572   2.394  51.793  1.00  0.00     0.004 C 
HETATM    7  C1  UNL     1      21.306   3.097  52.162  1.00  0.00     0.022 C 
HETATM    8  C18 UNL     1      22.187   1.205  50.924  1.00  0.00     0.181 C 
HETATM    9  O3  UNL     1      21.141   1.522  50.070  1.00  0.00    -0.386 OA
HETATM   10  C17 UNL     1      21.423   1.201  48.765  1.00  0.00     0.195 C 
HETATM   11  C16 UNL     1      22.380   2.123  48.106  1.00  0.00    -0.000 C 
HETATM   12  C15 UNL     1      23.286   3.035  48.495  1.00  0.00     0.007 C 
BRANCH   6  13
HETATM   13  C3  UNL     1      23.262   1.840  53.006  1.00  0.00     0.095 C 
BRANCH  13  14
HETATM   14  S1  UNL     1      24.447   0.563  52.723  1.00  0.00    -0.129 SA
BRANCH  14  15
HETATM   15  C4  UNL     1      26.134   0.903  53.001  1.00  0.00     0.000 A 
HETATM   16  C5  UNL     1      26.936   1.993  53.225  1.00  0.00     0.021 A 
HETATM   17  C6  UNL     1      28.273   1.995  53.446  1.00  0.00     0.038 A 
HETATM   18  C7  UNL     1      28.920   0.798  53.453  1.00  0.00     0.065 A 
HETATM   19  C8  UNL     1      28.200  -0.382  53.235  1.00  0.00     0.038 A 
HETATM   20  C9  UNL     1      26.818  -0.321  53.012  1.00  0.00     0.021 A 
BRANCH  18  21
HETATM   21  O1  UNL     1      30.297   0.820  53.682  1.00  0.00    -0.361 OA
HETATM   22  H8  UNL     1      30.641   0.248  54.439  1.00  0.00     0.217 HD
ENDBRANCH  18  21
ENDBRANCH  14  15
ENDBRANCH  13  14
ENDBRANCH   6  13
ENDBRANCH   1   4
BRANCH   1  23
HETATM   23  C14 UNL     1      26.164   4.031  49.650  1.00  0.00     0.237 C 
HETATM   24  N2  UNL     1      27.105   5.094  49.548  1.00  0.00    -0.369 N 
HETATM   25  H13 UNL     1      27.762   5.885  49.725  1.00  0.00     0.159 HD
HETATM   26  H14 UNL     1      27.386   5.220  48.541  1.00  0.00     0.159 HD
HETATM   27  O2  UNL     1      26.824   2.982  49.869  1.00  0.00    -0.272 OA
ENDBRANCH   1  23
TORSDOF 6
ENDMDL
MODEL 7
REMARK VINA RESULT:      -7.3      2.459      6.471
REMARK  6 active torsions:
REMARK  status: ('A' for Active; 'I' for Inactive)
REMARK    1  A    between atoms: C2_2  and  C3_3 
REMARK    2  A    between atoms: C3_3  and  S1_4 
REMARK    3  A    between atoms: S1_4  and  C4_5 
REMARK    4  A    between atoms: C7_8  and  O1_9 
REMARK    5  A    between atoms: C11_13  and  C12_14 
REMARK    6  A    between atoms: C12_14  and  C14_17 
REMARK       I    between atoms: C14_17  and  N2_18 
ROOT
HETATM    1  C12 UNL     1      25.824   3.218  49.588  1.00  0.00     0.217 C 
HETATM    2  C13 UNL     1      26.981   4.011  49.188  1.00  0.00     0.078 C 
HETATM    3  N1  UNL     1      27.897   4.639  48.882  1.00  0.00    -0.196 NA
ENDROOT
BRANCH   1   4
HETATM    4  C11 UNL     1      24.638   4.059  49.884  1.00  0.00    -0.035 C 
HETATM    5  C10 UNL     1      23.700   3.584  50.675  1.00  0.00    -0.006 C 
HETATM    6  C2  UNL     1      22.395   4.070  51.216  1.00  0.00     0.004 C 
HETATM    7  C1  UNL     1      22.571   4.649  52.582  1.00  0.00     0.022 C 
HETATM    8  C18 UNL     1      21.834   5.174  50.330  1.00  0.00     0.181 C 
HETATM    9  O3  UNL     1      22.398   6.403  50.638  1.00  0.00    -0.386 OA
HETATM   10  C17 UNL     1      22.893   7.038  49.526  1.00  0.00     0.195 C 
HETATM   11  C16 UNL     1      24.162   6.466  49.014  1.00  0.00    -0.000 C 
HETATM   12  C15 UNL     1      24.841   5.315  49.149  1.00  0.00     0.007 C 
BRANCH   6  13
HETATM   13  C3  UNL     1      21.384   2.960  51.220  1.00  0.00     0.095 C 
BRANCH  13  14
HETATM   14  S1  UNL     1      22.018   1.318  51.101  1.00  0.00    -0.129 SA
BRANCH  14  15
HETATM   15  C4  UNL     1      22.044   0.319  52.530  1.00  0.00     0.000 A 
HETATM   16  C5  UNL     1      21.164  -0.419  53.280  1.00  0.00     0.021 A 
HETATM   17  C6  UNL     1      21.445  -1.159  54.380  1.00  0.00     0.038 A 
HETATM   18  C7  UNL     1      22.734  -1.194  54.813  1.00  0.00     0.065 A 
HETATM   19  C8  UNL     1      23.718  -0.476  54.123  1.00  0.00     0.038 A 
HETATM   20  C9  UNL     1      23.367   0.271  52.991  1.00  0.00     0.021 A 
BRANCH  18  21
HETATM   21  O1  UNL     1      23.005  -1.961  55.947  1.00  0.00    -0.361 OA
HETATM   22  H8  UNL     1      22.328  -2.668  56.191  1.00  0.00     0.217 HD
ENDBRANCH  18  21
ENDBRANCH  14  15
ENDBRANCH  13  14
ENDBRANCH   6  13
ENDBRANCH   1   4
BRANCH   1  23
HETATM   23  C14 UNL     1      26.236   2.449  50.817  1.00  0.00     0.237 C 
HETATM   24  N2  UNL     1      27.142   3.242  51.575  1.00  0.00    -0.369 N 
HETATM   25  H13 UNL     1      27.593   3.900  52.248  1.00  0.00     0.159 HD
HETATM   26  H14 UNL     1      28.125   3.071  51.240  1.00  0.00     0.159 HD
HETATM   27  O2  UNL     1      26.091   1.366  51.441  1.00  0.00    -0.272 OA
ENDBRANCH   1  23
TORSDOF 6
ENDMDL
MODEL 8
REMARK VINA RESULT:      -7.2      3.214      5.952
REMARK  6 active torsions:
REMARK  status: ('A' for Active; 'I' for Inactive)
REMARK    1  A    between atoms: C2_2  and  C3_3 
REMARK    2  A    between atoms: C3_3  and  S1_4 
REMARK    3  A    between atoms: S1_4  and  C4_5 
REMARK    4  A    between atoms: C7_8  and  O1_9 
REMARK    5  A    between atoms: C11_13  and  C12_14 
REMARK    6  A    between atoms: C12_14  and  C14_17 
REMARK       I    between atoms: C14_17  and  N2_18 
ROOT
HETATM    1  C12 UNL     1      25.280   5.085  50.451  1.00  0.00     0.217 C 
HETATM    2  C13 UNL     1      26.304   5.091  49.412  1.00  0.00     0.078 C 
HETATM    3  N1  UNL     1      27.106   5.103  48.585  1.00  0.00    -0.196 NA
ENDROOT
BRANCH   1   4
HETATM    4  C11 UNL     1      24.104   4.259  50.082  1.00  0.00    -0.035 C 
HETATM    5  C10 UNL     1      23.695   3.324  50.912  1.00  0.00    -0.006 C 
HETATM    6  C2  UNL     1      22.601   2.307  50.939  1.00  0.00     0.004 C 
HETATM    7  C1  UNL     1      21.423   2.816  51.703  1.00  0.00     0.022 C 
HETATM    8  C18 UNL     1      22.123   2.007  49.525  1.00  0.00     0.181 C 
HETATM    9  O3  UNL     1      21.206   2.954  49.092  1.00  0.00    -0.386 OA
HETATM   10  C17 UNL     1      21.544   3.482  47.870  1.00  0.00     0.195 C 
HETATM   11  C16 UNL     1      22.673   4.442  47.915  1.00  0.00    -0.000 C 
HETATM   12  C15 UNL     1      23.665   4.747  48.767  1.00  0.00     0.007 C 
BRANCH   6  13
HETATM   13  C3  UNL     1      23.104   1.012  51.510  1.00  0.00     0.095 C 
BRANCH  13  14
HETATM   14  S1  UNL     1      23.892   1.101  53.086  1.00  0.00    -0.129 SA
BRANCH  14  15
HETATM   15  C4  UNL     1      25.604   0.787  53.191  1.00  0.00     0.000 A 
HETATM   16  C5  UNL     1      26.452  -0.290  53.149  1.00  0.00     0.021 A 
HETATM   17  C6  UNL     1      27.805  -0.271  53.233  1.00  0.00     0.038 A 
HETATM   18  C7  UNL     1      28.418   0.935  53.375  1.00  0.00     0.065 A 
HETATM   19  C8  UNL     1      27.649   2.103  53.431  1.00  0.00     0.038 A 
HETATM   20  C9  UNL     1      26.253   2.020  53.339  1.00  0.00     0.021 A 
BRANCH  18  21
HETATM   21  O1  UNL     1      29.811   0.935  53.460  1.00  0.00    -0.361 OA
HETATM   22  H8  UNL     1      30.216   1.291  54.313  1.00  0.00     0.217 HD
ENDBRANCH  18  21
ENDBRANCH  14  15
ENDBRANCH  13  14
ENDBRANCH   6  13
ENDBRANCH   1   4
BRANCH   1  23
HETATM   23  C14 UNL     1      24.866   6.520  50.653  1.00  0.00     0.237 C 
HETATM   24  N2  UNL     1      26.034   7.324  50.773  1.00  0.00    -0.369 N 
HETATM   25  H13 UNL     1      26.861   7.939  50.609  1.00  0.00     0.159 HD
HETATM   26  H14 UNL     1      26.337   7.357  51.780  1.00  0.00     0.159 HD
HETATM   27  O2  UNL     1      23.879   7.293  50.758  1.00  0.00    -0.272 OA
ENDBRANCH   1  23
TORSDOF 6
ENDMDL
MODEL 9
REMARK VINA RESULT:      -7.1      1.954      2.501
REMARK  6 active torsions:
REMARK  status: ('A' for Active; 'I' for Inactive)
REMARK    1  A    between atoms: C2_2  and  C3_3 
REMARK    2  A    between atoms: C3_3  and  S1_4 
REMARK    3  A    between atoms: S1_4  and  C4_5 
REMARK    4  A    between atoms: C7_8  and  O1_9 
REMARK    5  A    between atoms: C11_13  and  C12_14 
REMARK    6  A    between atoms: C12_14  and  C14_17 
REMARK       I    between atoms: C14_17  and  N2_18 
ROOT
HETATM    1  C12 UNL     1      26.179   1.701  53.810  1.00  0.00     0.217 C 
HETATM    2  C13 UNL     1      26.825   0.569  54.466  1.00  0.00     0.078 C 
HETATM    3  N1  UNL     1      27.337  -0.329  54.975  1.00  0.00    -0.196 NA
ENDROOT
BRANCH   1   4
HETATM    4  C11 UNL     1      24.823   1.366  53.309  1.00  0.00    -0.035 C 
HETATM    5  C10 UNL     1      24.195   2.229  52.542  1.00  0.00    -0.006 C 
HETATM    6  C2  UNL     1      22.874   2.296  51.847  1.00  0.00     0.004 C 
HETATM    7  C1  UNL     1      23.004   1.866  50.422  1.00  0.00     0.022 C 
HETATM    8  C18 UNL     1      21.879   1.353  52.511  1.00  0.00     0.181 C 
HETATM    9  O3  UNL     1      22.034   0.053  52.052  1.00  0.00    -0.386 OA
HETATM   10  C17 UNL     1      22.158  -0.847  53.081  1.00  0.00     0.195 C 
HETATM   11  C16 UNL     1      23.477  -0.817  53.759  1.00  0.00    -0.000 C 
HETATM   12  C15 UNL     1      24.511   0.035  53.850  1.00  0.00     0.007 C 
BRANCH   6  13
HETATM   13  C3  UNL     1      22.297   3.678  51.950  1.00  0.00     0.095 C 
BRANCH  13  14
HETATM   14  S1  UNL     1      23.415   4.967  52.399  1.00  0.00    -0.129 SA
BRANCH  14  15
HETATM   15  C4  UNL     1      24.149   5.923  51.139  1.00  0.00     0.000 A 
HETATM   16  C5  UNL     1      24.247   7.244  50.781  1.00  0.00     0.021 A 
HETATM   17  C6  UNL     1      24.923   7.759  49.725  1.00  0.00     0.038 A 
HETATM   18  C7  UNL     1      25.590   6.895  48.913  1.00  0.00     0.065 A 
HETATM   19  C8  UNL     1      25.559   5.522  49.183  1.00  0.00     0.038 A 
HETATM   20  C9  UNL     1      24.841   5.049  50.290  1.00  0.00     0.021 A 
BRANCH  18  21
HETATM   21  O1  UNL     1      26.281   7.443  47.831  1.00  0.00    -0.361 OA
HETATM   22  H8  UNL     1      26.527   8.420  47.895  1.00  0.00     0.217 HD
ENDBRANCH  18  21
ENDBRANCH  14  15
ENDBRANCH  13  14
ENDBRANCH   6  13
ENDBRANCH   1   4
BRANCH   1  23
HETATM   23  C14 UNL     1      27.073   2.099  52.665  1.00  0.00     0.237 C 
HETATM   24  N2  UNL     1      28.422   2.118  53.119  1.00  0.00    -0.369 N 
HETATM   25  H13 UNL     1      29.410   1.891  53.369  1.00  0.00     0.159 HD
HETATM   26  H14 UNL     1      28.647   3.067  53.515  1.00  0.00     0.159 HD
HETATM   27  O2  UNL     1      27.094   2.426  51.450  1.00  0.00    -0.272 OA
ENDBRANCH   1  23
TORSDOF 6
ENDMDL
