MODEL 1
REMARK VINA RESULT:      -8.2      0.000      0.000
REMARK  7 active torsions:
REMARK  status: ('A' for Active; 'I' for Inactive)
REMARK    1  A    between atoms: C2_2  and  C3_3 
REMARK    2  A    between atoms: C5_7  and  N3_8 
REMARK    3  A    between atoms: N3_8  and  C6_9 
REMARK    4  A    between atoms: C9_12  and  C10_13 
REMARK    5  A    between atoms: C10_13  and  O1_14 
REMARK    6  A    between atoms: O1_14  and  C11_15 
REMARK    7  A    between atoms: C11_15  and  C12_16 
ROOT
HETATM    1  C6  UNL     1      25.977   2.768  50.413  1.00  0.00     0.134 A 
HETATM    2  C7  UNL     1      26.628   3.608  49.700  1.00  0.00    -0.038 A 
HETATM    3  C8  UNL     1      27.087   4.236  49.184  1.00  0.00    -0.049 A 
HETATM    4  C9  UNL     1      27.645   5.041  48.543  1.00  0.00     0.042 A 
HETATM    5  C18 UNL     1      26.108   5.284  49.468  1.00  0.00     0.070 A 
HETATM    6  C19 UNL     1      25.074   4.453  50.430  1.00  0.00    -0.011 A 
ENDROOT
BRANCH   1   7
HETATM    7  N3  UNL     1      26.005   2.798  51.845  1.00  0.00    -0.363 N 
HETATM    8  H7  UNL     1      25.845   3.657  52.414  1.00  0.00     0.162 HD
BRANCH   7   9
HETATM    9  C5  UNL     1      26.271   1.555  52.529  1.00  0.00     0.133 A 
HETATM   10  N2  UNL     1      25.323   0.601  52.475  1.00  0.00    -0.224 NA
HETATM   11  C4  UNL     1      25.527  -0.585  53.103  1.00  0.00     0.235 A 
HETATM   12  N1  UNL     1      26.675  -0.793  53.771  1.00  0.00    -0.246 NA
HETATM   13  C3  UNL     1      27.656   0.120  53.861  1.00  0.00     0.045 A 
HETATM   14  C20 UNL     1      27.448   1.344  53.213  1.00  0.00     0.008 A 
HETATM   15  C21 UNL     1      28.440   2.425  53.232  1.00  0.00     0.054 C 
BRANCH  13  16
HETATM   16  C2  UNL     1      28.909  -0.126  54.598  1.00  0.00     0.055 C 
HETATM   17  C1  UNL     1      29.812  -0.956  53.708  1.00  0.00     0.011 C 
ENDBRANCH  13  16
ENDBRANCH   7   9
ENDBRANCH   1   7
BRANCH   4  18
HETATM   18  C10 UNL     1      27.551   6.275  48.178  1.00  0.00     0.167 C 
BRANCH  18  19
HETATM   19  O1  UNL     1      27.618   7.594  47.788  1.00  0.00    -0.378 OA
BRANCH  19  20
HETATM   20  C11 UNL     1      28.702   7.945  46.934  1.00  0.00     0.207 C 
BRANCH  20  21
HETATM   21  C12 UNL     1      29.944   7.792  47.705  1.00  0.00    -0.033 A 
HETATM   22  C13 UNL     1      30.320   8.447  48.853  1.00  0.00     0.009 A 
HETATM   23  C14 UNL     1      31.532   8.191  49.472  1.00  0.00     0.002 A 
HETATM   24  C15 UNL     1      32.400   7.264  48.945  1.00  0.00     0.024 A 
HETATM   25  C16 UNL     1      32.056   6.589  47.797  1.00  0.00     0.034 A 
HETATM   26 CL1  UNL     1      33.174   5.404  47.132  1.00  0.00    -0.084 Cl
HETATM   27  C17 UNL     1      30.847   6.867  47.211  1.00  0.00     0.033 A 
ENDBRANCH  20  21
ENDBRANCH  19  20
ENDBRANCH  18  19
ENDBRANCH   4  18
TORSDOF 7
ENDMDL
MODEL 2
REMARK VINA RESULT:      -8.1      2.307      2.668
REMARK  7 active torsions:
REMARK  status: ('A' for Active; 'I' for Inactive)
REMARK    1  A    between atoms: C2_2  and  C3_3 
REMARK    2  A    between atoms: C5_7  and  N3_8 
REMARK    3  A    between atoms: N3_8  and  C6_9 
REMARK    4  A    between atoms: C9_12  and  C10_13 
REMARK    5  A    between atoms: C10_13  and  O1_14 
REMARK    6  A    between atoms: O1_14  and  C11_15 
REMARK    7  A    between atoms: C11_15  and  C12_16 
ROOT
HETATM    1  C6  UNL     1      26.020   2.833  50.410  1.00  0.00     0.134 A 
HETATM    2  C7  UNL     1      26.623   3.717  49.708  1.00  0.00    -0.038 A 
HETATM    3  C8  UNL     1      27.046   4.378  49.202  1.00  0.00    -0.049 A 
HETATM    4  C9  UNL     1      27.558   5.222  48.573  1.00  0.00     0.042 A 
HETATM    5  C18 UNL     1      26.018   5.371  49.513  1.00  0.00     0.070 A 
HETATM    6  C19 UNL     1      25.034   4.470  50.466  1.00  0.00    -0.011 A 
ENDROOT
BRANCH   1   7
HETATM    7  N3  UNL     1      26.057   2.836  51.842  1.00  0.00    -0.363 N 
HETATM    8  H7  UNL     1      25.909   3.686  52.427  1.00  0.00     0.162 HD
BRANCH   7   9
HETATM    9  C5  UNL     1      26.318   1.579  52.501  1.00  0.00     0.133 A 
HETATM   10  N2  UNL     1      25.379   0.619  52.401  1.00  0.00    -0.224 NA
HETATM   11  C4  UNL     1      25.579  -0.580  53.004  1.00  0.00     0.235 A 
HETATM   12  N1  UNL     1      26.712  -0.795  53.694  1.00  0.00    -0.246 NA
HETATM   13  C3  UNL     1      27.683   0.123  53.829  1.00  0.00     0.045 A 
HETATM   14  C20 UNL     1      27.481   1.361  53.207  1.00  0.00     0.008 A 
HETATM   15  C21 UNL     1      28.462   2.448  53.276  1.00  0.00     0.054 C 
BRANCH  13  16
HETATM   16  C2  UNL     1      28.921  -0.131  54.590  1.00  0.00     0.055 C 
HETATM   17  C1  UNL     1      29.857  -0.921  53.697  1.00  0.00     0.011 C 
ENDBRANCH  13  16
ENDBRANCH   7   9
ENDBRANCH   1   7
BRANCH   4  18
HETATM   18  C10 UNL     1      27.400   6.456  48.233  1.00  0.00     0.167 C 
BRANCH  18  19
HETATM   19  O1  UNL     1      27.385   7.764  47.803  1.00  0.00    -0.378 OA
BRANCH  19  20
HETATM   20  C11 UNL     1      27.144   8.753  48.799  1.00  0.00     0.207 C 
BRANCH  20  21
HETATM   21  C12 UNL     1      28.354   9.582  48.905  1.00  0.00    -0.033 A 
HETATM   22  C13 UNL     1      29.602   9.215  49.346  1.00  0.00     0.009 A 
HETATM   23  C14 UNL     1      30.653  10.116  49.386  1.00  0.00     0.002 A 
HETATM   24  C15 UNL     1      30.469  11.417  48.982  1.00  0.00     0.024 A 
HETATM   25  C16 UNL     1      29.233  11.820  48.534  1.00  0.00     0.034 A 
HETATM   26 CL1  UNL     1      29.009  13.487  48.019  1.00  0.00    -0.084 Cl
HETATM   27  C17 UNL     1      28.215  10.900  48.507  1.00  0.00     0.033 A 
ENDBRANCH  20  21
ENDBRANCH  19  20
ENDBRANCH  18  19
ENDBRANCH   4  18
TORSDOF 7
ENDMDL
MODEL 3
REMARK VINA RESULT:      -7.9      2.716      3.742
REMARK  7 active torsions:
REMARK  status: ('A' for Active; 'I' for Inactive)
REMARK    1  A    between atoms: C2_2  and  C3_3 
REMARK    2  A    between atoms: C5_7  and  N3_8 
REMARK    3  A    between atoms: N3_8  and  C6_9 
REMARK    4  A    between atoms: C9_12  and  C10_13 
REMARK    5  A    between atoms: C10_13  and  O1_14 
REMARK    6  A    between atoms: O1_14  and  C11_15 
REMARK    7  A    between atoms: C11_15  and  C12_16 
ROOT
HETATM    1  C6  UNL     1      26.202   3.770  49.400  1.00  0.00     0.134 A 
HETATM    2  C7  UNL     1      27.199   4.446  48.969  1.00  0.00    -0.038 A 
HETATM    3  C8  UNL     1      27.913   4.959  48.655  1.00  0.00    -0.049 A 
HETATM    4  C9  UNL     1      28.794   5.623  48.262  1.00  0.00     0.042 A 
HETATM    5  C18 UNL     1      27.130   6.194  48.693  1.00  0.00     0.070 A 
HETATM    6  C19 UNL     1      25.703   5.608  49.246  1.00  0.00    -0.011 A 
ENDROOT
BRANCH   1   7
HETATM    7  N3  UNL     1      25.793   3.801  50.773  1.00  0.00    -0.363 N 
HETATM    8  H7  UNL     1      25.286   4.599  51.212  1.00  0.00     0.162 HD
BRANCH   7   9
HETATM    9  C5  UNL     1      26.108   2.650  51.584  1.00  0.00     0.133 A 
HETATM   10  N2  UNL     1      27.395   2.468  51.932  1.00  0.00    -0.224 NA
HETATM   11  C4  UNL     1      27.741   1.400  52.694  1.00  0.00     0.235 A 
HETATM   12  N1  UNL     1      26.792   0.535  53.093  1.00  0.00    -0.246 NA
HETATM   13  C3  UNL     1      25.493   0.662  52.777  1.00  0.00     0.045 A 
HETATM   14  C20 UNL     1      25.133   1.765  51.992  1.00  0.00     0.008 A 
HETATM   15  C21 UNL     1      23.750   2.021  51.578  1.00  0.00     0.054 C 
BRANCH  13  16
HETATM   16  C2  UNL     1      24.465  -0.296  53.224  1.00  0.00     0.055 C 
HETATM   17  C1  UNL     1      24.865  -0.794  54.599  1.00  0.00     0.011 C 
ENDBRANCH  13  16
ENDBRANCH   7   9
ENDBRANCH   1   7
BRANCH   4  18
HETATM   18  C10 UNL     1      29.072   6.846  47.961  1.00  0.00     0.167 C 
BRANCH  18  19
HETATM   19  O1  UNL     1      29.529   8.104  47.636  1.00  0.00    -0.378 OA
BRANCH  19  20
HETATM   20  C11 UNL     1      30.361   8.742  48.600  1.00  0.00     0.207 C 
BRANCH  20  21
HETATM   21  C12 UNL     1      29.908  10.135  48.727  1.00  0.00    -0.033 A 
HETATM   22  C13 UNL     1      30.654  11.250  49.021  1.00  0.00     0.009 A 
HETATM   23  C14 UNL     1      30.080  12.508  49.105  1.00  0.00     0.002 A 
HETATM   24  C15 UNL     1      28.732  12.672  48.894  1.00  0.00     0.024 A 
HETATM   25  C16 UNL     1      27.953  11.577  48.596  1.00  0.00     0.034 A 
HETATM   26 CL1  UNL     1      26.229  11.799  48.327  1.00  0.00    -0.084 Cl
HETATM   27  C17 UNL     1      28.556  10.347  48.521  1.00  0.00     0.033 A 
ENDBRANCH  20  21
ENDBRANCH  19  20
ENDBRANCH  18  19
ENDBRANCH   4  18
TORSDOF 7
ENDMDL
MODEL 4
REMARK VINA RESULT:      -7.9      3.955      8.770
REMARK  7 active torsions:
REMARK  status: ('A' for Active; 'I' for Inactive)
REMARK    1  A    between atoms: C2_2  and  C3_3 
REMARK    2  A    between atoms: C5_7  and  N3_8 
REMARK    3  A    between atoms: N3_8  and  C6_9 
REMARK    4  A    between atoms: C9_12  and  C10_13 
REMARK    5  A    between atoms: C10_13  and  O1_14 
REMARK    6  A    between atoms: O1_14  and  C11_15 
REMARK    7  A    between atoms: C11_15  and  C12_16 
ROOT
HETATM    1  C6  UNL     1      27.076   6.483  48.311  1.00  0.00     0.134 A 
HETATM    2  C7  UNL     1      26.213   5.730  48.882  1.00  0.00    -0.038 A 
HETATM    3  C8  UNL     1      25.599   5.163  49.299  1.00  0.00    -0.049 A 
HETATM    4  C9  UNL     1      24.848   4.435  49.823  1.00  0.00     0.042 A 
HETATM    5  C18 UNL     1      26.571   4.074  49.400  1.00  0.00     0.070 A 
HETATM    6  C19 UNL     1      27.870   4.789  48.703  1.00  0.00    -0.011 A 
ENDROOT
BRANCH   1   7
HETATM    7  N3  UNL     1      28.135   7.119  49.037  1.00  0.00    -0.363 N 
HETATM    8  H7  UNL     1      28.813   6.610  49.644  1.00  0.00     0.162 HD
BRANCH   7   9
HETATM    9  C5  UNL     1      28.259   8.551  48.910  1.00  0.00     0.133 A 
HETATM   10  N2  UNL     1      27.123   9.264  48.795  1.00  0.00    -0.224 NA
HETATM   11  C4  UNL     1      27.188  10.615  48.672  1.00  0.00     0.235 A 
HETATM   12  N1  UNL     1      28.387  11.223  48.667  1.00  0.00    -0.246 NA
HETATM   13  C3  UNL     1      29.553  10.565  48.777  1.00  0.00     0.045 A 
HETATM   14  C20 UNL     1      29.489   9.172  48.905  1.00  0.00     0.008 A 
HETATM   15  C21 UNL     1      30.686   8.336  49.034  1.00  0.00     0.054 C 
BRANCH  13  16
HETATM   16  C2  UNL     1      30.859  11.250  48.770  1.00  0.00     0.055 C 
HETATM   17  C1  UNL     1      30.668  12.615  49.400  1.00  0.00     0.011 C 
ENDBRANCH  13  16
ENDBRANCH   7   9
ENDBRANCH   1   7
BRANCH   4  18
HETATM   18  C10 UNL     1      24.777   3.239  50.301  1.00  0.00     0.167 C 
BRANCH  18  19
HETATM   19  O1  UNL     1      24.780   2.022  50.946  1.00  0.00    -0.378 OA
BRANCH  19  20
HETATM   20  C11 UNL     1      24.914   2.059  52.363  1.00  0.00     0.207 C 
BRANCH  20  21
HETATM   21  C12 UNL     1      26.178   1.393  52.708  1.00  0.00    -0.033 A 
HETATM   22  C13 UNL     1      27.335   1.957  53.188  1.00  0.00     0.009 A 
HETATM   23  C14 UNL     1      28.455   1.192  53.471  1.00  0.00     0.002 A 
HETATM   24  C15 UNL     1      28.434  -0.168  53.276  1.00  0.00     0.024 A 
HETATM   25  C16 UNL     1      27.292  -0.768  52.797  1.00  0.00     0.034 A 
HETATM   26 CL1  UNL     1      27.277  -2.510  52.550  1.00  0.00    -0.084 Cl
HETATM   27  C17 UNL     1      26.203   0.021  52.528  1.00  0.00     0.033 A 
ENDBRANCH  20  21
ENDBRANCH  19  20
ENDBRANCH  18  19
ENDBRANCH   4  18
TORSDOF 7
ENDMDL
MODEL 5
REMARK VINA RESULT:      -7.8      3.109      4.437
REMARK  7 active torsions:
REMARK  status: ('A' for Active; 'I' for Inactive)
REMARK    1  A    between atoms: C2_2  and  C3_3 
REMARK    2  A    between atoms: C5_7  and  N3_8 
REMARK    3  A    between atoms: N3_8  and  C6_9 
REMARK    4  A    between atoms: C9_12  and  C10_13 
REMARK    5  A    between atoms: C10_13  and  O1_14 
REMARK    6  A    between atoms: O1_14  and  C11_15 
REMARK    7  A    between atoms: C11_15  and  C12_16 
ROOT
HETATM    1  C6  UNL     1      25.874   2.745  50.479  1.00  0.00     0.134 A 
HETATM    2  C7  UNL     1      26.506   3.600  49.765  1.00  0.00    -0.038 A 
HETATM    3  C8  UNL     1      26.951   4.239  49.251  1.00  0.00    -0.049 A 
HETATM    4  C9  UNL     1      27.491   5.058  48.612  1.00  0.00     0.042 A 
HETATM    5  C18 UNL     1      25.987   5.284  49.594  1.00  0.00     0.070 A 
HETATM    6  C19 UNL     1      24.981   4.433  50.569  1.00  0.00    -0.011 A 
ENDROOT
BRANCH   1   7
HETATM    7  N3  UNL     1      25.950   2.737  51.909  1.00  0.00    -0.363 N 
HETATM    8  H7  UNL     1      25.792   3.577  52.506  1.00  0.00     0.162 HD
BRANCH   7   9
HETATM    9  C5  UNL     1      26.265   1.483  52.550  1.00  0.00     0.133 A 
HETATM   10  N2  UNL     1      25.356   0.494  52.458  1.00  0.00    -0.224 NA
HETATM   11  C4  UNL     1      25.607  -0.704  53.044  1.00  0.00     0.235 A 
HETATM   12  N1  UNL     1      26.760  -0.889  53.710  1.00  0.00    -0.246 NA
HETATM   13  C3  UNL     1      27.703   0.060  53.837  1.00  0.00     0.045 A 
HETATM   14  C20 UNL     1      27.447   1.297  53.232  1.00  0.00     0.008 A 
HETATM   15  C21 UNL     1      28.393   2.415  53.293  1.00  0.00     0.054 C 
BRANCH  13  16
HETATM   16  C2  UNL     1      28.963  -0.161  54.571  1.00  0.00     0.055 C 
HETATM   17  C1  UNL     1      29.882  -0.970  53.677  1.00  0.00     0.011 C 
ENDBRANCH  13  16
ENDBRANCH   7   9
ENDBRANCH   1   7
BRANCH   4  18
HETATM   18  C10 UNL     1      27.391   6.301  48.283  1.00  0.00     0.167 C 
BRANCH  18  19
HETATM   19  O1  UNL     1      27.185   7.645  48.063  1.00  0.00    -0.378 OA
BRANCH  19  20
HETATM   20  C11 UNL     1      26.182   7.982  47.109  1.00  0.00     0.207 C 
BRANCH  20  21
HETATM   21  C12 UNL     1      24.884   7.956  47.800  1.00  0.00    -0.033 A 
HETATM   22  C13 UNL     1      24.512   8.628  48.939  1.00  0.00     0.009 A 
HETATM   23  C14 UNL     1      23.241   8.503  49.474  1.00  0.00     0.002 A 
HETATM   24  C15 UNL     1      22.309   7.693  48.870  1.00  0.00     0.024 A 
HETATM   25  C16 UNL     1      22.646   7.005  47.727  1.00  0.00     0.034 A 
HETATM   26 CL1  UNL     1      21.446   5.971  46.963  1.00  0.00    -0.084 Cl
HETATM   27  C17 UNL     1      23.915   7.153  47.225  1.00  0.00     0.033 A 
ENDBRANCH  20  21
ENDBRANCH  19  20
ENDBRANCH  18  19
ENDBRANCH   4  18
TORSDOF 7
ENDMDL
MODEL 6
REMARK VINA RESULT:      -7.8      3.639      5.709
REMARK  7 active torsions:
REMARK  status: ('A' for Active; 'I' for Inactive)
REMARK    1  A    between atoms: C2_2  and  C3_3 
REMARK    2  A    between atoms: C5_7  and  N3_8 
REMARK    3  A    between atoms: N3_8  and  C6_9 
REMARK    4  A    between atoms: C9_12  and  C10_13 
REMARK    5  A    between atoms: C10_13  and  O1_14 
REMARK    6  A    between atoms: O1_14  and  C11_15 
REMARK    7  A    between atoms: C11_15  and  C12_16 
ROOT
HETATM    1  C6  UNL     1      24.538   1.475  53.281  1.00  0.00     0.134 A 
HETATM    2  C7  UNL     1      24.194   2.669  52.975  1.00  0.00    -0.038 A 
HETATM    3  C8  UNL     1      23.956   3.538  52.732  1.00  0.00    -0.049 A 
HETATM    4  C9  UNL     1      23.672   4.627  52.407  1.00  0.00     0.042 A 
HETATM    5  C18 UNL     1      24.738   3.481  51.498  1.00  0.00     0.070 A 
HETATM    6  C19 UNL     1      25.341   1.961  51.616  1.00  0.00    -0.011 A 
ENDROOT
BRANCH   1   7
HETATM    7  N3  UNL     1      23.968   0.327  52.641  1.00  0.00    -0.363 N 
HETATM    8  H7  UNL     1      24.465  -0.252  51.931  1.00  0.00     0.162 HD
BRANCH   7   9
HETATM    9  C5  UNL     1      22.622  -0.038  53.012  1.00  0.00     0.133 A 
HETATM   10  N2  UNL     1      22.451  -0.661  54.194  1.00  0.00    -0.224 NA
HETATM   11  C4  UNL     1      21.203  -1.024  54.586  1.00  0.00     0.235 A 
HETATM   12  N1  UNL     1      20.153  -0.758  53.790  1.00  0.00    -0.246 NA
HETATM   13  C3  UNL     1      20.262  -0.141  52.602  1.00  0.00     0.045 A 
HETATM   14  C20 UNL     1      21.547   0.236  52.195  1.00  0.00     0.008 A 
HETATM   15  C21 UNL     1      21.804   0.917  50.921  1.00  0.00     0.054 C 
BRANCH  13  16
HETATM   16  C2  UNL     1      19.098   0.143  51.742  1.00  0.00     0.055 C 
HETATM   17  C1  UNL     1      17.913  -0.615  52.304  1.00  0.00     0.011 C 
ENDBRANCH  13  16
ENDBRANCH   7   9
ENDBRANCH   1   7
BRANCH   4  18
HETATM   18  C10 UNL     1      23.878   5.477  51.460  1.00  0.00     0.167 C 
BRANCH  18  19
HETATM   19  O1  UNL     1      24.055   6.504  50.559  1.00  0.00    -0.378 OA
BRANCH  19  20
HETATM   20  C11 UNL     1      24.176   6.128  49.190  1.00  0.00     0.207 C 
BRANCH  20  21
HETATM   21  C12 UNL     1      25.610   6.078  48.868  1.00  0.00    -0.033 A 
HETATM   22  C13 UNL     1      26.458   4.999  48.927  1.00  0.00     0.009 A 
HETATM   23  C14 UNL     1      27.796   5.107  48.587  1.00  0.00     0.002 A 
HETATM   24  C15 UNL     1      28.314   6.313  48.177  1.00  0.00     0.024 A 
HETATM   25  C16 UNL     1      27.494   7.415  48.105  1.00  0.00     0.034 A 
HETATM   26 CL1  UNL     1      28.167   8.953  47.579  1.00  0.00    -0.084 Cl
HETATM   27  C17 UNL     1      26.173   7.270  48.450  1.00  0.00     0.033 A 
ENDBRANCH  20  21
ENDBRANCH  19  20
ENDBRANCH  18  19
ENDBRANCH   4  18
TORSDOF 7
ENDMDL
MODEL 7
REMARK VINA RESULT:      -7.7      1.922      2.813
REMARK  7 active torsions:
REMARK  status: ('A' for Active; 'I' for Inactive)
REMARK    1  A    between atoms: C2_2  and  C3_3 
REMARK    2  A    between atoms: C5_7  and  N3_8 
REMARK    3  A    between atoms: N3_8  and  C6_9 
REMARK    4  A    between atoms: C9_12  and  C10_13 
REMARK    5  A    between atoms: C10_13  and  O1_14 
REMARK    6  A    between atoms: O1_14  and  C11_15 
REMARK    7  A    between atoms: C11_15  and  C12_16 
ROOT
HETATM    1  C6  UNL     1      25.877   3.305  49.836  1.00  0.00     0.134 A 
HETATM    2  C7  UNL     1      26.769   4.039  49.285  1.00  0.00    -0.038 A 
HETATM    3  C8  UNL     1      27.406   4.593  48.888  1.00  0.00    -0.049 A 
HETATM    4  C9  UNL     1      28.190   5.309  48.394  1.00  0.00     0.042 A 
HETATM    5  C18 UNL     1      26.617   5.798  49.146  1.00  0.00     0.070 A 
HETATM    6  C19 UNL     1      25.322   5.133  49.898  1.00  0.00    -0.011 A 
ENDROOT
BRANCH   1   7
HETATM    7  N3  UNL     1      25.715   3.234  51.257  1.00  0.00    -0.363 N 
HETATM    8  H7  UNL     1      25.646   4.068  51.878  1.00  0.00     0.162 HD
BRANCH   7   9
HETATM    9  C5  UNL     1      25.645   1.921  51.852  1.00  0.00     0.133 A 
HETATM   10  N2  UNL     1      26.697   1.100  51.671  1.00  0.00    -0.224 NA
HETATM   11  C4  UNL     1      26.677  -0.145  52.211  1.00  0.00     0.235 A 
HETATM   12  N1  UNL     1      25.607  -0.544  52.920  1.00  0.00    -0.246 NA
HETATM   13  C3  UNL     1      24.529   0.229  53.133  1.00  0.00     0.045 A 
HETATM   14  C20 UNL     1      24.547   1.515  52.578  1.00  0.00     0.008 A 
HETATM   15  C21 UNL     1      23.436   2.458  52.738  1.00  0.00     0.054 C 
BRANCH  13  16
HETATM   16  C2  UNL     1      23.364  -0.225  53.915  1.00  0.00     0.055 C 
HETATM   17  C1  UNL     1      22.489  -1.055  52.997  1.00  0.00     0.011 C 
ENDBRANCH  13  16
ENDBRANCH   7   9
ENDBRANCH   1   7
BRANCH   4  18
HETATM   18  C10 UNL     1      28.386   6.557  48.134  1.00  0.00     0.167 C 
BRANCH  18  19
HETATM   19  O1  UNL     1      28.727   7.840  47.767  1.00  0.00    -0.378 OA
BRANCH  19  20
HETATM   20  C11 UNL     1      29.385   8.626  48.756  1.00  0.00     0.207 C 
BRANCH  20  21
HETATM   21  C12 UNL     1      30.833   8.492  48.540  1.00  0.00    -0.033 A 
HETATM   22  C13 UNL     1      31.678   7.518  49.016  1.00  0.00     0.009 A 
HETATM   23  C14 UNL     1      33.032   7.525  48.723  1.00  0.00     0.002 A 
HETATM   24  C15 UNL     1      33.569   8.518  47.941  1.00  0.00     0.024 A 
HETATM   25  C16 UNL     1      32.753   9.510  47.446  1.00  0.00     0.034 A 
HETATM   26 CL1  UNL     1      33.451  10.777  46.446  1.00  0.00    -0.084 Cl
HETATM   27  C17 UNL     1      31.417   9.471  47.756  1.00  0.00     0.033 A 
ENDBRANCH  20  21
ENDBRANCH  19  20
ENDBRANCH  18  19
ENDBRANCH   4  18
TORSDOF 7
ENDMDL
MODEL 8
REMARK VINA RESULT:      -7.7      1.501      2.708
REMARK  7 active torsions:
REMARK  status: ('A' for Active; 'I' for Inactive)
REMARK    1  A    between atoms: C2_2  and  C3_3 
REMARK    2  A    between atoms: C5_7  and  N3_8 
REMARK    3  A    between atoms: N3_8  and  C6_9 
REMARK    4  A    between atoms: C9_12  and  C10_13 
REMARK    5  A    between atoms: C10_13  and  O1_14 
REMARK    6  A    between atoms: O1_14  and  C11_15 
REMARK    7  A    between atoms: C11_15  and  C12_16 
ROOT
HETATM    1  C6  UNL     1      26.253   3.721  49.416  1.00  0.00     0.134 A 
HETATM    2  C7  UNL     1      27.238   4.399  48.959  1.00  0.00    -0.038 A 
HETATM    3  C8  UNL     1      27.942   4.912  48.626  1.00  0.00    -0.049 A 
HETATM    4  C9  UNL     1      28.811   5.576  48.208  1.00  0.00     0.042 A 
HETATM    5  C18 UNL     1      27.132   6.129  48.597  1.00  0.00     0.070 A 
HETATM    6  C19 UNL     1      25.714   5.538  49.167  1.00  0.00    -0.011 A 
ENDROOT
BRANCH   1   7
HETATM    7  N3  UNL     1      25.831   3.810  50.782  1.00  0.00    -0.363 N 
HETATM    8  H7  UNL     1      25.342   4.635  51.189  1.00  0.00     0.162 HD
BRANCH   7   9
HETATM    9  C5  UNL     1      26.107   2.679  51.635  1.00  0.00     0.133 A 
HETATM   10  N2  UNL     1      27.391   2.450  51.968  1.00  0.00    -0.224 NA
HETATM   11  C4  UNL     1      27.700   1.399  52.768  1.00  0.00     0.235 A 
HETATM   12  N1  UNL     1      26.719   0.597  53.219  1.00  0.00    -0.246 NA
HETATM   13  C3  UNL     1      25.421   0.774  52.920  1.00  0.00     0.045 A 
HETATM   14  C20 UNL     1      25.099   1.859  52.095  1.00  0.00     0.008 A 
HETATM   15  C21 UNL     1      23.722   2.164  51.695  1.00  0.00     0.054 C 
BRANCH  13  16
HETATM   16  C2  UNL     1      24.359  -0.116  53.424  1.00  0.00     0.055 C 
HETATM   17  C1  UNL     1      24.924  -0.892  54.597  1.00  0.00     0.011 C 
ENDBRANCH  13  16
ENDBRANCH   7   9
ENDBRANCH   1   7
BRANCH   4  18
HETATM   18  C10 UNL     1      29.064   6.789  47.849  1.00  0.00     0.167 C 
BRANCH  18  19
HETATM   19  O1  UNL     1      29.492   8.054  47.514  1.00  0.00    -0.378 OA
BRANCH  19  20
HETATM   20  C11 UNL     1      30.739   8.466  48.065  1.00  0.00     0.207 C 
BRANCH  20  21
HETATM   21  C12 UNL     1      31.795   7.677  47.414  1.00  0.00    -0.033 A 
HETATM   22  C13 UNL     1      32.004   7.478  46.070  1.00  0.00     0.009 A 
HETATM   23  C14 UNL     1      33.053   6.703  45.605  1.00  0.00     0.002 A 
HETATM   24  C15 UNL     1      33.922   6.107  46.487  1.00  0.00     0.024 A 
HETATM   25  C16 UNL     1      33.744   6.284  47.840  1.00  0.00     0.034 A 
HETATM   26 CL1  UNL     1      34.861   5.516  48.960  1.00  0.00    -0.084 Cl
HETATM   27  C17 UNL     1      32.694   7.059  48.265  1.00  0.00     0.033 A 
ENDBRANCH  20  21
ENDBRANCH  19  20
ENDBRANCH  18  19
ENDBRANCH   4  18
TORSDOF 7
ENDMDL
MODEL 9
REMARK VINA RESULT:      -7.6      2.199      3.355
REMARK  7 active torsions:
REMARK  status: ('A' for Active; 'I' for Inactive)
REMARK    1  A    between atoms: C2_2  and  C3_3 
REMARK    2  A    between atoms: C5_7  and  N3_8 
REMARK    3  A    between atoms: N3_8  and  C6_9 
REMARK    4  A    between atoms: C9_12  and  C10_13 
REMARK    5  A    between atoms: C10_13  and  O1_14 
REMARK    6  A    between atoms: O1_14  and  C11_15 
REMARK    7  A    between atoms: C11_15  and  C12_16 
ROOT
HETATM    1  C6  UNL     1      26.084   4.269  49.329  1.00  0.00     0.134 A 
HETATM    2  C7  UNL     1      27.217   4.645  48.867  1.00  0.00    -0.038 A 
HETATM    3  C8  UNL     1      28.036   4.942  48.532  1.00  0.00    -0.049 A 
HETATM    4  C9  UNL     1      29.054   5.337  48.111  1.00  0.00     0.042 A 
HETATM    5  C18 UNL     1      27.616   6.343  48.557  1.00  0.00     0.070 A 
HETATM    6  C19 UNL     1      26.096   6.172  49.146  1.00  0.00    -0.011 A 
ENDROOT
BRANCH   1   7
HETATM    7  N3  UNL     1      25.728   4.430  50.707  1.00  0.00    -0.363 N 
HETATM    8  H7  UNL     1      26.059   5.215  51.307  1.00  0.00     0.162 HD
BRANCH   7   9
HETATM    9  C5  UNL     1      24.856   3.436  51.287  1.00  0.00     0.133 A 
HETATM   10  N2  UNL     1      23.532   3.677  51.255  1.00  0.00    -0.224 NA
HETATM   11  C4  UNL     1      22.673   2.772  51.788  1.00  0.00     0.235 A 
HETATM   12  N1  UNL     1      23.154   1.645  52.342  1.00  0.00    -0.246 NA
HETATM   13  C3  UNL     1      24.463   1.351  52.403  1.00  0.00     0.045 A 
HETATM   14  C20 UNL     1      25.353   2.282  51.853  1.00  0.00     0.008 A 
HETATM   15  C21 UNL     1      26.805   2.082  51.854  1.00  0.00     0.054 C 
BRANCH  13  16
HETATM   16  C2  UNL     1      24.973   0.109  53.014  1.00  0.00     0.055 C 
HETATM   17  C1  UNL     1      23.835  -0.526  53.786  1.00  0.00     0.011 C 
ENDBRANCH  13  16
ENDBRANCH   7   9
ENDBRANCH   1   7
BRANCH   4  18
HETATM   18  C10 UNL     1      29.645   6.435  47.781  1.00  0.00     0.167 C 
BRANCH  18  19
HETATM   19  O1  UNL     1      30.419   7.520  47.434  1.00  0.00    -0.378 OA
BRANCH  19  20
HETATM   20  C11 UNL     1      31.789   7.468  47.818  1.00  0.00     0.207 C 
BRANCH  20  21
HETATM   21  C12 UNL     1      32.453   6.473  46.962  1.00  0.00    -0.033 A 
HETATM   22  C13 UNL     1      32.433   6.380  45.591  1.00  0.00     0.009 A 
HETATM   23  C14 UNL     1      33.115   5.379  44.920  1.00  0.00     0.002 A 
HETATM   24  C15 UNL     1      33.838   4.441  45.619  1.00  0.00     0.024 A 
HETATM   25  C16 UNL     1      33.880   4.503  46.993  1.00  0.00     0.034 A 
HETATM   26 CL1  UNL     1      34.808   3.298  47.878  1.00  0.00    -0.084 Cl
HETATM   27  C17 UNL     1      33.193   5.509  47.624  1.00  0.00     0.033 A 
ENDBRANCH  20  21
ENDBRANCH  19  20
ENDBRANCH  18  19
ENDBRANCH   4  18
TORSDOF 7
ENDMDL
