MODEL 1
REMARK VINA RESULT:      -8.5      0.000      0.000
REMARK  2 active torsions:
REMARK  status: ('A' for Active; 'I' for Inactive)
REMARK    1  A    between atoms: C9_11  and  N2_12 
REMARK    2  A    between atoms: N2_12  and  C10_13 
ROOT
HETATM    1 BR1  UNL     1      17.725   0.912  50.454  1.00  0.00    -0.051 Br
HETATM    2  C1  UNL     1      19.151   0.339  51.560  1.00  0.00     0.011 A 
HETATM    3  C2  UNL     1      18.799  -0.433  52.630  1.00  0.00     0.022 A 
HETATM    4  C3  UNL     1      19.797  -0.874  53.474  1.00  0.00     0.039 A 
HETATM    5  C4  UNL     1      21.135  -0.524  53.217  1.00  0.00     0.086 A 
HETATM    6  C5  UNL     1      21.510   0.249  52.152  1.00  0.00    -0.005 A 
HETATM    7  C6  UNL     1      20.487   0.685  51.310  1.00  0.00     0.030 A 
HETATM    8  C7  UNL     1      22.771   0.766  51.629  1.00  0.00     0.161 C 
HETATM    9  N1  UNL     1      23.943   0.430  52.382  1.00  0.00    -0.379 N 
HETATM   10  C8  UNL     1      24.182  -0.146  53.637  1.00  0.00     0.129 A 
HETATM   11  C9  UNL     1      25.469  -0.022  54.105  1.00  0.00     0.160 A 
HETATM   12  N3  UNL     1      25.739  -0.573  55.309  1.00  0.00    -0.222 NA
HETATM   13  C15 UNL     1      24.851  -1.226  56.074  1.00  0.00     0.238 A 
HETATM   14  N4  UNL     1      23.592  -1.353  55.627  1.00  0.00    -0.215 NA
HETATM   15  C16 UNL     1      23.279  -0.813  54.424  1.00  0.00     0.202 A 
HETATM   16  O1  UNL     1      21.943  -1.069  54.177  1.00  0.00    -0.289 OA
HETATM   17  H6  UNL     1      24.804   0.675  51.851  1.00  0.00     0.160 HD
ENDROOT
BRANCH  11  18
HETATM   18  N2  UNL     1      26.440   0.699  53.326  1.00  0.00    -0.339 N 
HETATM   19  H7  UNL     1      26.276   1.591  52.792  1.00  0.00     0.167 HD
BRANCH  18  20
HETATM   20  C10 UNL     1      27.682  -0.032  53.438  1.00  0.00     0.029 A 
HETATM   21  C11 UNL     1      27.678  -1.258  52.889  1.00  0.00     0.006 A 
HETATM   22  C12 UNL     1      29.009  -1.909  53.071  1.00  0.00     0.056 A 
HETATM   23  C13 UNL     1      29.771  -0.875  53.806  1.00  0.00    -0.021 A 
HETATM   24  C14 UNL     1      28.999   0.201  54.010  1.00  0.00     0.025 A 
ENDBRANCH  18  20
ENDBRANCH  11  18
TORSDOF 2
ENDMDL
MODEL 2
REMARK VINA RESULT:      -8.5      1.282      1.788
REMARK  2 active torsions:
REMARK  status: ('A' for Active; 'I' for Inactive)
REMARK    1  A    between atoms: C9_11  and  N2_12 
REMARK    2  A    between atoms: N2_12  and  C10_13 
ROOT
HETATM    1 BR1  UNL     1      19.908   2.823  48.543  1.00  0.00    -0.051 Br
HETATM    2  C1  UNL     1      20.784   1.855  49.914  1.00  0.00     0.011 A 
HETATM    3  C2  UNL     1      20.009   0.964  50.601  1.00  0.00     0.022 A 
HETATM    4  C3  UNL     1      20.594   0.235  51.614  1.00  0.00     0.039 A 
HETATM    5  C4  UNL     1      21.955   0.421  51.914  1.00  0.00     0.086 A 
HETATM    6  C5  UNL     1      22.751   1.307  51.240  1.00  0.00    -0.005 A 
HETATM    7  C6  UNL     1      22.141   2.036  50.217  1.00  0.00     0.030 A 
HETATM    8  C7  UNL     1      24.151   1.716  51.307  1.00  0.00     0.161 C 
HETATM    9  N1  UNL     1      24.938   1.079  52.320  1.00  0.00    -0.379 N 
HETATM   10  C8  UNL     1      24.658   0.257  53.420  1.00  0.00     0.129 A 
HETATM   11  C9  UNL     1      25.692   0.102  54.314  1.00  0.00     0.160 A 
HETATM   12  N3  UNL     1      25.461  -0.691  55.385  1.00  0.00    -0.222 NA
HETATM   13  C15 UNL     1      24.309  -1.330  55.636  1.00  0.00     0.238 A 
HETATM   14  N4  UNL     1      23.294  -1.185  54.771  1.00  0.00    -0.215 NA
HETATM   15  C16 UNL     1      23.483  -0.398  53.684  1.00  0.00     0.202 A 
HETATM   16  O1  UNL     1      22.314  -0.401  52.945  1.00  0.00    -0.289 OA
HETATM   17  H6  UNL     1      25.950   1.283  52.183  1.00  0.00     0.160 HD
ENDROOT
BRANCH  11  18
HETATM   18  N2  UNL     1      26.931   0.797  54.094  1.00  0.00    -0.339 N 
HETATM   19  H7  UNL     1      27.088   1.835  54.169  1.00  0.00     0.167 HD
BRANCH  18  20
HETATM   20  C10 UNL     1      27.915  -0.210  53.767  1.00  0.00     0.029 A 
HETATM   21  C11 UNL     1      29.164   0.049  54.188  1.00  0.00     0.006 A 
HETATM   22  C12 UNL     1      30.083  -1.058  53.790  1.00  0.00     0.056 A 
HETATM   23  C13 UNL     1      29.175  -1.985  53.079  1.00  0.00    -0.021 A 
HETATM   24  C14 UNL     1      27.930  -1.488  53.073  1.00  0.00     0.025 A 
ENDBRANCH  18  20
ENDBRANCH  11  18
TORSDOF 2
ENDMDL
MODEL 3
REMARK VINA RESULT:      -8.3      2.054      3.333
REMARK  2 active torsions:
REMARK  status: ('A' for Active; 'I' for Inactive)
REMARK    1  A    between atoms: C9_11  and  N2_12 
REMARK    2  A    between atoms: N2_12  and  C10_13 
ROOT
HETATM    1 BR1  UNL     1      18.158  -0.517  51.814  1.00  0.00    -0.051 Br
HETATM    2  C1  UNL     1      19.846   0.310  51.585  1.00  0.00     0.011 A 
HETATM    3  C2  UNL     1      20.023   0.983  50.409  1.00  0.00     0.022 A 
HETATM    4  C3  UNL     1      21.236   1.600  50.187  1.00  0.00     0.039 A 
HETATM    5  C4  UNL     1      22.248   1.526  51.160  1.00  0.00     0.086 A 
HETATM    6  C5  UNL     1      22.093   0.857  52.344  1.00  0.00    -0.005 A 
HETATM    7  C6  UNL     1      20.859   0.239  52.551  1.00  0.00     0.030 A 
HETATM    8  C7  UNL     1      22.922   0.607  53.520  1.00  0.00     0.161 C 
HETATM    9  N1  UNL     1      24.244   1.157  53.479  1.00  0.00    -0.379 N 
HETATM   10  C8  UNL     1      25.038   1.752  52.489  1.00  0.00     0.129 A 
HETATM   11  C9  UNL     1      26.371   1.878  52.803  1.00  0.00     0.160 A 
HETATM   12  N3  UNL     1      27.168   2.455  51.875  1.00  0.00    -0.222 NA
HETATM   13  C15 UNL     1      26.756   2.908  50.682  1.00  0.00     0.238 A 
HETATM   14  N4  UNL     1      25.457   2.790  50.365  1.00  0.00    -0.215 NA
HETATM   15  C16 UNL     1      24.624   2.216  51.267  1.00  0.00     0.202 A 
HETATM   16  O1  UNL     1      23.352   2.206  50.727  1.00  0.00    -0.289 OA
HETATM   17  H6  UNL     1      24.698   1.094  54.413  1.00  0.00     0.160 HD
ENDROOT
BRANCH  11  18
HETATM   18  N2  UNL     1      26.854   1.373  54.060  1.00  0.00    -0.339 N 
HETATM   19  H7  UNL     1      26.606   1.735  55.017  1.00  0.00     0.167 HD
BRANCH  18  20
HETATM   20  C10 UNL     1      27.730   0.265  53.750  1.00  0.00     0.029 A 
HETATM   21  C11 UNL     1      28.992   0.389  54.191  1.00  0.00     0.006 A 
HETATM   22  C12 UNL     1      29.792  -0.811  53.808  1.00  0.00     0.056 A 
HETATM   23  C13 UNL     1      28.802  -1.636  53.083  1.00  0.00    -0.021 A 
HETATM   24  C14 UNL     1      27.618  -1.009  53.057  1.00  0.00     0.025 A 
ENDBRANCH  18  20
ENDBRANCH  11  18
TORSDOF 2
ENDMDL
MODEL 4
REMARK VINA RESULT:      -7.9      2.996      3.943
REMARK  2 active torsions:
REMARK  status: ('A' for Active; 'I' for Inactive)
REMARK    1  A    between atoms: C9_11  and  N2_12 
REMARK    2  A    between atoms: N2_12  and  C10_13 
ROOT
HETATM    1 BR1  UNL     1      22.849   6.019  47.393  1.00  0.00    -0.051 Br
HETATM    2  C1  UNL     1      23.049   4.581  48.608  1.00  0.00     0.011 A 
HETATM    3  C2  UNL     1      21.986   3.729  48.699  1.00  0.00     0.022 A 
HETATM    4  C3  UNL     1      22.075   2.666  49.574  1.00  0.00     0.039 A 
HETATM    5  C4  UNL     1      23.241   2.485  50.339  1.00  0.00     0.086 A 
HETATM    6  C5  UNL     1      24.317   3.326  50.264  1.00  0.00    -0.005 A 
HETATM    7  C6  UNL     1      24.209   4.396  49.373  1.00  0.00     0.030 A 
HETATM    8  C7  UNL     1      25.629   3.406  50.901  1.00  0.00     0.161 C 
HETATM    9  N1  UNL     1      25.914   2.389  51.869  1.00  0.00    -0.379 N 
HETATM   10  C8  UNL     1      25.162   1.396  52.513  1.00  0.00     0.129 A 
HETATM   11  C9  UNL     1      25.770   0.813  53.600  1.00  0.00     0.160 A 
HETATM   12  N3  UNL     1      25.078  -0.155  54.242  1.00  0.00    -0.222 NA
HETATM   13  C15 UNL     1      23.854  -0.583  53.899  1.00  0.00     0.238 A 
HETATM   14  N4  UNL     1      23.252  -0.021  52.839  1.00  0.00    -0.215 NA
HETATM   15  C16 UNL     1      23.911   0.955  52.168  1.00  0.00     0.202 A 
HETATM   16  O1  UNL     1      23.104   1.377  51.127  1.00  0.00    -0.289 OA
HETATM   17  H6  UNL     1      26.920   2.406  52.136  1.00  0.00     0.160 HD
ENDROOT
BRANCH  11  18
HETATM   18  N2  UNL     1      27.068   1.269  54.016  1.00  0.00    -0.339 N 
HETATM   19  H7  UNL     1      27.296   2.202  54.448  1.00  0.00     0.167 HD
BRANCH  18  20
HETATM   20  C10 UNL     1      27.991   0.190  53.740  1.00  0.00     0.029 A 
HETATM   21  C11 UNL     1      29.254   0.396  54.149  1.00  0.00     0.006 A 
HETATM   22  C12 UNL     1      30.105  -0.782  53.806  1.00  0.00     0.056 A 
HETATM   23  C13 UNL     1      29.142  -1.688  53.142  1.00  0.00    -0.021 A 
HETATM   24  C14 UNL     1      27.928  -1.120  53.111  1.00  0.00     0.025 A 
ENDBRANCH  18  20
ENDBRANCH  11  18
TORSDOF 2
ENDMDL
MODEL 5
REMARK VINA RESULT:      -7.6      4.493      7.085
REMARK  2 active torsions:
REMARK  status: ('A' for Active; 'I' for Inactive)
REMARK    1  A    between atoms: C9_11  and  N2_12 
REMARK    2  A    between atoms: N2_12  and  C10_13 
ROOT
HETATM    1 BR1  UNL     1      29.792  -1.595  53.462  1.00  0.00    -0.051 Br
HETATM    2  C1  UNL     1      28.066  -0.861  53.203  1.00  0.00     0.011 A 
HETATM    3  C2  UNL     1      27.089  -1.749  52.856  1.00  0.00     0.022 A 
HETATM    4  C3  UNL     1      25.813  -1.267  52.649  1.00  0.00     0.039 A 
HETATM    5  C4  UNL     1      25.550   0.105  52.799  1.00  0.00     0.086 A 
HETATM    6  C5  UNL     1      26.514   1.013  53.146  1.00  0.00    -0.005 A 
HETATM    7  C6  UNL     1      27.798   0.508  53.351  1.00  0.00     0.030 A 
HETATM    8  C7  UNL     1      26.558   2.455  53.376  1.00  0.00     0.161 C 
HETATM    9  N1  UNL     1      25.321   3.153  53.194  1.00  0.00    -0.379 N 
HETATM   10  C8  UNL     1      24.066   2.822  52.662  1.00  0.00     0.129 A 
HETATM   11  C9  UNL     1      23.236   3.890  52.410  1.00  0.00     0.160 A 
HETATM   12  N3  UNL     1      22.014   3.609  51.905  1.00  0.00    -0.222 NA
HETATM   13  C15 UNL     1      21.558   2.377  51.634  1.00  0.00     0.238 A 
HETATM   14  N4  UNL     1      22.359   1.328  51.876  1.00  0.00    -0.215 NA
HETATM   15  C16 UNL     1      23.594   1.566  52.382  1.00  0.00     0.202 A 
HETATM   16  O1  UNL     1      24.229   0.349  52.547  1.00  0.00    -0.289 OA
HETATM   17  H6  UNL     1      25.392   4.128  53.551  1.00  0.00     0.160 HD
ENDROOT
BRANCH  11  18
HETATM   18  N2  UNL     1      23.705   5.226  52.658  1.00  0.00    -0.339 N 
HETATM   19  H7  UNL     1      23.822   5.684  53.599  1.00  0.00     0.167 HD
BRANCH  18  20
HETATM   20  C10 UNL     1      23.996   5.806  51.366  1.00  0.00     0.029 A 
HETATM   21  C11 UNL     1      23.438   7.007  51.137  1.00  0.00     0.006 A 
HETATM   22  C12 UNL     1      23.809   7.496  49.776  1.00  0.00     0.056 A 
HETATM   23  C13 UNL     1      24.659   6.398  49.264  1.00  0.00    -0.021 A 
HETATM   24  C14 UNL     1      24.761   5.432  50.188  1.00  0.00     0.025 A 
ENDBRANCH  18  20
ENDBRANCH  11  18
TORSDOF 2
ENDMDL
MODEL 6
REMARK VINA RESULT:      -7.5      5.415      7.765
REMARK  2 active torsions:
REMARK  status: ('A' for Active; 'I' for Inactive)
REMARK    1  A    between atoms: C9_11  and  N2_12 
REMARK    2  A    between atoms: N2_12  and  C10_13 
ROOT
HETATM    1 BR1  UNL     1      26.883   8.592  46.838  1.00  0.00    -0.051 Br
HETATM    2  C1  UNL     1      26.875   7.053  47.941  1.00  0.00     0.011 A 
HETATM    3  C2  UNL     1      27.964   6.236  47.828  1.00  0.00     0.022 A 
HETATM    4  C3  UNL     1      28.008   5.097  48.605  1.00  0.00     0.039 A 
HETATM    5  C4  UNL     1      26.948   4.806  49.481  1.00  0.00     0.086 A 
HETATM    6  C5  UNL     1      25.848   5.609  49.610  1.00  0.00    -0.005 A 
HETATM    7  C6  UNL     1      25.821   6.757  48.817  1.00  0.00     0.030 A 
HETATM    8  C7  UNL     1      24.624   5.586  50.405  1.00  0.00     0.161 C 
HETATM    9  N1  UNL     1      24.467   4.459  51.276  1.00  0.00    -0.379 N 
HETATM   10  C8  UNL     1      25.133   3.237  51.442  1.00  0.00     0.129 A 
HETATM   11  C9  UNL     1      24.470   2.307  52.209  1.00  0.00     0.160 A 
HETATM   12  N3  UNL     1      25.086   1.118  52.398  1.00  0.00    -0.222 NA
HETATM   13  C15 UNL     1      26.283   0.783  51.896  1.00  0.00     0.238 A 
HETATM   14  N4  UNL     1      26.939   1.682  51.146  1.00  0.00    -0.215 NA
HETATM   15  C16 UNL     1      26.356   2.887  50.931  1.00  0.00     0.202 A 
HETATM   16  O1  UNL     1      27.208   3.638  50.142  1.00  0.00    -0.289 OA
HETATM   17  H6  UNL     1      23.674   4.609  51.933  1.00  0.00     0.160 HD
ENDROOT
BRANCH  11  18
HETATM   18  N2  UNL     1      23.170   2.621  52.737  1.00  0.00    -0.339 N 
HETATM   19  H7  UNL     1      22.944   3.370  53.442  1.00  0.00     0.167 HD
BRANCH  18  20
HETATM   20  C10 UNL     1      22.238   1.719  52.096  1.00  0.00     0.029 A 
HETATM   21  C11 UNL     1      21.396   1.080  52.925  1.00  0.00     0.006 A 
HETATM   22  C12 UNL     1      20.492   0.182  52.149  1.00  0.00     0.056 A 
HETATM   23  C13 UNL     1      20.942   0.403  50.756  1.00  0.00    -0.021 A 
HETATM   24  C14 UNL     1      21.946   1.291  50.738  1.00  0.00     0.025 A 
ENDBRANCH  18  20
ENDBRANCH  11  18
TORSDOF 2
ENDMDL
MODEL 7
REMARK VINA RESULT:      -7.3      4.053      8.194
REMARK  2 active torsions:
REMARK  status: ('A' for Active; 'I' for Inactive)
REMARK    1  A    between atoms: C9_11  and  N2_12 
REMARK    2  A    between atoms: N2_12  and  C10_13 
ROOT
HETATM    1 BR1  UNL     1      25.988   1.653  53.750  1.00  0.00    -0.051 Br
HETATM    2  C1  UNL     1      24.300   1.290  52.971  1.00  0.00     0.011 A 
HETATM    3  C2  UNL     1      24.110   1.779  51.710  1.00  0.00     0.022 A 
HETATM    4  C3  UNL     1      22.896   1.549  51.097  1.00  0.00     0.039 A 
HETATM    5  C4  UNL     1      21.897   0.827  51.773  1.00  0.00     0.086 A 
HETATM    6  C5  UNL     1      22.065   0.328  53.036  1.00  0.00    -0.005 A 
HETATM    7  C6  UNL     1      23.299   0.571  53.640  1.00  0.00     0.030 A 
HETATM    8  C7  UNL     1      21.250  -0.438  53.975  1.00  0.00     0.161 C 
HETATM    9  N1  UNL     1      19.930  -0.768  53.529  1.00  0.00    -0.379 N 
HETATM   10  C8  UNL     1      19.125  -0.382  52.448  1.00  0.00     0.129 A 
HETATM   11  C9  UNL     1      17.796  -0.722  52.555  1.00  0.00     0.160 A 
HETATM   12  N3  UNL     1      16.990  -0.373  51.527  1.00  0.00    -0.222 NA
HETATM   13  C15 UNL     1      17.388   0.274  50.422  1.00  0.00     0.238 A 
HETATM   14  N4  UNL     1      18.682   0.611  50.307  1.00  0.00    -0.215 NA
HETATM   15  C16 UNL     1      19.524   0.281  51.316  1.00  0.00     0.202 A 
HETATM   16  O1  UNL     1      20.790   0.723  50.978  1.00  0.00    -0.289 OA
HETATM   17  H6  UNL     1      19.488  -1.461  54.167  1.00  0.00     0.160 HD
ENDROOT
BRANCH  11  18
HETATM   18  N2  UNL     1      17.328  -1.388  53.740  1.00  0.00    -0.339 N 
HETATM   19  H7  UNL     1      17.400  -1.032  54.728  1.00  0.00     0.167 HD
BRANCH  18  20
HETATM   20  C10 UNL     1      16.727  -2.630  53.304  1.00  0.00     0.029 A 
HETATM   21  C11 UNL     1      17.338  -3.746  53.736  1.00  0.00     0.006 A 
HETATM   22  C12 UNL     1      16.629  -4.953  53.219  1.00  0.00     0.056 A 
HETATM   23  C13 UNL     1      15.526  -4.362  52.429  1.00  0.00    -0.021 A 
HETATM   24  C14 UNL     1      15.591  -3.024  52.487  1.00  0.00     0.025 A 
ENDBRANCH  18  20
ENDBRANCH  11  18
TORSDOF 2
ENDMDL
MODEL 8
REMARK VINA RESULT:      -7.2      4.635      5.804
REMARK  2 active torsions:
REMARK  status: ('A' for Active; 'I' for Inactive)
REMARK    1  A    between atoms: C9_11  and  N2_12 
REMARK    2  A    between atoms: N2_12  and  C10_13 
ROOT
HETATM    1 BR1  UNL     1      24.219   8.283  46.369  1.00  0.00    -0.051 Br
HETATM    2  C1  UNL     1      23.872   6.809  47.506  1.00  0.00     0.011 A 
HETATM    3  C2  UNL     1      22.638   6.239  47.379  1.00  0.00     0.022 A 
HETATM    4  C3  UNL     1      22.329   5.165  48.187  1.00  0.00     0.039 A 
HETATM    5  C4  UNL     1      23.277   4.687  49.109  1.00  0.00     0.086 A 
HETATM    6  C5  UNL     1      24.519   5.243  49.253  1.00  0.00    -0.005 A 
HETATM    7  C6  UNL     1      24.814   6.328  48.427  1.00  0.00     0.030 A 
HETATM    8  C7  UNL     1      25.689   4.985  50.088  1.00  0.00     0.161 C 
HETATM    9  N1  UNL     1      25.564   3.905  51.021  1.00  0.00    -0.379 N 
HETATM   10  C8  UNL     1      24.504   3.109  51.477  1.00  0.00     0.129 A 
HETATM   11  C9  UNL     1      24.769   2.369  52.605  1.00  0.00     0.160 A 
HETATM   12  N3  UNL     1      23.773   1.582  53.070  1.00  0.00    -0.222 NA
HETATM   13  C15 UNL     1      22.556   1.474  52.517  1.00  0.00     0.238 A 
HETATM   14  N4  UNL     1      22.285   2.192  51.416  1.00  0.00    -0.215 NA
HETATM   15  C16 UNL     1      23.257   2.994  50.917  1.00  0.00     0.202 A 
HETATM   16  O1  UNL     1      22.755   3.626  49.794  1.00  0.00    -0.289 OA
HETATM   17  H6  UNL     1      26.487   3.671  51.439  1.00  0.00     0.160 HD
ENDROOT
BRANCH  11  18
HETATM   18  N2  UNL     1      26.053   2.485  53.243  1.00  0.00    -0.339 N 
HETATM   19  H7  UNL     1      26.449   3.346  53.700  1.00  0.00     0.167 HD
BRANCH  18  20
HETATM   20  C10 UNL     1      26.678   1.184  53.149  1.00  0.00     0.029 A 
HETATM   21  C11 UNL     1      27.601   0.921  54.088  1.00  0.00     0.006 A 
HETATM   22  C12 UNL     1      28.172  -0.442  53.883  1.00  0.00     0.056 A 
HETATM   23  C13 UNL     1      27.439  -0.918  52.688  1.00  0.00    -0.021 A 
HETATM   24  C14 UNL     1      26.580   0.025  52.276  1.00  0.00     0.025 A 
ENDBRANCH  18  20
ENDBRANCH  11  18
TORSDOF 2
ENDMDL
MODEL 9
REMARK VINA RESULT:      -7.0      4.460      5.364
REMARK  2 active torsions:
REMARK  status: ('A' for Active; 'I' for Inactive)
REMARK    1  A    between atoms: C9_11  and  N2_12 
REMARK    2  A    between atoms: N2_12  and  C10_13 
ROOT
HETATM    1 BR1  UNL     1      20.764   9.626  49.301  1.00  0.00    -0.051 Br
HETATM    2  C1  UNL     1      21.034   7.838  49.863  1.00  0.00     0.011 A 
HETATM    3  C2  UNL     1      19.997   6.980  49.632  1.00  0.00     0.022 A 
HETATM    4  C3  UNL     1      20.137   5.666  50.027  1.00  0.00     0.039 A 
HETATM    5  C4  UNL     1      21.326   5.245  50.648  1.00  0.00     0.086 A 
HETATM    6  C5  UNL     1      22.377   6.087  50.889  1.00  0.00    -0.005 A 
HETATM    7  C6  UNL     1      22.217   7.412  50.482  1.00  0.00     0.030 A 
HETATM    8  C7  UNL     1      23.702   5.959  51.490  1.00  0.00     0.161 C 
HETATM    9  N1  UNL     1      24.039   4.659  51.986  1.00  0.00    -0.379 N 
HETATM   10  C8  UNL     1      23.331   3.469  52.206  1.00  0.00     0.129 A 
HETATM   11  C9  UNL     1      23.981   2.533  52.976  1.00  0.00     0.160 A 
HETATM   12  N3  UNL     1      23.332   1.369  53.203  1.00  0.00    -0.222 NA
HETATM   13  C15 UNL     1      22.112   1.064  52.738  1.00  0.00     0.238 A 
HETATM   14  N4  UNL     1      21.468   1.970  51.986  1.00  0.00    -0.215 NA
HETATM   15  C16 UNL     1      22.083   3.152  51.735  1.00  0.00     0.202 A 
HETATM   16  O1  UNL     1      21.239   3.914  50.949  1.00  0.00    -0.289 OA
HETATM   17  H6  UNL     1      25.051   4.607  52.226  1.00  0.00     0.160 HD
ENDROOT
BRANCH  11  18
HETATM   18  N2  UNL     1      25.277   2.838  53.518  1.00  0.00    -0.339 N 
HETATM   19  H7  UNL     1      25.605   3.775  53.869  1.00  0.00     0.167 HD
BRANCH  18  20
HETATM   20  C10 UNL     1      26.031   1.603  53.503  1.00  0.00     0.029 A 
HETATM   21  C11 UNL     1      26.388   1.165  52.284  1.00  0.00     0.006 A 
HETATM   22  C12 UNL     1      27.154  -0.111  52.400  1.00  0.00     0.056 A 
HETATM   23  C13 UNL     1      27.180  -0.335  53.863  1.00  0.00    -0.021 A 
HETATM   24  C14 UNL     1      26.533   0.659  54.487  1.00  0.00     0.025 A 
ENDBRANCH  18  20
ENDBRANCH  11  18
TORSDOF 2
ENDMDL
