MODEL 1
REMARK VINA RESULT:      -8.4      0.000      0.000
REMARK  5 active torsions:
REMARK  status: ('A' for Active; 'I' for Inactive)
REMARK    1  A    between atoms: C3_3  and  C4_4 
REMARK    2  A    between atoms: C5_5  and  C7_7 
REMARK    3  A    between atoms: C7_7  and  N1_8 
REMARK    4  A    between atoms: N1_8  and  C8_9 
REMARK    5  A    between atoms: C8_9  and  C9_10 
ROOT
HETATM    1  C9  UNL     1      26.749   0.237  54.696  1.00  0.00     0.084 A 
HETATM    2  N2  UNL     1      28.031  -0.149  54.846  1.00  0.00    -0.242 NA
HETATM    3  C10 UNL     1      29.041   0.292  54.076  1.00  0.00     0.236 A 
HETATM    4  N3  UNL     1      28.835   1.183  53.064  1.00  0.00    -0.215 NA
HETATM    5  C11 UNL     1      27.572   1.613  52.857  1.00  0.00     0.200 A 
HETATM    6  C12 UNL     1      26.560   1.141  53.664  1.00  0.00     0.109 A 
HETATM    7  N4  UNL     1      25.203   1.491  53.546  1.00  0.00    -0.380 N 
HETATM    8  C13 UNL     1      24.396   2.084  52.523  1.00  0.00     0.161 C 
HETATM    9  C14 UNL     1      25.129   2.766  51.456  1.00  0.00    -0.005 A 
HETATM   10  C15 UNL     1      24.165   3.310  50.634  1.00  0.00     0.030 A 
HETATM   11  C16 UNL     1      24.414   4.044  49.495  1.00  0.00     0.011 A 
HETATM   12 BR1  UNL     1      23.076   4.794  48.367  1.00  0.00    -0.051 Br
HETATM   13  C17 UNL     1      25.750   4.251  49.147  1.00  0.00     0.022 A 
HETATM   14  C18 UNL     1      26.743   3.721  49.942  1.00  0.00     0.039 A 
HETATM   15  C19 UNL     1      26.458   2.991  51.079  1.00  0.00     0.086 A 
HETATM   16  O1  UNL     1      27.536   2.507  51.801  1.00  0.00    -0.289 OA
HETATM   17  H16 UNL     1      24.621   1.277  54.380  1.00  0.00     0.160 HD
ENDROOT
BRANCH   1  18
HETATM   18  C8  UNL     1      25.645  -0.243  55.576  1.00  0.00     0.176 C 
BRANCH  18  19
HETATM   19  N1  UNL     1      24.889  -1.299  55.026  1.00  0.00    -0.412 N 
HETATM   20  H12 UNL     1      25.319  -2.089  54.587  1.00  0.00     0.153 HD
BRANCH  19  21
HETATM   21  C7  UNL     1      23.553  -1.343  55.479  1.00  0.00     0.148 C 
BRANCH  21  22
HETATM   22  C5  UNL     1      22.552  -0.875  54.484  1.00  0.00    -0.067 C 
HETATM   23  C4  UNL     1      22.628  -1.010  53.183  1.00  0.00     0.004 C 
HETATM   24  C6  UNL     1      21.334  -0.183  54.979  1.00  0.00     0.045 C 
BRANCH  23  25
HETATM   25  C3  UNL     1      21.515  -0.464  52.425  1.00  0.00    -0.004 C 
HETATM   26  C2  UNL     1      21.733   0.263  51.322  1.00  0.00    -0.031 C 
HETATM   27  C1  UNL     1      20.708   0.881  50.450  1.00  0.00     0.036 C 
ENDBRANCH  23  25
ENDBRANCH  21  22
ENDBRANCH  19  21
ENDBRANCH  18  19
ENDBRANCH   1  18
TORSDOF 5
ENDMDL
MODEL 2
REMARK VINA RESULT:      -8.4      3.136      7.271
REMARK  5 active torsions:
REMARK  status: ('A' for Active; 'I' for Inactive)
REMARK    1  A    between atoms: C3_3  and  C4_4 
REMARK    2  A    between atoms: C5_5  and  C7_7 
REMARK    3  A    between atoms: C7_7  and  N1_8 
REMARK    4  A    between atoms: N1_8  and  C8_9 
REMARK    5  A    between atoms: C8_9  and  C9_10 
ROOT
HETATM    1  C9  UNL     1      26.523   2.295  51.548  1.00  0.00     0.084 A 
HETATM    2  N2  UNL     1      27.631   2.304  52.315  1.00  0.00    -0.242 NA
HETATM    3  C10 UNL     1      27.753   1.617  53.464  1.00  0.00     0.236 A 
HETATM    4  N3  UNL     1      26.739   0.843  53.948  1.00  0.00    -0.215 NA
HETATM    5  C11 UNL     1      25.598   0.787  53.230  1.00  0.00     0.200 A 
HETATM    6  C12 UNL     1      25.506   1.504  52.056  1.00  0.00     0.109 A 
HETATM    7  N4  UNL     1      24.372   1.549  51.225  1.00  0.00    -0.380 N 
HETATM    8  C13 UNL     1      22.986   1.229  51.384  1.00  0.00     0.161 C 
HETATM    9  C14 UNL     1      22.660   0.395  52.541  1.00  0.00    -0.005 A 
HETATM   10  C15 UNL     1      21.303   0.161  52.457  1.00  0.00     0.030 A 
HETATM   11  C16 UNL     1      20.569  -0.586  53.352  1.00  0.00     0.011 A 
HETATM   12 BR1  UNL     1      18.697  -0.905  53.227  1.00  0.00    -0.051 Br
HETATM   13  C17 UNL     1      21.255  -1.149  54.430  1.00  0.00     0.022 A 
HETATM   14  C18 UNL     1      22.612  -0.936  54.549  1.00  0.00     0.039 A 
HETATM   15  C19 UNL     1      23.318  -0.182  53.633  1.00  0.00     0.086 A 
HETATM   16  O1  UNL     1      24.677  -0.036  53.854  1.00  0.00    -0.289 OA
HETATM   17  H16 UNL     1      24.550   1.897  50.261  1.00  0.00     0.160 HD
ENDROOT
BRANCH   1  18
HETATM   18  C8  UNL     1      26.415   3.043  50.263  1.00  0.00     0.176 C 
BRANCH  18  19
HETATM   19  N1  UNL     1      26.294   4.439  50.420  1.00  0.00    -0.412 N 
HETATM   20  H12 UNL     1      26.640   4.916  51.228  1.00  0.00     0.153 HD
BRANCH  19  21
HETATM   21  C7  UNL     1      26.017   5.128  49.219  1.00  0.00     0.148 C 
BRANCH  21  22
HETATM   22  C5  UNL     1      27.205   5.756  48.584  1.00  0.00    -0.067 C 
HETATM   23  C4  UNL     1      28.407   5.240  48.502  1.00  0.00     0.004 C 
HETATM   24  C6  UNL     1      27.051   7.101  47.971  1.00  0.00     0.045 C 
BRANCH  23  25
HETATM   25  C3  UNL     1      29.401   6.058  47.829  1.00  0.00    -0.004 C 
HETATM   26  C2  UNL     1      30.657   5.618  47.677  1.00  0.00    -0.031 C 
HETATM   27  C1  UNL     1      31.773   6.332  47.017  1.00  0.00     0.036 C 
ENDBRANCH  23  25
ENDBRANCH  21  22
ENDBRANCH  19  21
ENDBRANCH  18  19
ENDBRANCH   1  18
TORSDOF 5
ENDMDL
MODEL 3
REMARK VINA RESULT:      -8.2      3.268      7.333
REMARK  5 active torsions:
REMARK  status: ('A' for Active; 'I' for Inactive)
REMARK    1  A    between atoms: C3_3  and  C4_4 
REMARK    2  A    between atoms: C5_5  and  C7_7 
REMARK    3  A    between atoms: C7_7  and  N1_8 
REMARK    4  A    between atoms: N1_8  and  C8_9 
REMARK    5  A    between atoms: C8_9  and  C9_10 
ROOT
HETATM    1  C9  UNL     1      26.569   2.320  51.523  1.00  0.00     0.084 A 
HETATM    2  N2  UNL     1      27.672   2.337  52.296  1.00  0.00    -0.242 NA
HETATM    3  C10 UNL     1      27.786   1.663  53.454  1.00  0.00     0.236 A 
HETATM    4  N3  UNL     1      26.768   0.895  53.939  1.00  0.00    -0.215 NA
HETATM    5  C11 UNL     1      25.631   0.833  53.215  1.00  0.00     0.200 A 
HETATM    6  C12 UNL     1      25.547   1.537  52.033  1.00  0.00     0.109 A 
HETATM    7  N4  UNL     1      24.419   1.574  51.194  1.00  0.00    -0.380 N 
HETATM    8  C13 UNL     1      23.031   1.258  51.348  1.00  0.00     0.161 C 
HETATM    9  C14 UNL     1      22.697   0.437  52.513  1.00  0.00    -0.005 A 
HETATM   10  C15 UNL     1      21.341   0.204  52.423  1.00  0.00     0.030 A 
HETATM   11  C16 UNL     1      20.599  -0.532  53.322  1.00  0.00     0.011 A 
HETATM   12 BR1  UNL     1      18.728  -0.851  53.188  1.00  0.00    -0.051 Br
HETATM   13  C17 UNL     1      21.279  -1.084  54.410  1.00  0.00     0.022 A 
HETATM   14  C18 UNL     1      22.635  -0.872  54.535  1.00  0.00     0.039 A 
HETATM   15  C19 UNL     1      23.347  -0.129  53.615  1.00  0.00     0.086 A 
HETATM   16  O1  UNL     1      24.705   0.019  53.843  1.00  0.00    -0.289 OA
HETATM   17  H16 UNL     1      24.603   1.911  50.228  1.00  0.00     0.160 HD
ENDROOT
BRANCH   1  18
HETATM   18  C8  UNL     1      26.469   3.054  50.229  1.00  0.00     0.176 C 
BRANCH  18  19
HETATM   19  N1  UNL     1      26.180   4.428  50.368  1.00  0.00    -0.412 N 
HETATM   20  H12 UNL     1      26.345   4.923  51.222  1.00  0.00     0.153 HD
BRANCH  19  21
HETATM   21  C7  UNL     1      26.022   5.106  49.141  1.00  0.00     0.148 C 
BRANCH  21  22
HETATM   22  C5  UNL     1      27.126   6.046  48.812  1.00  0.00    -0.067 C 
HETATM   23  C4  UNL     1      27.082   7.354  48.890  1.00  0.00     0.004 C 
HETATM   24  C6  UNL     1      28.420   5.484  48.347  1.00  0.00     0.045 C 
BRANCH  23  25
HETATM   25  C3  UNL     1      28.299   8.051  48.510  1.00  0.00    -0.004 C 
HETATM   26  C2  UNL     1      28.797   9.023  49.285  1.00  0.00    -0.031 C 
HETATM   27  C1  UNL     1      30.021   9.818  49.032  1.00  0.00     0.036 C 
ENDBRANCH  23  25
ENDBRANCH  21  22
ENDBRANCH  19  21
ENDBRANCH  18  19
ENDBRANCH   1  18
TORSDOF 5
ENDMDL
MODEL 4
REMARK VINA RESULT:      -8.1      2.675      5.632
REMARK  5 active torsions:
REMARK  status: ('A' for Active; 'I' for Inactive)
REMARK    1  A    between atoms: C3_3  and  C4_4 
REMARK    2  A    between atoms: C5_5  and  C7_7 
REMARK    3  A    between atoms: C7_7  and  N1_8 
REMARK    4  A    between atoms: N1_8  and  C8_9 
REMARK    5  A    between atoms: C8_9  and  C9_10 
ROOT
HETATM    1  C9  UNL     1      26.528   2.418  51.519  1.00  0.00     0.084 A 
HETATM    2  N2  UNL     1      27.640   2.444  52.280  1.00  0.00    -0.242 NA
HETATM    3  C10 UNL     1      27.779   1.757  53.427  1.00  0.00     0.236 A 
HETATM    4  N3  UNL     1      26.780   0.965  53.914  1.00  0.00    -0.215 NA
HETATM    5  C11 UNL     1      25.636   0.893  53.203  1.00  0.00     0.200 A 
HETATM    6  C12 UNL     1      25.526   1.610  52.031  1.00  0.00     0.109 A 
HETATM    7  N4  UNL     1      24.388   1.639  51.206  1.00  0.00    -0.380 N 
HETATM    8  C13 UNL     1      23.007   1.296  51.372  1.00  0.00     0.161 C 
HETATM    9  C14 UNL     1      22.701   0.455  52.529  1.00  0.00    -0.005 A 
HETATM   10  C15 UNL     1      21.348   0.199  52.451  1.00  0.00     0.030 A 
HETATM   11  C16 UNL     1      20.631  -0.562  53.349  1.00  0.00     0.011 A 
HETATM   12 BR1  UNL     1      18.763  -0.912  53.233  1.00  0.00    -0.051 Br
HETATM   13  C17 UNL     1      21.332  -1.116  54.422  1.00  0.00     0.022 A 
HETATM   14  C18 UNL     1      22.686  -0.882  54.535  1.00  0.00     0.039 A 
HETATM   15  C19 UNL     1      23.374  -0.114  53.616  1.00  0.00     0.086 A 
HETATM   16  O1  UNL     1      24.732   0.054  53.830  1.00  0.00    -0.289 OA
HETATM   17  H16 UNL     1      24.554   1.991  50.242  1.00  0.00     0.160 HD
ENDROOT
BRANCH   1  18
HETATM   18  C8  UNL     1      26.400   3.167  50.236  1.00  0.00     0.176 C 
BRANCH  18  19
HETATM   19  N1  UNL     1      26.045   4.522  50.395  1.00  0.00    -0.412 N 
HETATM   20  H12 UNL     1      26.543   5.135  51.010  1.00  0.00     0.153 HD
BRANCH  19  21
HETATM   21  C7  UNL     1      25.221   5.023  49.364  1.00  0.00     0.148 C 
BRANCH  21  22
HETATM   22  C5  UNL     1      23.770   4.768  49.559  1.00  0.00    -0.067 C 
HETATM   23  C4  UNL     1      23.050   5.131  50.593  1.00  0.00     0.004 C 
HETATM   24  C6  UNL     1      23.031   4.035  48.499  1.00  0.00     0.045 C 
BRANCH  23  25
HETATM   25  C3  UNL     1      21.645   4.760  50.545  1.00  0.00    -0.004 C 
HETATM   26  C2  UNL     1      21.064   4.156  51.590  1.00  0.00    -0.031 C 
HETATM   27  C1  UNL     1      19.652   3.722  51.689  1.00  0.00     0.036 C 
ENDBRANCH  23  25
ENDBRANCH  21  22
ENDBRANCH  19  21
ENDBRANCH  18  19
ENDBRANCH   1  18
TORSDOF 5
ENDMDL
MODEL 5
REMARK VINA RESULT:      -7.7      3.028      5.626
REMARK  5 active torsions:
REMARK  status: ('A' for Active; 'I' for Inactive)
REMARK    1  A    between atoms: C3_3  and  C4_4 
REMARK    2  A    between atoms: C5_5  and  C7_7 
REMARK    3  A    between atoms: C7_7  and  N1_8 
REMARK    4  A    between atoms: N1_8  and  C8_9 
REMARK    5  A    between atoms: C8_9  and  C9_10 
ROOT
HETATM    1  C9  UNL     1      22.614   2.862  51.106  1.00  0.00     0.084 A 
HETATM    2  N2  UNL     1      21.512   3.534  51.496  1.00  0.00    -0.242 NA
HETATM    3  C10 UNL     1      21.306   4.840  51.253  1.00  0.00     0.236 A 
HETATM    4  N3  UNL     1      22.219   5.596  50.577  1.00  0.00    -0.215 NA
HETATM    5  C11 UNL     1      23.347   4.987  50.157  1.00  0.00     0.200 A 
HETATM    6  C12 UNL     1      23.528   3.647  50.424  1.00  0.00     0.109 A 
HETATM    7  N4  UNL     1      24.661   2.897  50.061  1.00  0.00    -0.380 N 
HETATM    8  C13 UNL     1      25.999   3.213  49.660  1.00  0.00     0.161 C 
HETATM    9  C14 UNL     1      26.219   4.595  49.232  1.00  0.00    -0.005 A 
HETATM   10  C15 UNL     1      27.538   4.651  48.833  1.00  0.00     0.030 A 
HETATM   11  C16 UNL     1      28.176   5.774  48.352  1.00  0.00     0.011 A 
HETATM   12 BR1  UNL     1      29.997   5.843  47.802  1.00  0.00    -0.051 Br
HETATM   13  C17 UNL     1      27.424   6.947  48.264  1.00  0.00     0.022 A 
HETATM   14  C18 UNL     1      26.102   6.931  48.654  1.00  0.00     0.039 A 
HETATM   15  C19 UNL     1      25.494   5.787  49.131  1.00  0.00     0.086 A 
HETATM   16  O1  UNL     1      24.161   5.889  49.494  1.00  0.00    -0.289 OA
HETATM   17  H16 UNL     1      24.529   1.866  50.083  1.00  0.00     0.160 HD
ENDROOT
BRANCH   1  18
HETATM   18  C8  UNL     1      22.814   1.407  51.363  1.00  0.00     0.176 C 
BRANCH  18  19
HETATM   19  N1  UNL     1      23.003   1.084  52.723  1.00  0.00    -0.412 N 
HETATM   20  H12 UNL     1      22.462   0.379  53.183  1.00  0.00     0.153 HD
BRANCH  19  21
HETATM   21  C7  UNL     1      24.230   1.535  53.254  1.00  0.00     0.148 C 
BRANCH  21  22
HETATM   22  C5  UNL     1      25.326   0.531  53.203  1.00  0.00    -0.067 C 
HETATM   23  C4  UNL     1      26.511   0.701  52.668  1.00  0.00     0.004 C 
HETATM   24  C6  UNL     1      25.092  -0.804  53.809  1.00  0.00     0.045 C 
BRANCH  23  25
HETATM   25  C3  UNL     1      27.409  -0.438  52.747  1.00  0.00    -0.004 C 
HETATM   26  C2  UNL     1      28.604  -0.324  53.341  1.00  0.00    -0.031 C 
HETATM   27  C1  UNL     1      29.620  -1.389  53.499  1.00  0.00     0.036 C 
ENDBRANCH  23  25
ENDBRANCH  21  22
ENDBRANCH  19  21
ENDBRANCH  18  19
ENDBRANCH   1  18
TORSDOF 5
ENDMDL
MODEL 6
REMARK VINA RESULT:      -7.6      4.430      6.163
REMARK  5 active torsions:
REMARK  status: ('A' for Active; 'I' for Inactive)
REMARK    1  A    between atoms: C3_3  and  C4_4 
REMARK    2  A    between atoms: C5_5  and  C7_7 
REMARK    3  A    between atoms: C7_7  and  N1_8 
REMARK    4  A    between atoms: N1_8  and  C8_9 
REMARK    5  A    between atoms: C8_9  and  C9_10 
ROOT
HETATM    1  C9  UNL     1      20.610   1.160  53.102  1.00  0.00     0.084 A 
HETATM    2  N2  UNL     1      20.015   2.334  52.812  1.00  0.00    -0.242 NA
HETATM    3  C10 UNL     1      20.670   3.411  52.345  1.00  0.00     0.236 A 
HETATM    4  N3  UNL     1      22.017   3.391  52.126  1.00  0.00    -0.215 NA
HETATM    5  C11 UNL     1      22.677   2.246  52.395  1.00  0.00     0.200 A 
HETATM    6  C12 UNL     1      21.975   1.161  52.873  1.00  0.00     0.109 A 
HETATM    7  N4  UNL     1      22.542  -0.082  53.210  1.00  0.00    -0.380 N 
HETATM    8  C13 UNL     1      23.866  -0.549  53.490  1.00  0.00     0.161 C 
HETATM    9  C14 UNL     1      24.950   0.337  53.066  1.00  0.00    -0.005 A 
HETATM   10  C15 UNL     1      26.116  -0.335  53.369  1.00  0.00     0.030 A 
HETATM   11  C16 UNL     1      27.389   0.138  53.137  1.00  0.00     0.011 A 
HETATM   12 BR1  UNL     1      28.993  -0.797  53.557  1.00  0.00    -0.051 Br
HETATM   13  C17 UNL     1      27.505   1.400  52.549  1.00  0.00     0.022 A 
HETATM   14  C18 UNL     1      26.363   2.103  52.233  1.00  0.00     0.039 A 
HETATM   15  C19 UNL     1      25.101   1.598  52.479  1.00  0.00     0.086 A 
HETATM   16  O1  UNL     1      24.026   2.393  52.119  1.00  0.00    -0.289 OA
HETATM   17  H16 UNL     1      21.863  -0.866  53.287  1.00  0.00     0.160 HD
ENDROOT
BRANCH   1  18
HETATM   18  C8  UNL     1      19.863  -0.032  53.595  1.00  0.00     0.176 C 
BRANCH  18  19
HETATM   19  N1  UNL     1      19.044  -0.641  52.622  1.00  0.00    -0.412 N 
HETATM   20  H12 UNL     1      19.419  -1.219  51.897  1.00  0.00     0.153 HD
BRANCH  19  21
HETATM   21  C7  UNL     1      17.678  -0.691  52.973  1.00  0.00     0.148 C 
BRANCH  21  22
HETATM   22  C5  UNL     1      17.092  -2.058  52.968  1.00  0.00    -0.067 C 
HETATM   23  C4  UNL     1      17.615  -3.129  53.514  1.00  0.00     0.004 C 
HETATM   24  C6  UNL     1      15.788  -2.266  52.287  1.00  0.00     0.045 C 
BRANCH  23  25
HETATM   25  C3  UNL     1      16.843  -4.352  53.369  1.00  0.00    -0.004 C 
HETATM   26  C2  UNL     1      16.255  -4.916  54.432  1.00  0.00    -0.031 C 
HETATM   27  C1  UNL     1      15.441  -6.153  54.442  1.00  0.00     0.036 C 
ENDBRANCH  23  25
ENDBRANCH  21  22
ENDBRANCH  19  21
ENDBRANCH  18  19
ENDBRANCH   1  18
TORSDOF 5
ENDMDL
MODEL 7
REMARK VINA RESULT:      -7.5      2.759      5.954
REMARK  5 active torsions:
REMARK  status: ('A' for Active; 'I' for Inactive)
REMARK    1  A    between atoms: C3_3  and  C4_4 
REMARK    2  A    between atoms: C5_5  and  C7_7 
REMARK    3  A    between atoms: C7_7  and  N1_8 
REMARK    4  A    between atoms: N1_8  and  C8_9 
REMARK    5  A    between atoms: C8_9  and  C9_10 
ROOT
HETATM    1  C9  UNL     1      24.774  -0.324  53.836  1.00  0.00     0.084 A 
HETATM    2  N2  UNL     1      25.129  -0.798  55.047  1.00  0.00    -0.242 NA
HETATM    3  C10 UNL     1      24.274  -1.386  55.902  1.00  0.00     0.236 A 
HETATM    4  N3  UNL     1      22.954  -1.547  55.597  1.00  0.00    -0.215 NA
HETATM    5  C11 UNL     1      22.528  -1.095  54.400  1.00  0.00     0.200 A 
HETATM    6  C12 UNL     1      23.431  -0.497  53.547  1.00  0.00     0.109 A 
HETATM    7  N4  UNL     1      23.117   0.033  52.283  1.00  0.00    -0.380 N 
HETATM    8  C13 UNL     1      21.911   0.427  51.620  1.00  0.00     0.161 C 
HETATM    9  C14 UNL     1      20.672  -0.074  52.215  1.00  0.00    -0.005 A 
HETATM   10  C15 UNL     1      19.660   0.365  51.387  1.00  0.00     0.030 A 
HETATM   11  C16 UNL     1      18.317   0.119  51.573  1.00  0.00     0.011 A 
HETATM   12 BR1  UNL     1      16.928   0.728  50.424  1.00  0.00    -0.051 Br
HETATM   13  C17 UNL     1      17.955  -0.635  52.691  1.00  0.00     0.022 A 
HETATM   14  C18 UNL     1      18.937  -1.091  53.544  1.00  0.00     0.039 A 
HETATM   15  C19 UNL     1      20.274  -0.826  53.327  1.00  0.00     0.086 A 
HETATM   16  O1  UNL     1      21.174  -1.335  54.249  1.00  0.00    -0.289 OA
HETATM   17  H16 UNL     1      23.935   0.192  51.660  1.00  0.00     0.160 HD
ENDROOT
BRANCH   1  18
HETATM   18  C8  UNL     1      25.741   0.302  52.891  1.00  0.00     0.176 C 
BRANCH  18  19
HETATM   19  N1  UNL     1      25.897   1.693  53.065  1.00  0.00    -0.412 N 
HETATM   20  H12 UNL     1      25.739   2.140  53.946  1.00  0.00     0.153 HD
BRANCH  19  21
HETATM   21  C7  UNL     1      26.648   2.317  52.045  1.00  0.00     0.148 C 
BRANCH  21  22
HETATM   22  C5  UNL     1      25.839   2.800  50.895  1.00  0.00    -0.067 C 
HETATM   23  C4  UNL     1      24.539   2.970  50.877  1.00  0.00     0.004 C 
HETATM   24  C6  UNL     1      26.539   3.131  49.628  1.00  0.00     0.045 C 
BRANCH  23  25
HETATM   25  C3  UNL     1      23.984   3.455  49.624  1.00  0.00    -0.004 C 
HETATM   26  C2  UNL     1      23.011   2.775  49.003  1.00  0.00    -0.031 C 
HETATM   27  C1  UNL     1      22.349   3.141  47.729  1.00  0.00     0.036 C 
ENDBRANCH  23  25
ENDBRANCH  21  22
ENDBRANCH  19  21
ENDBRANCH  18  19
ENDBRANCH   1  18
TORSDOF 5
ENDMDL
MODEL 8
REMARK VINA RESULT:      -7.4      3.737      7.388
REMARK  5 active torsions:
REMARK  status: ('A' for Active; 'I' for Inactive)
REMARK    1  A    between atoms: C3_3  and  C4_4 
REMARK    2  A    between atoms: C5_5  and  C7_7 
REMARK    3  A    between atoms: C7_7  and  N1_8 
REMARK    4  A    between atoms: N1_8  and  C8_9 
REMARK    5  A    between atoms: C8_9  and  C9_10 
ROOT
HETATM    1  C9  UNL     1      22.804   0.026  53.364  1.00  0.00     0.084 A 
HETATM    2  N2  UNL     1      23.337  -0.558  54.455  1.00  0.00    -0.242 NA
HETATM    3  C10 UNL     1      22.677  -1.432  55.234  1.00  0.00     0.236 A 
HETATM    4  N3  UNL     1      21.390  -1.799  54.969  1.00  0.00    -0.215 NA
HETATM    5  C11 UNL     1      20.794  -1.252  53.890  1.00  0.00     0.200 A 
HETATM    6  C12 UNL     1      21.498  -0.359  53.113  1.00  0.00     0.109 A 
HETATM    7  N4  UNL     1      20.992   0.297  51.976  1.00  0.00    -0.380 N 
HETATM    8  C13 UNL     1      19.684   0.547  51.449  1.00  0.00     0.161 C 
HETATM    9  C14 UNL     1      18.611  -0.277  52.007  1.00  0.00    -0.005 A 
HETATM   10  C15 UNL     1      17.473   0.083  51.316  1.00  0.00     0.030 A 
HETATM   11  C16 UNL     1      16.218  -0.449  51.520  1.00  0.00     0.011 A 
HETATM   12 BR1  UNL     1      14.652   0.052  50.561  1.00  0.00    -0.051 Br
HETATM   13  C17 UNL     1      16.092  -1.430  52.506  1.00  0.00     0.022 A 
HETATM   14  C18 UNL     1      17.207  -1.816  53.219  1.00  0.00     0.039 A 
HETATM   15  C19 UNL     1      18.451  -1.262  52.988  1.00  0.00     0.086 A 
HETATM   16  O1  UNL     1      19.500  -1.726  53.764  1.00  0.00    -0.289 OA
HETATM   17  H16 UNL     1      21.713   0.712  51.352  1.00  0.00     0.160 HD
ENDROOT
BRANCH   1  18
HETATM   18  C8  UNL     1      23.560   0.975  52.496  1.00  0.00     0.176 C 
BRANCH  18  19
HETATM   19  N1  UNL     1      23.869   2.202  53.119  1.00  0.00    -0.412 N 
HETATM   20  H12 UNL     1      23.317   2.573  53.867  1.00  0.00     0.153 HD
BRANCH  19  21
HETATM   21  C7  UNL     1      25.186   2.648  52.883  1.00  0.00     0.148 C 
BRANCH  21  22
HETATM   22  C5  UNL     1      26.196   1.561  52.792  1.00  0.00    -0.067 C 
HETATM   23  C4  UNL     1      26.723   0.905  53.797  1.00  0.00     0.004 C 
HETATM   24  C6  UNL     1      26.678   1.153  51.448  1.00  0.00     0.045 C 
BRANCH  23  25
HETATM   25  C3  UNL     1      27.694  -0.117  53.444  1.00  0.00    -0.004 C 
HETATM   26  C2  UNL     1      28.913  -0.119  53.998  1.00  0.00    -0.031 C 
HETATM   27  C1  UNL     1      30.003  -1.088  53.740  1.00  0.00     0.036 C 
ENDBRANCH  23  25
ENDBRANCH  21  22
ENDBRANCH  19  21
ENDBRANCH  18  19
ENDBRANCH   1  18
TORSDOF 5
ENDMDL
MODEL 9
REMARK VINA RESULT:      -7.3      3.627      5.650
REMARK  5 active torsions:
REMARK  status: ('A' for Active; 'I' for Inactive)
REMARK    1  A    between atoms: C3_3  and  C4_4 
REMARK    2  A    between atoms: C5_5  and  C7_7 
REMARK    3  A    between atoms: C7_7  and  N1_8 
REMARK    4  A    between atoms: N1_8  and  C8_9 
REMARK    5  A    between atoms: C8_9  and  C9_10 
ROOT
HETATM    1  C9  UNL     1      25.630   3.601  50.677  1.00  0.00     0.084 A 
HETATM    2  N2  UNL     1      24.425   3.750  51.261  1.00  0.00    -0.242 NA
HETATM    3  C10 UNL     1      23.588   4.770  51.002  1.00  0.00     0.236 A 
HETATM    4  N3  UNL     1      23.907   5.750  50.108  1.00  0.00    -0.215 NA
HETATM    5  C11 UNL     1      25.101   5.663  49.485  1.00  0.00     0.200 A 
HETATM    6  C12 UNL     1      25.935   4.605  49.774  1.00  0.00     0.109 A 
HETATM    7  N4  UNL     1      27.209   4.405  49.213  1.00  0.00    -0.380 N 
HETATM    8  C13 UNL     1      28.151   5.230  48.517  1.00  0.00     0.161 C 
HETATM    9  C14 UNL     1      27.617   6.483  47.982  1.00  0.00    -0.005 A 
HETATM   10  C15 UNL     1      28.665   7.071  47.305  1.00  0.00     0.030 A 
HETATM   11  C16 UNL     1      28.605   8.277  46.642  1.00  0.00     0.011 A 
HETATM   12 BR1  UNL     1      30.056   9.081  45.708  1.00  0.00    -0.051 Br
HETATM   13  C17 UNL     1      27.385   8.956  46.658  1.00  0.00     0.022 A 
HETATM   14  C18 UNL     1      26.314   8.401  47.326  1.00  0.00     0.039 A 
HETATM   15  C19 UNL     1      26.409   7.189  47.980  1.00  0.00     0.086 A 
HETATM   16  O1  UNL     1      25.268   6.728  48.617  1.00  0.00    -0.289 OA
HETATM   17  H16 UNL     1      27.587   3.442  49.315  1.00  0.00     0.160 HD
ENDROOT
BRANCH   1  18
HETATM   18  C8  UNL     1      26.534   2.449  50.958  1.00  0.00     0.176 C 
BRANCH  18  19
HETATM   19  N1  UNL     1      26.925   2.342  52.309  1.00  0.00    -0.412 N 
HETATM   20  H12 UNL     1      26.763   3.075  52.970  1.00  0.00     0.153 HD
BRANCH  19  21
HETATM   21  C7  UNL     1      27.190   1.019  52.724  1.00  0.00     0.148 C 
BRANCH  21  22
HETATM   22  C5  UNL     1      26.095   0.391  53.510  1.00  0.00    -0.067 C 
HETATM   23  C4  UNL     1      24.937  -0.010  53.044  1.00  0.00     0.004 C 
HETATM   24  C6  UNL     1      26.299   0.181  54.966  1.00  0.00     0.045 C 
BRANCH  23  25
HETATM   25  C3  UNL     1      24.032  -0.594  54.021  1.00  0.00    -0.004 C 
HETATM   26  C2  UNL     1      22.716  -0.648  53.783  1.00  0.00    -0.031 C 
HETATM   27  C1  UNL     1      21.676  -1.210  54.675  1.00  0.00     0.036 C 
ENDBRANCH  23  25
ENDBRANCH  21  22
ENDBRANCH  19  21
ENDBRANCH  18  19
ENDBRANCH   1  18
TORSDOF 5
ENDMDL
