MODEL 1
REMARK VINA RESULT:      -7.8      0.000      0.000
REMARK  5 active torsions:
REMARK  status: ('A' for Active; 'I' for Inactive)
REMARK    1  A    between atoms: O1_2  and  C2_3 
REMARK    2  A    between atoms: C6_9  and  O2_10 
REMARK    3  A    between atoms: O2_10  and  C7_11 
REMARK    4  A    between atoms: C10_14  and  N3_15 
REMARK       I    between atoms: N3_15  and  C11_16 
REMARK    5  A    between atoms: C17_23  and  O4_24 
ROOT
HETATM    1  C2  UNL     1      27.359   0.012  53.625  1.00  0.00     0.103 A 
HETATM    2  C3  UNL     1      27.660   0.848  52.561  1.00  0.00     0.072 A 
HETATM    3  C4  UNL     1      26.666   1.669  52.107  1.00  0.00     0.075 A 
HETATM    4  N1  UNL     1      26.916   2.493  51.078  1.00  0.00    -0.241 NA
HETATM    5  C5  UNL     1      26.005   3.338  50.560  1.00  0.00     0.236 A 
HETATM    6  N2  UNL     1      24.774   3.359  51.100  1.00  0.00    -0.217 NA
HETATM    7  C6  UNL     1      24.442   2.566  52.130  1.00  0.00     0.183 A 
HETATM    8  C15 UNL     1      25.410   1.702  52.645  1.00  0.00     0.049 A 
HETATM    9  C16 UNL     1      25.154   0.855  53.701  1.00  0.00     0.057 A 
HETATM   10  C17 UNL     1      26.099  -0.008  54.224  1.00  0.00     0.102 A 
ENDROOT
BRANCH   7  11
HETATM   11  O2  UNL     1      23.212   2.500  52.767  1.00  0.00    -0.290 OA
BRANCH  11  12
HETATM   12  C7  UNL     1      22.118   2.068  52.063  1.00  0.00     0.090 C 
HETATM   13  C8  UNL     1      21.940   1.111  51.187  1.00  0.00     0.025 C 
HETATM   14  C9  UNL     1      20.906   0.341  51.244  1.00  0.00     0.018 C 
HETATM   15  C10 UNL     1      19.758   0.860  51.544  1.00  0.00     0.047 C 
HETATM   16  C13 UNL     1      19.668   2.236  52.066  1.00  0.00     0.033 C 
HETATM   17  C14 UNL     1      20.861   2.803  52.312  1.00  0.00     0.040 C 
BRANCH  15  18
HETATM   18  N3  UNL     1      18.583   0.081  51.360  1.00  0.00    -0.327 N 
HETATM   19  C11 UNL     1      18.158  -0.724  52.457  1.00  0.00     0.218 C 
HETATM   20  C12 UNL     1      16.940  -1.588  52.392  1.00  0.00     0.117 C 
HETATM   21  O3  UNL     1      18.765  -0.767  53.547  1.00  0.00    -0.274 OA
HETATM   22  H6  UNL     1      18.040   0.082  50.471  1.00  0.00     0.169 HD
ENDBRANCH  15  18
ENDBRANCH  11  12
ENDBRANCH   7  11
BRANCH  10  23
HETATM   23  O4  UNL     1      25.811  -0.855  55.294  1.00  0.00    -0.353 OA
HETATM   24  C18 UNL     1      24.447  -1.191  55.470  1.00  0.00     0.210 C 
ENDBRANCH  10  23
BRANCH   1  25
HETATM   25  O1  UNL     1      28.287  -0.880  54.188  1.00  0.00    -0.353 OA
HETATM   26  C1  UNL     1      29.629  -0.955  53.777  1.00  0.00     0.210 C 
ENDBRANCH   1  25
TORSDOF 5
ENDMDL
MODEL 2
REMARK VINA RESULT:      -7.3      2.676      5.298
REMARK  5 active torsions:
REMARK  status: ('A' for Active; 'I' for Inactive)
REMARK    1  A    between atoms: O1_2  and  C2_3 
REMARK    2  A    between atoms: C6_9  and  O2_10 
REMARK    3  A    between atoms: O2_10  and  C7_11 
REMARK    4  A    between atoms: C10_14  and  N3_15 
REMARK       I    between atoms: N3_15  and  C11_16 
REMARK    5  A    between atoms: C17_23  and  O4_24 
ROOT
HETATM    1  C2  UNL     1      26.053  -0.561  53.955  1.00  0.00     0.103 A 
HETATM    2  C3  UNL     1      25.039  -0.975  54.806  1.00  0.00     0.072 A 
HETATM    3  C4  UNL     1      23.752  -0.801  54.381  1.00  0.00     0.075 A 
HETATM    4  N1  UNL     1      22.742  -1.189  55.174  1.00  0.00    -0.241 NA
HETATM    5  C5  UNL     1      21.443  -1.061  54.845  1.00  0.00     0.236 A 
HETATM    6  N2  UNL     1      21.137  -0.513  53.656  1.00  0.00    -0.217 NA
HETATM    7  C6  UNL     1      22.087  -0.099  52.805  1.00  0.00     0.183 A 
HETATM    8  C15 UNL     1      23.425  -0.247  53.175  1.00  0.00     0.049 A 
HETATM    9  C16 UNL     1      24.462   0.152  52.361  1.00  0.00     0.057 A 
HETATM   10  C17 UNL     1      25.793   0.014  52.711  1.00  0.00     0.102 A 
ENDROOT
BRANCH   7  11
HETATM   11  O2  UNL     1      21.894   0.477  51.558  1.00  0.00    -0.290 OA
BRANCH  11  12
HETATM   12  C7  UNL     1      22.093   1.825  51.407  1.00  0.00     0.090 C 
HETATM   13  C8  UNL     1      21.895   2.851  52.196  1.00  0.00     0.025 C 
HETATM   14  C9  UNL     1      22.775   3.789  52.301  1.00  0.00     0.018 C 
HETATM   15  C10 UNL     1      23.391   4.187  51.234  1.00  0.00     0.047 C 
HETATM   16  C13 UNL     1      23.293   3.421  49.978  1.00  0.00     0.033 C 
HETATM   17  C14 UNL     1      22.641   2.253  50.104  1.00  0.00     0.040 C 
BRANCH  15  18
HETATM   18  N3  UNL     1      24.165   5.379  51.292  1.00  0.00    -0.327 N 
HETATM   19  C11 UNL     1      23.531   6.588  50.883  1.00  0.00     0.218 C 
HETATM   20  C12 UNL     1      24.235   7.906  50.898  1.00  0.00     0.117 C 
HETATM   21  O3  UNL     1      22.349   6.637  50.485  1.00  0.00    -0.274 OA
HETATM   22  H6  UNL     1      25.155   5.392  51.618  1.00  0.00     0.169 HD
ENDBRANCH  15  18
ENDBRANCH  11  12
ENDBRANCH   7  11
BRANCH  10  23
HETATM   23  O4  UNL     1      26.823   0.427  51.866  1.00  0.00    -0.353 OA
HETATM   24  C18 UNL     1      26.805   1.790  51.486  1.00  0.00     0.210 C 
ENDBRANCH  10  23
BRANCH   1  25
HETATM   25  O1  UNL     1      27.416  -0.680  54.270  1.00  0.00    -0.353 OA
HETATM   26  C1  UNL     1      28.129   0.294  54.989  1.00  0.00     0.210 C 
ENDBRANCH   1  25
TORSDOF 5
ENDMDL
MODEL 3
REMARK VINA RESULT:      -7.3      3.100      6.060
REMARK  5 active torsions:
REMARK  status: ('A' for Active; 'I' for Inactive)
REMARK    1  A    between atoms: O1_2  and  C2_3 
REMARK    2  A    between atoms: C6_9  and  O2_10 
REMARK    3  A    between atoms: O2_10  and  C7_11 
REMARK    4  A    between atoms: C10_14  and  N3_15 
REMARK       I    between atoms: N3_15  and  C11_16 
REMARK    5  A    between atoms: C17_23  and  O4_24 
ROOT
HETATM    1  C2  UNL     1      26.876  -0.065  54.018  1.00  0.00     0.103 A 
HETATM    2  C3  UNL     1      25.688  -0.657  53.618  1.00  0.00     0.072 A 
HETATM    3  C4  UNL     1      24.662   0.172  53.261  1.00  0.00     0.075 A 
HETATM    4  N1  UNL     1      23.496  -0.361  52.867  1.00  0.00    -0.241 NA
HETATM    5  C5  UNL     1      22.429   0.370  52.496  1.00  0.00     0.236 A 
HETATM    6  N2  UNL     1      22.533   1.710  52.520  1.00  0.00    -0.217 NA
HETATM    7  C6  UNL     1      23.664   2.322  52.902  1.00  0.00     0.183 A 
HETATM    8  C15 UNL     1      24.754   1.535  53.280  1.00  0.00     0.049 A 
HETATM    9  C16 UNL     1      25.951   2.083  53.685  1.00  0.00     0.057 A 
HETATM   10  C17 UNL     1      27.041   1.320  54.063  1.00  0.00     0.102 A 
ENDROOT
BRANCH   7  11
HETATM   11  O2  UNL     1      23.890   3.690  52.967  1.00  0.00    -0.290 OA
BRANCH  11  12
HETATM   12  C7  UNL     1      23.715   4.449  51.839  1.00  0.00     0.090 C 
HETATM   13  C8  UNL     1      22.898   5.427  51.539  1.00  0.00     0.025 C 
HETATM   14  C9  UNL     1      23.319   6.478  50.919  1.00  0.00     0.018 C 
HETATM   15  C10 UNL     1      24.178   6.334  49.961  1.00  0.00     0.047 C 
HETATM   16  C13 UNL     1      24.863   5.045  49.752  1.00  0.00     0.033 C 
HETATM   17  C14 UNL     1      24.608   4.134  50.705  1.00  0.00     0.040 C 
BRANCH  15  18
HETATM   18  N3  UNL     1      24.451   7.441  49.111  1.00  0.00    -0.327 N 
HETATM   19  C11 UNL     1      25.576   8.251  49.438  1.00  0.00     0.218 C 
HETATM   20  C12 UNL     1      25.969   9.442  48.626  1.00  0.00     0.117 C 
HETATM   21  O3  UNL     1      26.314   8.029  50.421  1.00  0.00    -0.274 OA
HETATM   22  H6  UNL     1      23.867   7.669  48.279  1.00  0.00     0.169 HD
ENDBRANCH  15  18
ENDBRANCH  11  12
ENDBRANCH   7  11
BRANCH  10  23
HETATM   23  O4  UNL     1      28.242   1.901  54.469  1.00  0.00    -0.353 OA
HETATM   24  C18 UNL     1      28.957   2.607  53.472  1.00  0.00     0.210 C 
ENDBRANCH  10  23
BRANCH   1  25
HETATM   25  O1  UNL     1      28.007  -0.800  54.412  1.00  0.00    -0.353 OA
HETATM   26  C1  UNL     1      28.937  -1.328  53.500  1.00  0.00     0.210 C 
ENDBRANCH   1  25
TORSDOF 5
ENDMDL
MODEL 4
REMARK VINA RESULT:      -7.2      1.867      7.760
REMARK  5 active torsions:
REMARK  status: ('A' for Active; 'I' for Inactive)
REMARK    1  A    between atoms: O1_2  and  C2_3 
REMARK    2  A    between atoms: C6_9  and  O2_10 
REMARK    3  A    between atoms: O2_10  and  C7_11 
REMARK    4  A    between atoms: C10_14  and  N3_15 
REMARK       I    between atoms: N3_15  and  C11_16 
REMARK    5  A    between atoms: C17_23  and  O4_24 
ROOT
HETATM    1  C2  UNL     1      17.977   0.190  50.931  1.00  0.00     0.103 A 
HETATM    2  C3  UNL     1      18.818   0.713  49.961  1.00  0.00     0.072 A 
HETATM    3  C4  UNL     1      20.118   0.943  50.315  1.00  0.00     0.075 A 
HETATM    4  N1  UNL     1      20.965   1.449  49.406  1.00  0.00    -0.241 NA
HETATM    5  C5  UNL     1      22.262   1.709  49.657  1.00  0.00     0.236 A 
HETATM    6  N2  UNL     1      22.738   1.450  50.887  1.00  0.00    -0.217 NA
HETATM    7  C6  UNL     1      21.957   0.945  51.853  1.00  0.00     0.183 A 
HETATM    8  C15 UNL     1      20.617   0.685  51.561  1.00  0.00     0.049 A 
HETATM    9  C16 UNL     1      19.747   0.166  52.495  1.00  0.00     0.057 A 
HETATM   10  C17 UNL     1      18.417  -0.097  52.223  1.00  0.00     0.102 A 
ENDROOT
BRANCH   7  11
HETATM   11  O2  UNL     1      22.334   0.638  53.153  1.00  0.00    -0.290 OA
BRANCH  11  12
HETATM   12  C7  UNL     1      23.661   0.441  53.434  1.00  0.00     0.090 C 
HETATM   13  C8  UNL     1      24.359  -0.620  53.751  1.00  0.00     0.025 C 
HETATM   14  C9  UNL     1      25.512  -0.841  53.216  1.00  0.00     0.018 C 
HETATM   15  C10 UNL     1      26.317   0.157  53.035  1.00  0.00     0.047 C 
HETATM   16  C13 UNL     1      25.841   1.545  53.185  1.00  0.00     0.033 C 
HETATM   17  C14 UNL     1      24.516   1.645  53.382  1.00  0.00     0.040 C 
BRANCH  15  18
HETATM   18  N3  UNL     1      27.671  -0.106  52.689  1.00  0.00    -0.327 N 
HETATM   19  C11 UNL     1      28.586  -0.321  53.760  1.00  0.00     0.218 C 
HETATM   20  C12 UNL     1      30.035  -0.606  53.530  1.00  0.00     0.117 C 
HETATM   21  O3  UNL     1      28.250  -0.286  54.962  1.00  0.00    -0.274 OA
HETATM   22  H6  UNL     1      28.003  -0.146  51.702  1.00  0.00     0.169 HD
ENDBRANCH  15  18
ENDBRANCH  11  12
ENDBRANCH   7  11
BRANCH  10  23
HETATM   23  O4  UNL     1      17.558  -0.623  53.188  1.00  0.00    -0.353 OA
HETATM   24  C18 UNL     1      17.781  -1.974  53.547  1.00  0.00     0.210 C 
ENDBRANCH  10  23
BRANCH   1  25
HETATM   25  O1  UNL     1      16.620  -0.092  50.700  1.00  0.00    -0.353 OA
HETATM   26  C1  UNL     1      16.146  -0.673  49.511  1.00  0.00     0.210 C 
ENDBRANCH   1  25
TORSDOF 5
ENDMDL
MODEL 5
REMARK VINA RESULT:      -7.2      2.533      3.497
REMARK  5 active torsions:
REMARK  status: ('A' for Active; 'I' for Inactive)
REMARK    1  A    between atoms: O1_2  and  C2_3 
REMARK    2  A    between atoms: C6_9  and  O2_10 
REMARK    3  A    between atoms: O2_10  and  C7_11 
REMARK    4  A    between atoms: C10_14  and  N3_15 
REMARK       I    between atoms: N3_15  and  C11_16 
REMARK    5  A    between atoms: C17_23  and  O4_24 
ROOT
HETATM    1  C2  UNL     1      27.263   0.057  53.615  1.00  0.00     0.103 A 
HETATM    2  C3  UNL     1      27.597   1.008  52.663  1.00  0.00     0.072 A 
HETATM    3  C4  UNL     1      26.572   1.683  52.063  1.00  0.00     0.075 A 
HETATM    4  N1  UNL     1      26.852   2.611  51.136  1.00  0.00    -0.241 NA
HETATM    5  C5  UNL     1      25.914   3.329  50.490  1.00  0.00     0.236 A 
HETATM    6  N2  UNL     1      24.623   3.105  50.787  1.00  0.00    -0.217 NA
HETATM    7  C6  UNL     1      24.257   2.194  51.701  1.00  0.00     0.183 A 
HETATM    8  C15 UNL     1      25.254   1.467  52.354  1.00  0.00     0.049 A 
HETATM    9  C16 UNL     1      24.966   0.513  53.306  1.00  0.00     0.057 A 
HETATM   10  C17 UNL     1      25.940  -0.217  53.962  1.00  0.00     0.102 A 
ENDROOT
BRANCH   7  11
HETATM   11  O2  UNL     1      22.964   1.876  52.090  1.00  0.00    -0.290 OA
BRANCH  11  12
HETATM   12  C7  UNL     1      21.942   2.015  51.187  1.00  0.00     0.090 C 
HETATM   13  C8  UNL     1      21.021   2.929  51.013  1.00  0.00     0.025 C 
HETATM   14  C9  UNL     1      20.730   3.364  49.834  1.00  0.00     0.018 C 
HETATM   15  C10 UNL     1      20.679   2.519  48.853  1.00  0.00     0.047 C 
HETATM   16  C13 UNL     1      21.195   1.148  49.014  1.00  0.00     0.033 C 
HETATM   17  C14 UNL     1      21.816   0.935  50.186  1.00  0.00     0.040 C 
BRANCH  15  18
HETATM   18  N3  UNL     1      20.115   2.937  47.616  1.00  0.00    -0.327 N 
HETATM   19  C11 UNL     1      20.998   3.519  46.662  1.00  0.00     0.218 C 
HETATM   20  C12 UNL     1      20.531   3.998  45.326  1.00  0.00     0.117 C 
HETATM   21  O3  UNL     1      22.220   3.672  46.868  1.00  0.00    -0.274 OA
HETATM   22  H6  UNL     1      19.102   2.831  47.395  1.00  0.00     0.169 HD
ENDBRANCH  15  18
ENDBRANCH  11  12
ENDBRANCH   7  11
BRANCH  10  23
HETATM   23  O4  UNL     1      25.620  -1.177  54.922  1.00  0.00    -0.353 OA
HETATM   24  C18 UNL     1      24.280  -1.174  55.379  1.00  0.00     0.210 C 
ENDBRANCH  10  23
BRANCH   1  25
HETATM   25  O1  UNL     1      28.218  -0.707  54.305  1.00  0.00    -0.353 OA
HETATM   26  C1  UNL     1      29.521  -0.926  53.827  1.00  0.00     0.210 C 
ENDBRANCH   1  25
TORSDOF 5
ENDMDL
MODEL 6
REMARK VINA RESULT:      -7.2      2.492      7.947
REMARK  5 active torsions:
REMARK  status: ('A' for Active; 'I' for Inactive)
REMARK    1  A    between atoms: O1_2  and  C2_3 
REMARK    2  A    between atoms: C6_9  and  O2_10 
REMARK    3  A    between atoms: O2_10  and  C7_11 
REMARK    4  A    between atoms: C10_14  and  N3_15 
REMARK       I    between atoms: N3_15  and  C11_16 
REMARK    5  A    between atoms: C17_23  and  O4_24 
ROOT
HETATM    1  C2  UNL     1      17.014  -0.468  51.204  1.00  0.00     0.103 A 
HETATM    2  C3  UNL     1      17.583   0.644  50.602  1.00  0.00     0.072 A 
HETATM    3  C4  UNL     1      18.711   1.161  51.174  1.00  0.00     0.075 A 
HETATM    4  N1  UNL     1      19.292   2.237  50.622  1.00  0.00    -0.241 NA
HETATM    5  C5  UNL     1      20.404   2.817  51.110  1.00  0.00     0.236 A 
HETATM    6  N2  UNL     1      20.966   2.293  52.213  1.00  0.00    -0.217 NA
HETATM    7  C6  UNL     1      20.448   1.219  52.826  1.00  0.00     0.183 A 
HETATM    8  C15 UNL     1      19.294   0.639  52.294  1.00  0.00     0.049 A 
HETATM    9  C16 UNL     1      18.697  -0.465  52.861  1.00  0.00     0.057 A 
HETATM   10  C17 UNL     1      17.555  -1.052  52.349  1.00  0.00     0.102 A 
ENDROOT
BRANCH   7  11
HETATM   11  O2  UNL     1      20.937   0.592  53.963  1.00  0.00    -0.290 OA
BRANCH  11  12
HETATM   12  C7  UNL     1      22.107  -0.117  53.883  1.00  0.00     0.090 C 
HETATM   13  C8  UNL     1      22.995  -0.271  52.934  1.00  0.00     0.025 C 
HETATM   14  C9  UNL     1      24.259  -0.223  53.192  1.00  0.00     0.018 C 
HETATM   15  C10 UNL     1      24.695  -0.782  54.276  1.00  0.00     0.047 C 
HETATM   16  C13 UNL     1      23.757  -1.230  55.322  1.00  0.00     0.033 C 
HETATM   17  C14 UNL     1      22.481  -0.881  55.091  1.00  0.00     0.040 C 
BRANCH  15  18
HETATM   18  N3  UNL     1      26.097  -0.958  54.441  1.00  0.00    -0.327 N 
HETATM   19  C11 UNL     1      26.873   0.207  54.704  1.00  0.00     0.218 C 
HETATM   20  C12 UNL     1      28.353   0.157  54.896  1.00  0.00     0.117 C 
HETATM   21  O3  UNL     1      26.378   1.350  54.792  1.00  0.00    -0.274 OA
HETATM   22  H6  UNL     1      26.558  -1.890  54.377  1.00  0.00     0.169 HD
ENDBRANCH  15  18
ENDBRANCH  11  12
ENDBRANCH   7  11
BRANCH  10  23
HETATM   23  O4  UNL     1      16.971  -2.171  52.944  1.00  0.00    -0.353 OA
HETATM   24  C18 UNL     1      17.829  -2.968  53.740  1.00  0.00     0.210 C 
ENDBRANCH  10  23
BRANCH   1  25
HETATM   25  O1  UNL     1      15.855  -1.095  50.719  1.00  0.00    -0.353 OA
HETATM   26  C1  UNL     1      15.538  -1.177  49.353  1.00  0.00     0.210 C 
ENDBRANCH   1  25
TORSDOF 5
ENDMDL
MODEL 7
REMARK VINA RESULT:      -7.2      1.750      7.216
REMARK  5 active torsions:
REMARK  status: ('A' for Active; 'I' for Inactive)
REMARK    1  A    between atoms: O1_2  and  C2_3 
REMARK    2  A    between atoms: C6_9  and  O2_10 
REMARK    3  A    between atoms: O2_10  and  C7_11 
REMARK    4  A    between atoms: C10_14  and  N3_15 
REMARK       I    between atoms: N3_15  and  C11_16 
REMARK    5  A    between atoms: C17_23  and  O4_24 
ROOT
HETATM    1  C2  UNL     1      19.130   0.016  52.340  1.00  0.00     0.103 A 
HETATM    2  C3  UNL     1      19.141   1.113  51.493  1.00  0.00     0.072 A 
HETATM    3  C4  UNL     1      20.254   1.907  51.509  1.00  0.00     0.075 A 
HETATM    4  N1  UNL     1      20.304   2.980  50.705  1.00  0.00    -0.241 NA
HETATM    5  C5  UNL     1      21.354   3.821  50.647  1.00  0.00     0.236 A 
HETATM    6  N2  UNL     1      22.411   3.576  51.439  1.00  0.00    -0.217 NA
HETATM    7  C6  UNL     1      22.441   2.526  52.272  1.00  0.00     0.183 A 
HETATM    8  C15 UNL     1      21.337   1.671  52.308  1.00  0.00     0.049 A 
HETATM    9  C16 UNL     1      21.284   0.570  53.134  1.00  0.00     0.057 A 
HETATM   10  C17 UNL     1      20.200  -0.286  53.183  1.00  0.00     0.102 A 
ENDROOT
BRANCH   7  11
HETATM   11  O2  UNL     1      23.471   2.172  53.132  1.00  0.00    -0.290 OA
BRANCH  11  12
HETATM   12  C7  UNL     1      24.416   1.275  52.707  1.00  0.00     0.090 C 
HETATM   13  C8  UNL     1      25.306   1.301  51.747  1.00  0.00     0.025 C 
HETATM   14  C9  UNL     1      26.513   0.892  51.948  1.00  0.00     0.018 C 
HETATM   15  C10 UNL     1      26.700  -0.167  52.669  1.00  0.00     0.047 C 
HETATM   16  C13 UNL     1      25.597  -0.742  53.462  1.00  0.00     0.033 C 
HETATM   17  C14 UNL     1      24.479   0.003  53.456  1.00  0.00     0.040 C 
BRANCH  15  18
HETATM   18  N3  UNL     1      27.988  -0.769  52.685  1.00  0.00    -0.327 N 
HETATM   19  C11 UNL     1      28.838  -0.460  53.786  1.00  0.00     0.218 C 
HETATM   20  C12 UNL     1      30.214  -1.027  53.919  1.00  0.00     0.117 C 
HETATM   21  O3  UNL     1      28.500   0.302  54.715  1.00  0.00    -0.274 OA
HETATM   22  H6  UNL     1      28.318  -1.412  51.934  1.00  0.00     0.169 HD
ENDBRANCH  15  18
ENDBRANCH  11  12
ENDBRANCH   7  11
BRANCH  10  23
HETATM   23  O4  UNL     1      20.174  -1.394  54.030  1.00  0.00    -0.353 OA
HETATM   24  C18 UNL     1      21.424  -1.806  54.551  1.00  0.00     0.210 C 
ENDBRANCH  10  23
BRANCH   1  25
HETATM   25  O1  UNL     1      18.051  -0.879  52.423  1.00  0.00    -0.353 OA
HETATM   26  C1  UNL     1      16.732  -0.529  52.086  1.00  0.00     0.210 C 
ENDBRANCH   1  25
TORSDOF 5
ENDMDL
MODEL 8
REMARK VINA RESULT:      -7.1      3.658      7.067
REMARK  5 active torsions:
REMARK  status: ('A' for Active; 'I' for Inactive)
REMARK    1  A    between atoms: O1_2  and  C2_3 
REMARK    2  A    between atoms: C6_9  and  O2_10 
REMARK    3  A    between atoms: O2_10  and  C7_11 
REMARK    4  A    between atoms: C10_14  and  N3_15 
REMARK       I    between atoms: N3_15  and  C11_16 
REMARK    5  A    between atoms: C17_23  and  O4_24 
ROOT
HETATM    1  C2  UNL     1      26.021   6.809  48.141  1.00  0.00     0.103 A 
HETATM    2  C3  UNL     1      24.756   6.317  48.425  1.00  0.00     0.072 A 
HETATM    3  C4  UNL     1      24.681   5.154  49.138  1.00  0.00     0.075 A 
HETATM    4  N1  UNL     1      23.476   4.644  49.434  1.00  0.00    -0.241 NA
HETATM    5  C5  UNL     1      23.297   3.506  50.131  1.00  0.00     0.236 A 
HETATM    6  N2  UNL     1      24.385   2.841  50.555  1.00  0.00    -0.217 NA
HETATM    7  C6  UNL     1      25.625   3.282  50.301  1.00  0.00     0.183 A 
HETATM    8  C15 UNL     1      25.777   4.465  49.576  1.00  0.00     0.049 A 
HETATM    9  C16 UNL     1      27.014   4.989  49.272  1.00  0.00     0.057 A 
HETATM   10  C17 UNL     1      27.183   6.159  48.555  1.00  0.00     0.102 A 
ENDROOT
BRANCH   7  11
HETATM   11  O2  UNL     1      26.817   2.684  50.685  1.00  0.00    -0.290 OA
BRANCH  11  12
HETATM   12  C7  UNL     1      26.835   1.886  51.799  1.00  0.00     0.090 C 
HETATM   13  C8  UNL     1      26.805   2.144  53.083  1.00  0.00     0.025 C 
HETATM   14  C9  UNL     1      26.058   1.458  53.881  1.00  0.00     0.018 C 
HETATM   15  C10 UNL     1      25.966   0.179  53.703  1.00  0.00     0.047 C 
HETATM   16  C13 UNL     1      26.479  -0.449  52.471  1.00  0.00     0.033 C 
HETATM   17  C14 UNL     1      26.902   0.432  51.549  1.00  0.00     0.040 C 
BRANCH  15  18
HETATM   18  N3  UNL     1      25.361  -0.614  54.717  1.00  0.00    -0.327 N 
HETATM   19  C11 UNL     1      23.952  -0.811  54.635  1.00  0.00     0.218 C 
HETATM   20  C12 UNL     1      23.197  -1.622  55.638  1.00  0.00     0.117 C 
HETATM   21  O3  UNL     1      23.247  -0.324  53.727  1.00  0.00    -0.274 OA
HETATM   22  H6  UNL     1      25.904  -1.042  55.496  1.00  0.00     0.169 HD
ENDBRANCH  15  18
ENDBRANCH  11  12
ENDBRANCH   7  11
BRANCH  10  23
HETATM   23  O4  UNL     1      28.449   6.666  48.261  1.00  0.00    -0.353 OA
HETATM   24  C18 UNL     1      29.479   5.708  48.103  1.00  0.00     0.210 C 
ENDBRANCH  10  23
BRANCH   1  25
HETATM   25  O1  UNL     1      26.240   7.992  47.416  1.00  0.00    -0.353 OA
HETATM   26  C1  UNL     1      26.083   9.274  47.970  1.00  0.00     0.210 C 
ENDBRANCH   1  25
TORSDOF 5
ENDMDL
MODEL 9
REMARK VINA RESULT:      -7.1      3.143      4.490
REMARK  5 active torsions:
REMARK  status: ('A' for Active; 'I' for Inactive)
REMARK    1  A    between atoms: O1_2  and  C2_3 
REMARK    2  A    between atoms: C6_9  and  O2_10 
REMARK    3  A    between atoms: O2_10  and  C7_11 
REMARK    4  A    between atoms: C10_14  and  N3_15 
REMARK       I    between atoms: N3_15  and  C11_16 
REMARK    5  A    between atoms: C17_23  and  O4_24 
ROOT
HETATM    1  C2  UNL     1      26.263  -0.287  53.026  1.00  0.00     0.103 A 
HETATM    2  C3  UNL     1      25.359  -0.922  53.864  1.00  0.00     0.072 A 
HETATM    3  C4  UNL     1      24.074  -0.458  53.869  1.00  0.00     0.075 A 
HETATM    4  N1  UNL     1      23.169  -1.045  54.666  1.00  0.00    -0.241 NA
HETATM    5  C5  UNL     1      21.880  -0.662  54.741  1.00  0.00     0.236 A 
HETATM    6  N2  UNL     1      21.475   0.366  53.977  1.00  0.00    -0.217 NA
HETATM    7  C6  UNL     1      22.317   1.007  53.153  1.00  0.00     0.183 A 
HETATM    8  C15 UNL     1      23.646   0.586  53.098  1.00  0.00     0.049 A 
HETATM    9  C16 UNL     1      24.576   1.188  52.279  1.00  0.00     0.057 A 
HETATM   10  C17 UNL     1      25.897   0.785  52.212  1.00  0.00     0.102 A 
ENDROOT
BRANCH   7  11
HETATM   11  O2  UNL     1      22.015   2.075  52.320  1.00  0.00    -0.290 OA
BRANCH  11  12
HETATM   12  C7  UNL     1      21.130   1.889  51.290  1.00  0.00     0.090 C 
HETATM   13  C8  UNL     1      19.908   2.306  51.076  1.00  0.00     0.025 C 
HETATM   14  C9  UNL     1      19.552   2.754  49.919  1.00  0.00     0.018 C 
HETATM   15  C10 UNL     1      19.987   2.154  48.857  1.00  0.00     0.047 C 
HETATM   16  C13 UNL     1      21.068   1.155  48.947  1.00  0.00     0.033 C 
HETATM   17  C14 UNL     1      21.611   1.052  50.172  1.00  0.00     0.040 C 
BRANCH  15  18
HETATM   18  N3  UNL     1      19.404   2.473  47.600  1.00  0.00    -0.327 N 
HETATM   19  C11 UNL     1      20.038   3.488  46.828  1.00  0.00     0.218 C 
HETATM   20  C12 UNL     1      19.525   3.916  45.491  1.00  0.00     0.117 C 
HETATM   21  O3  UNL     1      21.063   4.093  47.206  1.00  0.00    -0.274 OA
HETATM   22  H6  UNL     1      18.550   1.999  47.239  1.00  0.00     0.169 HD
ENDBRANCH  15  18
ENDBRANCH  11  12
ENDBRANCH   7  11
BRANCH  10  23
HETATM   23  O4  UNL     1      26.818   1.414  51.373  1.00  0.00    -0.353 OA
HETATM   24  C18 UNL     1      26.566   2.778  51.090  1.00  0.00     0.210 C 
ENDBRANCH  10  23
BRANCH   1  25
HETATM   25  O1  UNL     1      27.612  -0.662  52.926  1.00  0.00    -0.353 OA
HETATM   26  C1  UNL     1      28.577  -0.335  53.894  1.00  0.00     0.210 C 
ENDBRANCH   1  25
TORSDOF 5
ENDMDL
