MODEL 1
REMARK VINA RESULT:      -6.9      0.000      0.000
REMARK  1 active torsions:
REMARK  status: ('A' for Active; 'I' for Inactive)
REMARK    1  A    between atoms: C13_17  and  O2_18 
ROOT
HETATM    1  C1  UNL     1      26.542  -1.257  53.081  1.00  0.00     0.052 C 
HETATM    2  C2  UNL     1      25.391  -0.610  53.063  1.00  0.00     0.086 A 
HETATM    3  O1  UNL     1      24.084  -0.992  53.318  1.00  0.00    -0.291 OA
HETATM    4  C3  UNL     1      23.690   0.310  53.045  1.00  0.00     0.187 A 
HETATM    5  N1  UNL     1      22.777   1.214  52.936  1.00  0.00    -0.217 NA
HETATM    6  C4  UNL     1      21.398   1.033  53.154  1.00  0.00     0.229 C 
HETATM    7  N2  UNL     1      20.444   0.618  52.356  1.00  0.00    -0.279 NA
HETATM    8  C5  UNL     1      20.739   0.249  50.980  1.00  0.00     0.177 C 
HETATM    9  C6  UNL     1      21.507   1.290  50.281  1.00  0.00    -0.009 C 
HETATM   10  C7  UNL     1      22.293   2.094  49.649  1.00  0.00    -0.027 C 
HETATM   11  C8  UNL     1      23.131   3.065  48.938  1.00  0.00     0.047 C 
HETATM   12  C9  UNL     1      24.423   3.217  49.700  1.00  0.00     0.127 C 
HETATM   13  N3  UNL     1      24.139   3.736  51.005  1.00  0.00    -0.375 N 
HETATM   14  C10 UNL     1      23.468   4.816  51.646  1.00  0.00     0.152 A 
HETATM   15  C11 UNL     1      23.971   4.153  52.870  1.00  0.00     0.025 A 
HETATM   16  C12 UNL     1      24.576   3.169  52.230  1.00  0.00     0.063 A 
HETATM   17  C13 UNL     1      25.368   1.967  52.444  1.00  0.00     0.111 C 
HETATM   18  C15 UNL     1      25.046   0.757  52.767  1.00  0.00     0.086 A 
ENDROOT
BRANCH  17  19
HETATM   19  O2  UNL     1      26.644   2.428  52.210  1.00  0.00    -0.353 OA
HETATM   20  C14 UNL     1      27.756   2.213  53.022  1.00  0.00     0.210 C 
ENDBRANCH  17  19
TORSDOF 1
ENDMDL
MODEL 2
REMARK VINA RESULT:      -6.6      6.889      9.580
REMARK  1 active torsions:
REMARK  status: ('A' for Active; 'I' for Inactive)
REMARK    1  A    between atoms: C13_17  and  O2_18 
ROOT
HETATM    1  C1  UNL     1      25.580   5.297  49.356  1.00  0.00     0.052 C 
HETATM    2  C2  UNL     1      26.823   5.375  48.918  1.00  0.00     0.086 A 
HETATM    3  O1  UNL     1      27.921   4.536  49.022  1.00  0.00    -0.291 OA
HETATM    4  C3  UNL     1      28.650   5.462  48.289  1.00  0.00     0.187 A 
HETATM    5  N1  UNL     1      29.745   5.848  47.729  1.00  0.00    -0.217 NA
HETATM    6  C4  UNL     1      30.966   5.146  47.717  1.00  0.00     0.229 C 
HETATM    7  N2  UNL     1      31.951   5.111  48.581  1.00  0.00    -0.279 NA
HETATM    8  C5  UNL     1      31.889   5.892  49.806  1.00  0.00     0.177 C 
HETATM    9  C6  UNL     1      31.549   7.299  49.549  1.00  0.00    -0.009 C 
HETATM   10  C7  UNL     1      31.124   8.509  49.412  1.00  0.00    -0.027 C 
HETATM   11  C8  UNL     1      30.705   9.899  49.212  1.00  0.00     0.047 C 
HETATM   12  C9  UNL     1      29.346   9.891  48.558  1.00  0.00     0.127 C 
HETATM   13  N3  UNL     1      29.448   9.262  47.275  1.00  0.00    -0.375 N 
HETATM   14  C10 UNL     1      30.189   9.332  46.061  1.00  0.00     0.152 A 
HETATM   15  C11 UNL     1      29.294   8.220  45.671  1.00  0.00     0.025 A 
HETATM   16  C12 UNL     1      28.637   8.192  46.816  1.00  0.00     0.063 A 
HETATM   17  C13 UNL     1      27.566   7.499  47.516  1.00  0.00     0.111 C 
HETATM   18  C15 UNL     1      27.525   6.375  48.154  1.00  0.00     0.086 A 
ENDROOT
BRANCH  17  19
HETATM   19  O2  UNL     1      26.511   8.366  47.340  1.00  0.00    -0.353 OA
HETATM   20  C14 UNL     1      25.297   8.066  46.725  1.00  0.00     0.210 C 
ENDBRANCH  17  19
TORSDOF 1
ENDMDL
MODEL 3
REMARK VINA RESULT:      -6.4      2.085      4.638
REMARK  1 active torsions:
REMARK  status: ('A' for Active; 'I' for Inactive)
REMARK    1  A    between atoms: C13_17  and  O2_18 
ROOT
HETATM    1  C1  UNL     1      20.831  -1.640  54.223  1.00  0.00     0.052 C 
HETATM    2  C2  UNL     1      21.727  -0.898  53.599  1.00  0.00     0.086 A 
HETATM    3  O1  UNL     1      23.071  -0.644  53.822  1.00  0.00    -0.291 OA
HETATM    4  C3  UNL     1      23.062   0.182  52.707  1.00  0.00     0.187 A 
HETATM    5  N1  UNL     1      23.659   0.976  51.885  1.00  0.00    -0.217 NA
HETATM    6  C4  UNL     1      25.013   1.358  51.933  1.00  0.00     0.229 C 
HETATM    7  N2  UNL     1      25.618   2.316  52.592  1.00  0.00    -0.279 NA
HETATM    8  C5  UNL     1      24.863   3.209  53.457  1.00  0.00     0.177 C 
HETATM    9  C6  UNL     1      23.693   3.781  52.776  1.00  0.00    -0.009 C 
HETATM   10  C7  UNL     1      22.580   4.214  52.290  1.00  0.00    -0.027 C 
HETATM   11  C8  UNL     1      21.356   4.743  51.680  1.00  0.00     0.047 C 
HETATM   12  C9  UNL     1      20.484   3.576  51.289  1.00  0.00     0.127 C 
HETATM   13  N3  UNL     1      21.171   2.786  50.310  1.00  0.00    -0.375 N 
HETATM   14  C10 UNL     1      21.825   2.904  49.051  1.00  0.00     0.152 A 
HETATM   15  C11 UNL     1      22.003   1.445  49.220  1.00  0.00     0.025 A 
HETATM   16  C12 UNL     1      21.390   1.386  50.388  1.00  0.00     0.063 A 
HETATM   17  C13 UNL     1      21.001   0.463  51.443  1.00  0.00     0.111 C 
HETATM   18  C15 UNL     1      21.652  -0.053  52.434  1.00  0.00     0.086 A 
ENDROOT
BRANCH  17  19
HETATM   19  O2  UNL     1      19.678   0.232  51.138  1.00  0.00    -0.353 OA
HETATM   20  C14 UNL     1      18.596   0.401  52.000  1.00  0.00     0.210 C 
ENDBRANCH  17  19
TORSDOF 1
ENDMDL
MODEL 4
REMARK VINA RESULT:      -6.3      1.620      4.317
REMARK  1 active torsions:
REMARK  status: ('A' for Active; 'I' for Inactive)
REMARK    1  A    between atoms: C13_17  and  O2_18 
ROOT
HETATM    1  C1  UNL     1      25.302  -0.224  54.465  1.00  0.00     0.052 C 
HETATM    2  C2  UNL     1      24.999   0.544  53.435  1.00  0.00     0.086 A 
HETATM    3  O1  UNL     1      25.676   1.556  52.774  1.00  0.00    -0.291 OA
HETATM    4  C3  UNL     1      24.583   1.684  51.929  1.00  0.00     0.187 A 
HETATM    5  N1  UNL     1      23.985   2.243  50.933  1.00  0.00    -0.217 NA
HETATM    6  C4  UNL     1      24.498   3.282  50.132  1.00  0.00     0.229 C 
HETATM    7  N2  UNL     1      24.481   4.583  50.289  1.00  0.00    -0.279 NA
HETATM    8  C5  UNL     1      23.850   5.179  51.456  1.00  0.00     0.177 C 
HETATM    9  C6  UNL     1      22.488   4.668  51.670  1.00  0.00    -0.009 C 
HETATM   10  C7  UNL     1      21.345   4.170  51.997  1.00  0.00    -0.027 C 
HETATM   11  C8  UNL     1      20.016   3.628  52.299  1.00  0.00     0.047 C 
HETATM   12  C9  UNL     1      20.152   2.141  52.512  1.00  0.00     0.127 C 
HETATM   13  N3  UNL     1      20.622   1.535  51.301  1.00  0.00    -0.375 N 
HETATM   14  C10 UNL     1      20.318   1.452  49.913  1.00  0.00     0.152 A 
HETATM   15  C11 UNL     1      21.500   0.563  49.900  1.00  0.00     0.025 A 
HETATM   16  C12 UNL     1      21.744   0.673  51.193  1.00  0.00     0.063 A 
HETATM   17  C13 UNL     1      22.654   0.231  52.238  1.00  0.00     0.111 C 
HETATM   18  C15 UNL     1      23.833   0.628  52.592  1.00  0.00     0.086 A 
ENDROOT
BRANCH  17  19
HETATM   19  O2  UNL     1      21.936  -0.787  52.823  1.00  0.00    -0.353 OA
HETATM   20  C14 UNL     1      21.534  -0.848  54.156  1.00  0.00     0.210 C 
ENDBRANCH  17  19
TORSDOF 1
ENDMDL
MODEL 5
REMARK VINA RESULT:      -6.2      2.566      5.315
REMARK  1 active torsions:
REMARK  status: ('A' for Active; 'I' for Inactive)
REMARK    1  A    between atoms: C13_17  and  O2_18 
ROOT
HETATM    1  C1  UNL     1      26.481   1.345  51.963  1.00  0.00     0.052 C 
HETATM    2  C2  UNL     1      26.268   2.375  51.164  1.00  0.00     0.086 A 
HETATM    3  O1  UNL     1      27.080   3.395  50.694  1.00  0.00    -0.291 OA
HETATM    4  C3  UNL     1      25.986   3.893  49.999  1.00  0.00     0.187 A 
HETATM    5  N1  UNL     1      25.449   4.761  49.212  1.00  0.00    -0.217 NA
HETATM    6  C4  UNL     1      26.097   5.866  48.626  1.00  0.00     0.229 C 
HETATM    7  N2  UNL     1      26.315   7.077  49.075  1.00  0.00    -0.279 NA
HETATM    8  C5  UNL     1      25.854   7.470  50.398  1.00  0.00     0.177 C 
HETATM    9  C6  UNL     1      24.436   7.146  50.608  1.00  0.00    -0.009 C 
HETATM   10  C7  UNL     1      23.240   6.772  50.911  1.00  0.00    -0.027 C 
HETATM   11  C8  UNL     1      21.853   6.392  51.197  1.00  0.00     0.047 C 
HETATM   12  C9  UNL     1      21.737   4.895  51.055  1.00  0.00     0.127 C 
HETATM   13  N3  UNL     1      22.036   4.529  49.702  1.00  0.00    -0.375 N 
HETATM   14  C10 UNL     1      21.656   4.829  48.363  1.00  0.00     0.152 A 
HETATM   15  C11 UNL     1      22.662   3.792  48.045  1.00  0.00     0.025 A 
HETATM   16  C12 UNL     1      22.983   3.551  49.303  1.00  0.00     0.063 A 
HETATM   17  C13 UNL     1      23.851   2.733  50.137  1.00  0.00     0.111 C 
HETATM   18  C15 UNL     1      25.096   2.841  50.468  1.00  0.00     0.086 A 
ENDROOT
BRANCH  17  19
HETATM   19  O2  UNL     1      22.994   1.732  50.536  1.00  0.00    -0.353 OA
HETATM   20  C14 UNL     1      22.734   1.350  51.850  1.00  0.00     0.210 C 
ENDBRANCH  17  19
TORSDOF 1
ENDMDL
MODEL 6
REMARK VINA RESULT:      -6.2      1.932      2.574
REMARK  1 active torsions:
REMARK  status: ('A' for Active; 'I' for Inactive)
REMARK    1  A    between atoms: C13_17  and  O2_18 
ROOT
HETATM    1  C1  UNL     1      22.309  -1.149  53.536  1.00  0.00     0.052 C 
HETATM    2  C2  UNL     1      21.794  -0.003  53.131  1.00  0.00     0.086 A 
HETATM    3  O1  UNL     1      20.503   0.406  52.833  1.00  0.00    -0.291 OA
HETATM    4  C3  UNL     1      21.010   1.663  52.537  1.00  0.00     0.187 A 
HETATM    5  N1  UNL     1      20.848   2.885  52.161  1.00  0.00    -0.217 NA
HETATM    6  C4  UNL     1      19.626   3.495  51.817  1.00  0.00     0.229 C 
HETATM    7  N2  UNL     1      18.969   3.534  50.683  1.00  0.00    -0.279 NA
HETATM    8  C5  UNL     1      19.494   2.869  49.501  1.00  0.00     0.177 C 
HETATM    9  C6  UNL     1      20.894   3.232  49.237  1.00  0.00    -0.009 C 
HETATM   10  C7  UNL     1      22.154   3.397  49.023  1.00  0.00    -0.027 C 
HETATM   11  C8  UNL     1      23.574   3.662  48.769  1.00  0.00     0.047 C 
HETATM   12  C9  UNL     1      24.358   3.218  49.978  1.00  0.00     0.127 C 
HETATM   13  N3  UNL     1      23.950   3.993  51.112  1.00  0.00    -0.375 N 
HETATM   14  C10 UNL     1      23.794   5.344  51.533  1.00  0.00     0.152 A 
HETATM   15  C11 UNL     1      23.370   4.703  52.797  1.00  0.00     0.025 A 
HETATM   16  C12 UNL     1      23.527   3.467  52.360  1.00  0.00     0.063 A 
HETATM   17  C13 UNL     1      23.399   2.075  52.763  1.00  0.00     0.111 C 
HETATM   18  C15 UNL     1      22.381   1.280  52.838  1.00  0.00     0.086 A 
ENDROOT
BRANCH  17  19
HETATM   19  O2  UNL     1      24.700   1.752  53.074  1.00  0.00    -0.353 OA
HETATM   20  C14 UNL     1      25.442   0.710  52.521  1.00  0.00     0.210 C 
ENDBRANCH  17  19
TORSDOF 1
ENDMDL
MODEL 7
REMARK VINA RESULT:      -6.1      3.685      5.515
REMARK  1 active torsions:
REMARK  status: ('A' for Active; 'I' for Inactive)
REMARK    1  A    between atoms: C13_17  and  O2_18 
ROOT
HETATM    1  C1  UNL     1      28.850   5.372  48.158  1.00  0.00     0.052 C 
HETATM    2  C2  UNL     1      27.701   5.042  48.720  1.00  0.00     0.086 A 
HETATM    3  O1  UNL     1      27.151   3.834  49.117  1.00  0.00    -0.291 OA
HETATM    4  C3  UNL     1      26.027   4.528  49.542  1.00  0.00     0.187 A 
HETATM    5  N1  UNL     1      24.853   4.559  50.073  1.00  0.00    -0.217 NA
HETATM    6  C4  UNL     1      24.123   3.449  50.543  1.00  0.00     0.229 C 
HETATM    7  N2  UNL     1      23.326   2.614  49.923  1.00  0.00    -0.279 NA
HETATM    8  C5  UNL     1      23.071   2.754  48.498  1.00  0.00     0.177 C 
HETATM    9  C6  UNL     1      22.676   4.124  48.139  1.00  0.00    -0.009 C 
HETATM   10  C7  UNL     1      22.456   5.327  47.732  1.00  0.00    -0.027 C 
HETATM   11  C8  UNL     1      22.141   6.697  47.315  1.00  0.00     0.047 C 
HETATM   12  C9  UNL     1      23.297   7.585  47.703  1.00  0.00     0.127 C 
HETATM   13  N3  UNL     1      23.442   7.569  49.128  1.00  0.00    -0.375 N 
HETATM   14  C10 UNL     1      22.693   7.782  50.320  1.00  0.00     0.152 A 
HETATM   15  C11 UNL     1      23.990   7.479  50.964  1.00  0.00     0.025 A 
HETATM   16  C12 UNL     1      24.642   7.288  49.831  1.00  0.00     0.063 A 
HETATM   17  C13 UNL     1      25.951   6.948  49.295  1.00  0.00     0.111 C 
HETATM   18  C15 UNL     1      26.563   5.820  49.140  1.00  0.00     0.086 A 
ENDROOT
BRANCH  17  19
HETATM   19  O2  UNL     1      26.446   8.188  48.958  1.00  0.00    -0.353 OA
HETATM   20  C14 UNL     1      27.331   8.952  49.716  1.00  0.00     0.210 C 
ENDBRANCH  17  19
TORSDOF 1
ENDMDL
MODEL 8
REMARK VINA RESULT:      -6.0      2.923      5.270
REMARK  1 active torsions:
REMARK  status: ('A' for Active; 'I' for Inactive)
REMARK    1  A    between atoms: C13_17  and  O2_18 
ROOT
HETATM    1  C1  UNL     1      20.950   7.324  49.818  1.00  0.00     0.052 C 
HETATM    2  C2  UNL     1      21.412   6.147  49.438  1.00  0.00     0.086 A 
HETATM    3  O1  UNL     1      20.908   5.149  48.618  1.00  0.00    -0.291 OA
HETATM    4  C3  UNL     1      22.061   4.417  48.864  1.00  0.00     0.187 A 
HETATM    5  N1  UNL     1      22.788   3.366  48.696  1.00  0.00    -0.217 NA
HETATM    6  C4  UNL     1      22.463   2.247  47.905  1.00  0.00     0.229 C 
HETATM    7  N2  UNL     1      21.767   1.170  48.177  1.00  0.00    -0.279 NA
HETATM    8  C5  UNL     1      21.177   0.983  49.493  1.00  0.00     0.177 C 
HETATM    9  C6  UNL     1      22.154   1.187  50.572  1.00  0.00    -0.009 C 
HETATM   10  C7  UNL     1      22.918   1.482  51.568  1.00  0.00    -0.027 C 
HETATM   11  C8  UNL     1      23.835   1.759  52.678  1.00  0.00     0.047 C 
HETATM   12  C9  UNL     1      24.316   3.182  52.547  1.00  0.00     0.127 C 
HETATM   13  N3  UNL     1      25.040   3.320  51.318  1.00  0.00    -0.375 N 
HETATM   14  C10 UNL     1      26.121   2.738  50.597  1.00  0.00     0.152 A 
HETATM   15  C11 UNL     1      25.793   3.799  49.620  1.00  0.00     0.025 A 
HETATM   16  C12 UNL     1      24.796   4.302  50.324  1.00  0.00     0.063 A 
HETATM   17  C13 UNL     1      23.784   5.348  50.309  1.00  0.00     0.111 C 
HETATM   18  C15 UNL     1      22.630   5.437  49.733  1.00  0.00     0.086 A 
ENDROOT
BRANCH  17  19
HETATM   19  O2  UNL     1      24.364   6.309  51.107  1.00  0.00    -0.353 OA
HETATM   20  C14 UNL     1      24.601   7.636  50.753  1.00  0.00     0.210 C 
ENDBRANCH  17  19
TORSDOF 1
ENDMDL
MODEL 9
REMARK VINA RESULT:      -6.0      2.624      5.841
REMARK  1 active torsions:
REMARK  status: ('A' for Active; 'I' for Inactive)
REMARK    1  A    between atoms: C13_17  and  O2_18 
ROOT
HETATM    1  C1  UNL     1      21.068   3.233  47.170  1.00  0.00     0.052 C 
HETATM    2  C2  UNL     1      22.001   3.858  47.864  1.00  0.00     0.086 A 
HETATM    3  O1  UNL     1      22.912   4.854  47.548  1.00  0.00    -0.291 OA
HETATM    4  C3  UNL     1      23.377   4.791  48.854  1.00  0.00     0.187 A 
HETATM    5  N1  UNL     1      24.168   5.188  49.791  1.00  0.00    -0.217 NA
HETATM    6  C4  UNL     1      25.156   6.185  49.678  1.00  0.00     0.229 C 
HETATM    7  N2  UNL     1      26.401   6.125  49.272  1.00  0.00    -0.279 NA
HETATM    8  C5  UNL     1      26.978   4.863  48.838  1.00  0.00     0.177 C 
HETATM    9  C6  UNL     1      26.757   3.788  49.816  1.00  0.00    -0.009 C 
HETATM   10  C7  UNL     1      26.487   2.770  50.560  1.00  0.00    -0.027 C 
HETATM   11  C8  UNL     1      26.218   1.649  51.465  1.00  0.00     0.047 C 
HETATM   12  C9  UNL     1      24.723   1.495  51.592  1.00  0.00     0.127 C 
HETATM   13  N3  UNL     1      24.178   2.685  52.174  1.00  0.00    -0.375 N 
HETATM   14  C10 UNL     1      24.330   3.535  53.307  1.00  0.00     0.152 A 
HETATM   15  C11 UNL     1      23.210   4.265  52.672  1.00  0.00     0.025 A 
HETATM   16  C12 UNL     1      23.110   3.450  51.638  1.00  0.00     0.063 A 
HETATM   17  C13 UNL     1      22.357   3.225  50.414  1.00  0.00     0.111 C 
HETATM   18  C15 UNL     1      22.439   3.744  49.232  1.00  0.00     0.086 A 
ENDROOT
BRANCH  17  19
HETATM   19  O2  UNL     1      21.459   2.260  50.810  1.00  0.00    -0.353 OA
HETATM   20  C14 UNL     1      21.258   1.025  50.196  1.00  0.00     0.210 C 
ENDBRANCH  17  19
TORSDOF 1
ENDMDL
