MODEL 1
REMARK VINA RESULT:      -7.7      0.000      0.000
REMARK  7 active torsions:
REMARK  status: ('A' for Active; 'I' for Inactive)
REMARK    1  A    between atoms: C2_2  and  C3_3 
REMARK    2  A    between atoms: C3_3  and  C4_4 
REMARK    3  A    between atoms: C4_4  and  N1_5 
REMARK    4  A    between atoms: N1_5  and  C5_6 
REMARK       I    between atoms: N1_5  and  C12_16 
REMARK    5  A    between atoms: C5_6  and  C6_7 
REMARK    6  A    between atoms: C11_14  and  O1_15 
REMARK       I    between atoms: C12_16  and  N2_18 
REMARK    7  A    between atoms: N2_18  and  C13_19 
ROOT
HETATM    1  N1  UNL     1      24.989   3.425  51.155  1.00  0.00    -0.330 N 
HETATM    2  C12 UNL     1      26.200   2.765  51.520  1.00  0.00     0.322 C 
HETATM    3  O2  UNL     1      26.842   2.451  50.489  1.00  0.00    -0.247 OA
HETATM    4  N2  UNL     1      26.667   2.479  52.821  1.00  0.00    -0.316 N 
HETATM    5  H15 UNL     1      25.959   2.839  53.491  1.00  0.00     0.170 HD
ENDROOT
BRANCH   1   6
HETATM    6  C4  UNL     1      24.733   3.601  49.762  1.00  0.00     0.128 C 
BRANCH   6   7
HETATM    7  C3  UNL     1      24.442   4.989  49.316  1.00  0.00     0.020 C 
BRANCH   7   8
HETATM    8  C2  UNL     1      25.692   5.819  49.532  1.00  0.00    -0.003 C 
HETATM    9  C1  UNL     1      26.865   5.374  48.724  1.00  0.00     0.005 C 
ENDBRANCH   7   8
ENDBRANCH   6   7
ENDBRANCH   1   6
BRANCH   1  10
HETATM   10  C5  UNL     1      24.021   3.919  52.104  1.00  0.00     0.169 C 
BRANCH  10  11
HETATM   11  C6  UNL     1      22.876   2.989  52.309  1.00  0.00    -0.004 A 
HETATM   12  C7  UNL     1      23.038   1.724  52.853  1.00  0.00     0.030 A 
HETATM   13  C8  UNL     1      21.923   0.923  53.010  1.00  0.00     0.013 A 
HETATM   14 BR1  UNL     1      22.212  -0.795  53.758  1.00  0.00    -0.051 Br
HETATM   15  C9  UNL     1      20.692   1.393  52.626  1.00  0.00     0.041 A 
HETATM   16  C10 UNL     1      20.496   2.647  52.081  1.00  0.00     0.045 A 
HETATM   17 BR2  UNL     1      18.769   3.259  51.565  1.00  0.00    -0.048 Br
HETATM   18  C11 UNL     1      21.627   3.449  51.927  1.00  0.00     0.091 A 
BRANCH  18  19
HETATM   19  O1  UNL     1      21.449   4.706  51.384  1.00  0.00    -0.359 OA
HETATM   20  H14 UNL     1      21.174   5.521  51.909  1.00  0.00     0.217 HD
ENDBRANCH  18  19
ENDBRANCH  10  11
ENDBRANCH   1  10
BRANCH   4  21
HETATM   21  C13 UNL     1      27.841   1.838  53.217  1.00  0.00     0.130 C 
HETATM   22  C14 UNL     1      28.314   0.629  53.270  1.00  0.00     0.090 A 
HETATM   23  C15 UNL     1      29.650   0.230  53.757  1.00  0.00     0.039 A 
HETATM   24  O3  UNL     1      27.530  -0.427  52.841  1.00  0.00    -0.321 OA
HETATM   25  C16 UNL     1      29.962  -1.050  53.738  1.00  0.00     0.005 A 
HETATM   26  C17 UNL     1      29.099  -2.108  53.277  1.00  0.00     0.025 A 
HETATM   27  C18 UNL     1      27.911  -1.755  52.844  1.00  0.00     0.142 A 
ENDBRANCH   4  21
TORSDOF 7
ENDMDL
MODEL 2
REMARK VINA RESULT:      -7.5      1.226      2.178
REMARK  7 active torsions:
REMARK  status: ('A' for Active; 'I' for Inactive)
REMARK    1  A    between atoms: C2_2  and  C3_3 
REMARK    2  A    between atoms: C3_3  and  C4_4 
REMARK    3  A    between atoms: C4_4  and  N1_5 
REMARK    4  A    between atoms: N1_5  and  C5_6 
REMARK       I    between atoms: N1_5  and  C12_16 
REMARK    5  A    between atoms: C5_6  and  C6_7 
REMARK    6  A    between atoms: C11_14  and  O1_15 
REMARK       I    between atoms: C12_16  and  N2_18 
REMARK    7  A    between atoms: N2_18  and  C13_19 
ROOT
HETATM    1  N1  UNL     1      24.900   3.427  50.823  1.00  0.00    -0.330 N 
HETATM    2  C12 UNL     1      26.145   2.869  51.239  1.00  0.00     0.322 C 
HETATM    3  O2  UNL     1      26.924   2.786  50.259  1.00  0.00    -0.247 OA
HETATM    4  N2  UNL     1      26.512   2.454  52.537  1.00  0.00    -0.316 N 
HETATM    5  H15 UNL     1      25.699   2.626  53.160  1.00  0.00     0.170 HD
ENDROOT
BRANCH   1   6
HETATM    6  C4  UNL     1      24.764   3.772  49.444  1.00  0.00     0.128 C 
BRANCH   6   7
HETATM    7  C3  UNL     1      24.527   5.209  49.146  1.00  0.00     0.020 C 
BRANCH   7   8
HETATM    8  C2  UNL     1      25.755   5.984  49.580  1.00  0.00    -0.003 C 
HETATM    9  C1  UNL     1      26.859   5.989  48.576  1.00  0.00     0.005 C 
ENDBRANCH   7   8
ENDBRANCH   6   7
ENDBRANCH   1   6
BRANCH   1  10
HETATM   10  C5  UNL     1      23.783   3.658  51.707  1.00  0.00     0.169 C 
BRANCH  10  11
HETATM   11  C6  UNL     1      22.762   2.576  51.655  1.00  0.00    -0.004 A 
HETATM   12  C7  UNL     1      21.693   2.611  50.772  1.00  0.00     0.030 A 
HETATM   13  C8  UNL     1      20.788   1.565  50.787  1.00  0.00     0.013 A 
HETATM   14 BR1  UNL     1      19.351   1.672  49.557  1.00  0.00    -0.051 Br
HETATM   15  C9  UNL     1      20.967   0.527  51.667  1.00  0.00     0.041 A 
HETATM   16  C10 UNL     1      22.020   0.464  52.559  1.00  0.00     0.045 A 
HETATM   17 BR2  UNL     1      22.229  -0.996  53.763  1.00  0.00    -0.048 Br
HETATM   18  C11 UNL     1      22.928   1.523  52.537  1.00  0.00     0.091 A 
BRANCH  18  19
HETATM   19  O1  UNL     1      23.987   1.473  53.422  1.00  0.00    -0.359 OA
HETATM   20  H14 UNL     1      24.955   1.417  53.151  1.00  0.00     0.217 HD
ENDBRANCH  18  19
ENDBRANCH  10  11
ENDBRANCH   1  10
BRANCH   4  21
HETATM   21  C13 UNL     1      27.717   1.906  52.982  1.00  0.00     0.130 C 
HETATM   22  C14 UNL     1      28.252   0.731  53.122  1.00  0.00     0.090 A 
HETATM   23  C15 UNL     1      29.604   0.439  53.640  1.00  0.00     0.039 A 
HETATM   24  O3  UNL     1      27.528  -0.394  52.766  1.00  0.00    -0.321 OA
HETATM   25  C16 UNL     1      29.983  -0.821  53.713  1.00  0.00     0.005 A 
HETATM   26  C17 UNL     1      29.181  -1.953  53.325  1.00  0.00     0.025 A 
HETATM   27  C18 UNL     1      27.980  -1.696  52.864  1.00  0.00     0.142 A 
ENDBRANCH   4  21
TORSDOF 7
ENDMDL
MODEL 3
REMARK VINA RESULT:      -7.5      2.590      4.825
REMARK  7 active torsions:
REMARK  status: ('A' for Active; 'I' for Inactive)
REMARK    1  A    between atoms: C2_2  and  C3_3 
REMARK    2  A    between atoms: C3_3  and  C4_4 
REMARK    3  A    between atoms: C4_4  and  N1_5 
REMARK    4  A    between atoms: N1_5  and  C5_6 
REMARK       I    between atoms: N1_5  and  C12_16 
REMARK    5  A    between atoms: C5_6  and  C6_7 
REMARK    6  A    between atoms: C11_14  and  O1_15 
REMARK       I    between atoms: C12_16  and  N2_18 
REMARK    7  A    between atoms: N2_18  and  C13_19 
ROOT
HETATM    1  N1  UNL     1      22.581   0.923  53.181  1.00  0.00    -0.330 N 
HETATM    2  C12 UNL     1      23.615  -0.059  53.168  1.00  0.00     0.322 C 
HETATM    3  O2  UNL     1      23.136  -1.187  53.434  1.00  0.00    -0.247 OA
HETATM    4  N2  UNL     1      24.987   0.139  52.902  1.00  0.00    -0.316 N 
HETATM    5  H15 UNL     1      25.124   1.151  52.713  1.00  0.00     0.170 HD
ENDROOT
BRANCH   1   6
HETATM    6  C4  UNL     1      21.258   0.478  53.479  1.00  0.00     0.128 C 
BRANCH   6   7
HETATM    7  C3  UNL     1      20.150   1.226  52.830  1.00  0.00     0.020 C 
BRANCH   7   8
HETATM    8  C2  UNL     1      19.305   0.233  52.057  1.00  0.00    -0.003 C 
HETATM    9  C1  UNL     1      18.920   0.694  50.691  1.00  0.00     0.005 C 
ENDBRANCH   7   8
ENDBRANCH   6   7
ENDBRANCH   1   6
BRANCH   1  10
HETATM   10  C5  UNL     1      22.795   2.325  52.913  1.00  0.00     0.169 C 
BRANCH  10  11
HETATM   11  C6  UNL     1      23.139   2.603  51.491  1.00  0.00    -0.004 A 
HETATM   12  C7  UNL     1      22.217   2.459  50.466  1.00  0.00     0.030 A 
HETATM   13  C8  UNL     1      22.617   2.739  49.172  1.00  0.00     0.013 A 
HETATM   14 BR1  UNL     1      21.310   2.522  47.816  1.00  0.00    -0.051 Br
HETATM   15  C9  UNL     1      23.905   3.148  48.935  1.00  0.00     0.041 A 
HETATM   16  C10 UNL     1      24.847   3.301  49.934  1.00  0.00     0.045 A 
HETATM   17 BR2  UNL     1      26.624   3.872  49.559  1.00  0.00    -0.048 Br
HETATM   18  C11 UNL     1      24.435   3.017  51.236  1.00  0.00     0.091 A 
BRANCH  18  19
HETATM   19  O1  UNL     1      25.364   3.166  52.246  1.00  0.00    -0.359 OA
HETATM   20  H14 UNL     1      26.199   3.725  52.176  1.00  0.00     0.217 HD
ENDBRANCH  18  19
ENDBRANCH  10  11
ENDBRANCH   1  10
BRANCH   4  21
HETATM   21  C13 UNL     1      26.026  -0.793  52.880  1.00  0.00     0.130 C 
HETATM   22  C14 UNL     1      27.304  -0.823  53.108  1.00  0.00     0.090 A 
HETATM   23  C15 UNL     1      28.187  -2.003  53.001  1.00  0.00     0.039 A 
HETATM   24  O3  UNL     1      27.955   0.336  53.493  1.00  0.00    -0.321 OA
HETATM   25  C16 UNL     1      29.467  -1.849  53.272  1.00  0.00     0.005 A 
HETATM   26  C17 UNL     1      30.088  -0.611  53.670  1.00  0.00     0.025 A 
HETATM   27  C18 UNL     1      29.306   0.438  53.766  1.00  0.00     0.142 A 
ENDBRANCH   4  21
TORSDOF 7
ENDMDL
MODEL 4
REMARK VINA RESULT:      -7.2      3.009      7.023
REMARK  7 active torsions:
REMARK  status: ('A' for Active; 'I' for Inactive)
REMARK    1  A    between atoms: C2_2  and  C3_3 
REMARK    2  A    between atoms: C3_3  and  C4_4 
REMARK    3  A    between atoms: C4_4  and  N1_5 
REMARK    4  A    between atoms: N1_5  and  C5_6 
REMARK       I    between atoms: N1_5  and  C12_16 
REMARK    5  A    between atoms: C5_6  and  C6_7 
REMARK    6  A    between atoms: C11_14  and  O1_15 
REMARK       I    between atoms: C12_16  and  N2_18 
REMARK    7  A    between atoms: N2_18  and  C13_19 
ROOT
HETATM    1  N1  UNL     1      25.051   0.512  52.908  1.00  0.00    -0.330 N 
HETATM    2  C12 UNL     1      23.778  -0.103  53.102  1.00  0.00     0.322 C 
HETATM    3  O2  UNL     1      23.895  -1.351  53.053  1.00  0.00    -0.247 OA
HETATM    4  N2  UNL     1      22.538   0.535  53.323  1.00  0.00    -0.316 N 
HETATM    5  H15 UNL     1      22.711   1.559  53.319  1.00  0.00     0.170 HD
ENDROOT
BRANCH   1   6
HETATM    6  C4  UNL     1      26.170  -0.350  52.702  1.00  0.00     0.128 C 
BRANCH   6   7
HETATM    7  C3  UNL     1      27.497   0.190  53.098  1.00  0.00     0.020 C 
BRANCH   7   8
HETATM    8  C2  UNL     1      28.439  -0.982  53.292  1.00  0.00    -0.003 C 
HETATM    9  C1  UNL     1      29.848  -0.590  53.585  1.00  0.00     0.005 C 
ENDBRANCH   7   8
ENDBRANCH   6   7
ENDBRANCH   1   6
BRANCH   1  10
HETATM   10  C5  UNL     1      25.267   1.939  52.908  1.00  0.00     0.169 C 
BRANCH  10  11
HETATM   11  C6  UNL     1      25.003   2.570  51.586  1.00  0.00    -0.004 A 
HETATM   12  C7  UNL     1      23.746   2.564  51.001  1.00  0.00     0.030 A 
HETATM   13  C8  UNL     1      23.586   3.174  49.770  1.00  0.00     0.013 A 
HETATM   14 BR1  UNL     1      21.844   3.130  49.024  1.00  0.00    -0.051 Br
HETATM   15  C9  UNL     1      24.665   3.765  49.161  1.00  0.00     0.041 A 
HETATM   16  C10 UNL     1      25.929   3.788  49.718  1.00  0.00     0.045 A 
HETATM   17 BR2  UNL     1      27.398   4.620  48.837  1.00  0.00    -0.048 Br
HETATM   18  C11 UNL     1      26.082   3.170  50.959  1.00  0.00     0.091 A 
BRANCH  18  19
HETATM   19  O1  UNL     1      27.339   3.186  51.529  1.00  0.00    -0.359 OA
HETATM   20  H14 UNL     1      28.039   3.888  51.349  1.00  0.00     0.217 HD
ENDBRANCH  18  19
ENDBRANCH  10  11
ENDBRANCH   1  10
BRANCH   4  21
HETATM   21  C13 UNL     1      21.277  -0.030  53.516  1.00  0.00     0.130 C 
HETATM   22  C14 UNL     1      20.152  -0.130  52.875  1.00  0.00     0.090 A 
HETATM   23  C15 UNL     1      18.931  -0.817  53.345  1.00  0.00     0.039 A 
HETATM   24  O3  UNL     1      20.029   0.447  51.623  1.00  0.00    -0.321 OA
HETATM   25  C16 UNL     1      17.875  -0.818  52.556  1.00  0.00     0.005 A 
HETATM   26  C17 UNL     1      17.809  -0.197  51.258  1.00  0.00     0.025 A 
HETATM   27  C18 UNL     1      18.892   0.413  50.838  1.00  0.00     0.142 A 
ENDBRANCH   4  21
TORSDOF 7
ENDMDL
MODEL 5
REMARK VINA RESULT:      -7.1      3.033      6.080
REMARK  7 active torsions:
REMARK  status: ('A' for Active; 'I' for Inactive)
REMARK    1  A    between atoms: C2_2  and  C3_3 
REMARK    2  A    between atoms: C3_3  and  C4_4 
REMARK    3  A    between atoms: C4_4  and  N1_5 
REMARK    4  A    between atoms: N1_5  and  C5_6 
REMARK       I    between atoms: N1_5  and  C12_16 
REMARK    5  A    between atoms: C5_6  and  C6_7 
REMARK    6  A    between atoms: C11_14  and  O1_15 
REMARK       I    between atoms: C12_16  and  N2_18 
REMARK    7  A    between atoms: N2_18  and  C13_19 
ROOT
HETATM    1  N1  UNL     1      24.815   4.591  50.347  1.00  0.00    -0.330 N 
HETATM    2  C12 UNL     1      25.733   5.547  49.820  1.00  0.00     0.322 C 
HETATM    3  O2  UNL     1      25.450   6.691  50.249  1.00  0.00    -0.247 OA
HETATM    4  N2  UNL     1      26.816   5.310  48.946  1.00  0.00    -0.316 N 
HETATM    5  H15 UNL     1      26.835   4.292  48.743  1.00  0.00     0.170 HD
ENDROOT
BRANCH   1   6
HETATM    6  C4  UNL     1      23.794   5.074  51.219  1.00  0.00     0.128 C 
BRANCH   6   7
HETATM    7  C3  UNL     1      22.399   4.695  50.873  1.00  0.00     0.020 C 
BRANCH   7   8
HETATM    8  C2  UNL     1      21.513   5.901  51.114  1.00  0.00    -0.003 C 
HETATM    9  C1  UNL     1      22.127   7.199  50.706  1.00  0.00     0.005 C 
ENDBRANCH   7   8
ENDBRANCH   6   7
ENDBRANCH   1   6
BRANCH   1  10
HETATM   10  C5  UNL     1      24.861   3.179  50.052  1.00  0.00     0.169 C 
BRANCH  10  11
HETATM   11  C6  UNL     1      25.144   2.340  51.249  1.00  0.00    -0.004 A 
HETATM   12  C7  UNL     1      24.182   1.523  51.823  1.00  0.00     0.030 A 
HETATM   13  C8  UNL     1      24.526   0.774  52.933  1.00  0.00     0.013 A 
HETATM   14 BR1  UNL     1      23.166  -0.321  53.671  1.00  0.00    -0.051 Br
HETATM   15  C9  UNL     1      25.800   0.857  53.437  1.00  0.00     0.041 A 
HETATM   16  C10 UNL     1      26.781   1.661  52.889  1.00  0.00     0.045 A 
HETATM   17 BR2  UNL     1      28.536   1.743  53.622  1.00  0.00    -0.048 Br
HETATM   18  C11 UNL     1      26.425   2.412  51.769  1.00  0.00     0.091 A 
BRANCH  18  19
HETATM   19  O1  UNL     1      27.394   3.220  51.209  1.00  0.00    -0.359 OA
HETATM   20  H14 UNL     1      28.068   3.752  51.735  1.00  0.00     0.217 HD
ENDBRANCH  18  19
ENDBRANCH  10  11
ENDBRANCH   1  10
BRANCH   4  21
HETATM   21  C13 UNL     1      27.733   6.216  48.410  1.00  0.00     0.130 C 
HETATM   22  C14 UNL     1      28.968   6.219  48.007  1.00  0.00     0.090 A 
HETATM   23  C15 UNL     1      29.710   7.375  47.462  1.00  0.00     0.039 A 
HETATM   24  O3  UNL     1      29.708   5.051  48.071  1.00  0.00    -0.321 OA
HETATM   25  C16 UNL     1      30.964   7.194  47.101  1.00  0.00     0.005 A 
HETATM   26  C17 UNL     1      31.683   5.949  47.192  1.00  0.00     0.025 A 
HETATM   27  C18 UNL     1      31.025   4.921  47.675  1.00  0.00     0.142 A 
ENDBRANCH   4  21
TORSDOF 7
ENDMDL
MODEL 6
REMARK VINA RESULT:      -7.0      3.292      6.871
REMARK  7 active torsions:
REMARK  status: ('A' for Active; 'I' for Inactive)
REMARK    1  A    between atoms: C2_2  and  C3_3 
REMARK    2  A    between atoms: C3_3  and  C4_4 
REMARK    3  A    between atoms: C4_4  and  N1_5 
REMARK    4  A    between atoms: N1_5  and  C5_6 
REMARK       I    between atoms: N1_5  and  C12_16 
REMARK    5  A    between atoms: C5_6  and  C6_7 
REMARK    6  A    between atoms: C11_14  and  O1_15 
REMARK       I    between atoms: C12_16  and  N2_18 
REMARK    7  A    between atoms: N2_18  and  C13_19 
ROOT
HETATM    1  N1  UNL     1      22.876   2.718  50.220  1.00  0.00    -0.330 N 
HETATM    2  C12 UNL     1      21.646   2.183  49.733  1.00  0.00     0.322 C 
HETATM    3  O2  UNL     1      21.671   2.126  48.480  1.00  0.00    -0.247 OA
HETATM    4  N2  UNL     1      20.532   1.760  50.490  1.00  0.00    -0.316 N 
HETATM    5  H15 UNL     1      20.761   1.909  51.491  1.00  0.00     0.170 HD
ENDROOT
BRANCH   1   6
HETATM    6  C4  UNL     1      23.863   3.076  49.252  1.00  0.00     0.128 C 
BRANCH   6   7
HETATM    7  C3  UNL     1      24.242   4.512  49.201  1.00  0.00     0.020 C 
BRANCH   7   8
HETATM    8  C2  UNL     1      25.721   4.616  49.515  1.00  0.00    -0.003 C 
HETATM    9  C1  UNL     1      26.437   3.307  49.512  1.00  0.00     0.005 C 
ENDBRANCH   7   8
ENDBRANCH   6   7
ENDBRANCH   1   6
BRANCH   1  10
HETATM   10  C5  UNL     1      23.174   2.914  51.618  1.00  0.00     0.169 C 
BRANCH  10  11
HETATM   11  C6  UNL     1      23.672   1.682  52.289  1.00  0.00    -0.004 A 
HETATM   12  C7  UNL     1      24.991   1.267  52.189  1.00  0.00     0.030 A 
HETATM   13  C8  UNL     1      25.373   0.111  52.844  1.00  0.00     0.013 A 
HETATM   14 BR1  UNL     1      27.189  -0.402  52.666  1.00  0.00    -0.051 Br
HETATM   15  C9  UNL     1      24.446  -0.593  53.571  1.00  0.00     0.041 A 
HETATM   16  C10 UNL     1      23.125  -0.206  53.690  1.00  0.00     0.045 A 
HETATM   17 BR2  UNL     1      21.873  -1.214  54.711  1.00  0.00    -0.048 Br
HETATM   18  C11 UNL     1      22.748   0.961  53.027  1.00  0.00     0.091 A 
BRANCH  18  19
HETATM   19  O1  UNL     1      21.432   1.361  53.137  1.00  0.00    -0.359 OA
HETATM   20  H14 UNL     1      21.087   2.005  53.831  1.00  0.00     0.217 HD
ENDBRANCH  18  19
ENDBRANCH  10  11
ENDBRANCH   1  10
BRANCH   4  21
HETATM   21  C13 UNL     1      19.315   1.233  50.052  1.00  0.00     0.130 C 
HETATM   22  C14 UNL     1      18.349   0.506  50.525  1.00  0.00     0.090 A 
HETATM   23  C15 UNL     1      17.132   0.086  49.802  1.00  0.00     0.039 A 
HETATM   24  O3  UNL     1      18.415   0.052  51.831  1.00  0.00    -0.321 OA
HETATM   25  C16 UNL     1      16.252  -0.657  50.444  1.00  0.00     0.005 A 
HETATM   26  C17 UNL     1      16.378  -1.098  51.809  1.00  0.00     0.025 A 
HETATM   27  C18 UNL     1      17.458  -0.726  52.454  1.00  0.00     0.142 A 
ENDBRANCH   4  21
TORSDOF 7
ENDMDL
MODEL 7
REMARK VINA RESULT:      -7.0      2.237      6.049
REMARK  7 active torsions:
REMARK  status: ('A' for Active; 'I' for Inactive)
REMARK    1  A    between atoms: C2_2  and  C3_3 
REMARK    2  A    between atoms: C3_3  and  C4_4 
REMARK    3  A    between atoms: C4_4  and  N1_5 
REMARK    4  A    between atoms: N1_5  and  C5_6 
REMARK       I    between atoms: N1_5  and  C12_16 
REMARK    5  A    between atoms: C5_6  and  C6_7 
REMARK    6  A    between atoms: C11_14  and  O1_15 
REMARK       I    between atoms: C12_16  and  N2_18 
REMARK    7  A    between atoms: N2_18  and  C13_19 
ROOT
HETATM    1  N1  UNL     1      25.785   2.634  51.476  1.00  0.00    -0.330 N 
HETATM    2  C12 UNL     1      26.139   3.548  50.440  1.00  0.00     0.322 C 
HETATM    3  O2  UNL     1      27.112   3.098  49.788  1.00  0.00    -0.247 OA
HETATM    4  N2  UNL     1      25.529   4.784  50.136  1.00  0.00    -0.316 N 
HETATM    5  H15 UNL     1      24.755   4.924  50.815  1.00  0.00     0.170 HD
ENDROOT
BRANCH   1   6
HETATM    6  C4  UNL     1      26.556   1.437  51.586  1.00  0.00     0.128 C 
BRANCH   6   7
HETATM    7  C3  UNL     1      27.193   1.185  52.905  1.00  0.00     0.020 C 
BRANCH   7   8
HETATM    8  C2  UNL     1      27.558  -0.285  52.973  1.00  0.00    -0.003 C 
HETATM    9  C1  UNL     1      26.399  -1.209  52.802  1.00  0.00     0.005 C 
ENDBRANCH   7   8
ENDBRANCH   6   7
ENDBRANCH   1   6
BRANCH   1  10
HETATM   10  C5  UNL     1      24.704   2.849  52.408  1.00  0.00     0.169 C 
BRANCH  10  11
HETATM   11  C6  UNL     1      23.596   1.866  52.257  1.00  0.00    -0.004 A 
HETATM   12  C7  UNL     1      23.361   0.868  53.190  1.00  0.00     0.030 A 
HETATM   13  C8  UNL     1      22.311  -0.005  52.975  1.00  0.00     0.013 A 
HETATM   14 BR1  UNL     1      22.043  -1.347  54.286  1.00  0.00    -0.051 Br
HETATM   15  C9  UNL     1      21.532   0.135  51.853  1.00  0.00     0.041 A 
HETATM   16  C10 UNL     1      21.741   1.119  50.905  1.00  0.00     0.045 A 
HETATM   17 BR2  UNL     1      20.634   1.276  49.363  1.00  0.00    -0.048 Br
HETATM   18  C11 UNL     1      22.802   1.995  51.130  1.00  0.00     0.091 A 
BRANCH  18  19
HETATM   19  O1  UNL     1      23.023   2.983  50.192  1.00  0.00    -0.359 OA
HETATM   20  H14 UNL     1      23.063   2.828  49.198  1.00  0.00     0.217 HD
ENDBRANCH  18  19
ENDBRANCH  10  11
ENDBRANCH   1  10
BRANCH   4  21
HETATM   21  C13 UNL     1      25.845   5.702  49.134  1.00  0.00     0.130 C 
HETATM   22  C14 UNL     1      26.225   6.941  49.040  1.00  0.00     0.090 A 
HETATM   23  C15 UNL     1      26.497   7.684  47.793  1.00  0.00     0.039 A 
HETATM   24  O3  UNL     1      26.408   7.686  50.192  1.00  0.00    -0.321 OA
HETATM   25  C16 UNL     1      26.876   8.942  47.888  1.00  0.00     0.005 A 
HETATM   26  C17 UNL     1      27.049   9.665  49.122  1.00  0.00     0.025 A 
HETATM   27  C18 UNL     1      26.808   9.007  50.232  1.00  0.00     0.142 A 
ENDBRANCH   4  21
TORSDOF 7
ENDMDL
MODEL 8
REMARK VINA RESULT:      -7.0      2.577      6.132
REMARK  7 active torsions:
REMARK  status: ('A' for Active; 'I' for Inactive)
REMARK    1  A    between atoms: C2_2  and  C3_3 
REMARK    2  A    between atoms: C3_3  and  C4_4 
REMARK    3  A    between atoms: C4_4  and  N1_5 
REMARK    4  A    between atoms: N1_5  and  C5_6 
REMARK       I    between atoms: N1_5  and  C12_16 
REMARK    5  A    between atoms: C5_6  and  C6_7 
REMARK    6  A    between atoms: C11_14  and  O1_15 
REMARK       I    between atoms: C12_16  and  N2_18 
REMARK    7  A    between atoms: N2_18  and  C13_19 
ROOT
HETATM    1  N1  UNL     1      23.537   3.760  51.186  1.00  0.00    -0.330 N 
HETATM    2  C12 UNL     1      24.494   4.136  50.198  1.00  0.00     0.322 C 
HETATM    3  O2  UNL     1      23.932   4.260  49.083  1.00  0.00    -0.247 OA
HETATM    4  N2  UNL     1      25.878   4.355  50.378  1.00  0.00    -0.316 N 
HETATM    5  H15 UNL     1      26.090   4.190  51.381  1.00  0.00     0.170 HD
ENDROOT
BRANCH   1   6
HETATM    6  C4  UNL     1      22.184   3.598  50.759  1.00  0.00     0.128 C 
BRANCH   6   7
HETATM    7  C3  UNL     1      21.154   4.323  51.549  1.00  0.00     0.020 C 
BRANCH   7   8
HETATM    8  C2  UNL     1      20.188   3.297  52.108  1.00  0.00    -0.003 C 
HETATM    9  C1  UNL     1      19.983   2.110  51.227  1.00  0.00     0.005 C 
ENDBRANCH   7   8
ENDBRANCH   6   7
ENDBRANCH   1   6
BRANCH   1  10
HETATM   10  C5  UNL     1      23.856   3.537  52.576  1.00  0.00     0.169 C 
BRANCH  10  11
HETATM   11  C6  UNL     1      24.113   2.106  52.894  1.00  0.00    -0.004 A 
HETATM   12  C7  UNL     1      23.087   1.215  53.171  1.00  0.00     0.030 A 
HETATM   13  C8  UNL     1      23.411  -0.099  53.457  1.00  0.00     0.013 A 
HETATM   14 BR1  UNL     1      21.964  -1.266  53.827  1.00  0.00    -0.051 Br
HETATM   15  C9  UNL     1      24.727  -0.486  53.461  1.00  0.00     0.041 A 
HETATM   16  C10 UNL     1      25.772   0.377  53.190  1.00  0.00     0.045 A 
HETATM   17 BR2  UNL     1      27.584  -0.205  53.207  1.00  0.00    -0.048 Br
HETATM   18  C11 UNL     1      25.436   1.700  52.903  1.00  0.00     0.091 A 
BRANCH  18  19
HETATM   19  O1  UNL     1      26.468   2.575  52.629  1.00  0.00    -0.359 OA
HETATM   20  H14 UNL     1      26.666   2.957  51.718  1.00  0.00     0.217 HD
ENDBRANCH  18  19
ENDBRANCH  10  11
ENDBRANCH   1  10
BRANCH   4  21
HETATM   21  C13 UNL     1      26.843   4.723  49.439  1.00  0.00     0.130 C 
HETATM   22  C14 UNL     1      27.302   5.811  48.898  1.00  0.00     0.090 A 
HETATM   23  C15 UNL     1      28.376   5.903  47.888  1.00  0.00     0.039 A 
HETATM   24  O3  UNL     1      26.768   7.033  49.268  1.00  0.00    -0.321 OA
HETATM   25  C16 UNL     1      28.714   7.098  47.447  1.00  0.00     0.005 A 
HETATM   26  C17 UNL     1      28.118   8.339  47.873  1.00  0.00     0.025 A 
HETATM   27  C18 UNL     1      27.165   8.259  48.771  1.00  0.00     0.142 A 
ENDBRANCH   4  21
TORSDOF 7
ENDMDL
MODEL 9
REMARK VINA RESULT:      -7.0      3.514      5.635
REMARK  7 active torsions:
REMARK  status: ('A' for Active; 'I' for Inactive)
REMARK    1  A    between atoms: C2_2  and  C3_3 
REMARK    2  A    between atoms: C3_3  and  C4_4 
REMARK    3  A    between atoms: C4_4  and  N1_5 
REMARK    4  A    between atoms: N1_5  and  C5_6 
REMARK       I    between atoms: N1_5  and  C12_16 
REMARK    5  A    between atoms: C5_6  and  C6_7 
REMARK    6  A    between atoms: C11_14  and  O1_15 
REMARK       I    between atoms: C12_16  and  N2_18 
REMARK    7  A    between atoms: N2_18  and  C13_19 
ROOT
HETATM    1  N1  UNL     1      24.078   4.233  50.984  1.00  0.00    -0.330 N 
HETATM    2  C12 UNL     1      24.710   3.172  51.697  1.00  0.00     0.322 C 
HETATM    3  O2  UNL     1      24.495   3.298  52.927  1.00  0.00    -0.247 OA
HETATM    4  N2  UNL     1      25.472   2.109  51.165  1.00  0.00    -0.316 N 
HETATM    5  H15 UNL     1      25.499   2.233  50.134  1.00  0.00     0.170 HD
ENDROOT
BRANCH   1   6
HETATM    6  C4  UNL     1      23.356   5.198  51.748  1.00  0.00     0.128 C 
BRANCH   6   7
HETATM    7  C3  UNL     1      21.887   5.249  51.526  1.00  0.00     0.020 C 
BRANCH   7   8
HETATM    8  C2  UNL     1      21.545   6.620  50.977  1.00  0.00    -0.003 C 
HETATM    9  C1  UNL     1      20.956   6.598  49.606  1.00  0.00     0.005 C 
ENDBRANCH   7   8
ENDBRANCH   6   7
ENDBRANCH   1   6
BRANCH   1  10
HETATM   10  C5  UNL     1      24.129   4.384  49.549  1.00  0.00     0.169 C 
BRANCH  10  11
HETATM   11  C6  UNL     1      25.044   5.473  49.107  1.00  0.00    -0.004 A 
HETATM   12  C7  UNL     1      24.600   6.769  48.892  1.00  0.00     0.030 A 
HETATM   13  C8  UNL     1      25.515   7.722  48.483  1.00  0.00     0.013 A 
HETATM   14 BR1  UNL     1      24.846   9.473  48.206  1.00  0.00    -0.051 Br
HETATM   15  C9  UNL     1      26.828   7.366  48.300  1.00  0.00     0.041 A 
HETATM   16  C10 UNL     1      27.301   6.084  48.506  1.00  0.00     0.045 A 
HETATM   17 BR2  UNL     1      29.132   5.635  48.240  1.00  0.00    -0.048 Br
HETATM   18  C11 UNL     1      26.371   5.129  48.919  1.00  0.00     0.091 A 
BRANCH  18  19
HETATM   19  O1  UNL     1      26.828   3.843  49.129  1.00  0.00    -0.359 OA
HETATM   20  H14 UNL     1      26.516   3.035  48.614  1.00  0.00     0.217 HD
ENDBRANCH  18  19
ENDBRANCH  10  11
ENDBRANCH   1  10
BRANCH   4  21
HETATM   21  C13 UNL     1      26.102   1.056  51.828  1.00  0.00     0.130 C 
HETATM   22  C14 UNL     1      27.108   0.882  52.632  1.00  0.00     0.090 A 
HETATM   23  C15 UNL     1      27.564  -0.403  53.200  1.00  0.00     0.039 A 
HETATM   24  O3  UNL     1      27.860   1.974  53.027  1.00  0.00    -0.321 OA
HETATM   25  C16 UNL     1      28.609  -0.392  54.003  1.00  0.00     0.005 A 
HETATM   26  C17 UNL     1      29.354   0.783  54.379  1.00  0.00     0.025 A 
HETATM   27  C18 UNL     1      28.950   1.925  53.876  1.00  0.00     0.142 A 
ENDBRANCH   4  21
TORSDOF 7
ENDMDL
