MODEL 1
REMARK VINA RESULT:      -7.5      0.000      0.000
REMARK  2 active torsions:
REMARK  status: ('A' for Active; 'I' for Inactive)
REMARK    1  A    between atoms: C2_2  and  C3_3 
REMARK    2  A    between atoms: C14_19  and  P1_20 
ROOT
HETATM    1  C3  UNL     1      21.855   0.147  53.533  1.00  0.00    -0.058 C 
HETATM    2  C4  UNL     1      20.594  -0.024  53.344  1.00  0.00     0.007 C 
HETATM    3  C5  UNL     1      20.101   1.305  52.798  1.00  0.00    -0.002 C 
HETATM    4  C6  UNL     1      20.633   2.540  52.551  1.00  0.00     0.003 C 
HETATM    5  C7  UNL     1      21.119   3.903  52.250  1.00  0.00     0.303 C 
HETATM    6  N1  UNL     1      22.290   4.060  51.454  1.00  0.00     0.125 N 
HETATM    7  C8  UNL     1      22.901   5.295  52.038  1.00  0.00     0.415 C 
HETATM    8  N2  UNL     1      24.168   5.528  51.457  1.00  0.00    -0.285 N 
HETATM    9  N3  UNL     1      24.071   5.802  50.069  1.00  0.00    -0.172 NA
HETATM   10  C9  UNL     1      23.140   5.159  49.441  1.00  0.00     0.132 C 
HETATM   11  S1  UNL     1      22.347   4.886  47.814  1.00  0.00    -0.082 SA
HETATM   12  C10 UNL     1      22.560   3.072  47.945  1.00  0.00     0.057 C 
HETATM   13  C11 UNL     1      22.446   2.902  49.289  1.00  0.00    -0.026 C 
HETATM   14  C12 UNL     1      22.516   1.696  50.137  1.00  0.00     0.121 C 
HETATM   15  C13 UNL     1      23.635   1.680  51.116  1.00  0.00     0.164 C 
HETATM   16  O1  UNL     1      24.426   2.361  50.373  1.00  0.00    -0.292 OA
HETATM   17  C14 UNL     1      23.923   1.128  52.465  1.00  0.00     0.012 C 
HETATM   18  C16 UNL     1      23.248   0.496  53.464  1.00  0.00     0.022 C 
HETATM   19  C17 UNL     1      22.170   4.165  50.057  1.00  0.00     0.315 C 
HETATM   20  H13 UNL     1      25.086   5.508  51.963  1.00  0.00     0.184 HD
ENDROOT
BRANCH  17  21
HETATM   21  P1  UNL     1      25.671   1.405  52.823  1.00  0.00    -0.095 P 
HETATM   22  C15 UNL     1      26.771   0.071  52.213  1.00  0.00     0.046 C 
HETATM   23  H17 UNL     1      25.900   1.800  54.182  1.00  0.00     0.062 HD
ENDBRANCH  17  21
BRANCH   1  24
HETATM   24  C2  UNL     1      21.739  -1.246  54.033  1.00  0.00     0.034 C 
HETATM   25  C1  UNL     1      22.543  -1.579  55.254  1.00  0.00     0.010 C 
ENDBRANCH   1  24
TORSDOF 2
ENDMDL
MODEL 2
REMARK VINA RESULT:      -7.0      3.277      6.150
REMARK  2 active torsions:
REMARK  status: ('A' for Active; 'I' for Inactive)
REMARK    1  A    between atoms: C2_2  and  C3_3 
REMARK    2  A    between atoms: C14_19  and  P1_20 
ROOT
HETATM    1  C3  UNL     1      26.371   5.544  48.997  1.00  0.00    -0.058 C 
HETATM    2  C4  UNL     1      27.245   4.602  48.968  1.00  0.00     0.007 C 
HETATM    3  C5  UNL     1      26.686   3.527  49.883  1.00  0.00    -0.002 C 
HETATM    4  C6  UNL     1      25.602   3.380  50.702  1.00  0.00     0.003 C 
HETATM    5  C7  UNL     1      24.461   3.130  51.610  1.00  0.00     0.303 C 
HETATM    6  N1  UNL     1      23.137   3.351  51.132  1.00  0.00     0.125 N 
HETATM    7  C8  UNL     1      22.435   3.818  52.368  1.00  0.00     0.415 C 
HETATM    8  N2  UNL     1      21.120   4.230  52.051  1.00  0.00    -0.285 N 
HETATM    9  N3  UNL     1      20.328   3.152  51.579  1.00  0.00    -0.172 NA
HETATM   10  C9  UNL     1      20.959   2.270  50.870  1.00  0.00     0.132 C 
HETATM   11  S1  UNL     1      20.791   0.707  49.933  1.00  0.00    -0.082 SA
HETATM   12  C10 UNL     1      21.556   1.447  48.443  1.00  0.00     0.057 C 
HETATM   13  C11 UNL     1      22.425   2.322  49.015  1.00  0.00    -0.026 C 
HETATM   14  C12 UNL     1      23.386   3.278  48.430  1.00  0.00     0.121 C 
HETATM   15  C13 UNL     1      23.116   4.707  48.735  1.00  0.00     0.164 C 
HETATM   16  O1  UNL     1      21.845   4.558  48.789  1.00  0.00    -0.292 OA
HETATM   17  C14 UNL     1      23.882   5.967  48.921  1.00  0.00     0.012 C 
HETATM   18  C16 UNL     1      25.182   6.354  49.021  1.00  0.00     0.022 C 
HETATM   19  C17 UNL     1      22.436   2.299  50.518  1.00  0.00     0.315 C 
HETATM   20  H13 UNL     1      20.745   5.205  52.142  1.00  0.00     0.184 HD
ENDROOT
BRANCH  17  21
HETATM   21  P1  UNL     1      22.701   7.327  49.046  1.00  0.00    -0.095 P 
HETATM   22  C15 UNL     1      21.883   7.448  50.682  1.00  0.00     0.046 C 
HETATM   23  H17 UNL     1      21.814   7.393  47.922  1.00  0.00     0.062 HD
ENDBRANCH  17  21
BRANCH   1  24
HETATM   24  C2  UNL     1      27.368   6.190  48.107  1.00  0.00     0.034 C 
HETATM   25  C1  UNL     1      28.786   5.730  48.260  1.00  0.00     0.010 C 
ENDBRANCH   1  24
TORSDOF 2
ENDMDL
MODEL 3
REMARK VINA RESULT:      -7.0      2.085      4.389
REMARK  2 active torsions:
REMARK  status: ('A' for Active; 'I' for Inactive)
REMARK    1  A    between atoms: C2_2  and  C3_3 
REMARK    2  A    between atoms: C14_19  and  P1_20 
ROOT
HETATM    1  C3  UNL     1      26.523   0.719  52.957  1.00  0.00    -0.058 C 
HETATM    2  C4  UNL     1      27.525   1.520  52.878  1.00  0.00     0.007 C 
HETATM    3  C5  UNL     1      27.167   2.478  51.755  1.00  0.00    -0.002 C 
HETATM    4  C6  UNL     1      26.149   2.622  50.855  1.00  0.00     0.003 C 
HETATM    5  C7  UNL     1      25.094   2.858  49.846  1.00  0.00     0.303 C 
HETATM    6  N1  UNL     1      23.734   2.913  50.267  1.00  0.00     0.125 N 
HETATM    7  C8  UNL     1      23.019   2.330  49.090  1.00  0.00     0.415 C 
HETATM    8  N2  UNL     1      21.647   2.169  49.388  1.00  0.00    -0.285 N 
HETATM    9  N3  UNL     1      21.006   3.414  49.613  1.00  0.00    -0.172 NA
HETATM   10  C9  UNL     1      21.731   4.314  50.195  1.00  0.00     0.132 C 
HETATM   11  S1  UNL     1      21.760   6.030  50.833  1.00  0.00    -0.082 SA
HETATM   12  C10 UNL     1      22.349   5.475  52.475  1.00  0.00     0.057 C 
HETATM   13  C11 UNL     1      23.101   4.399  52.123  1.00  0.00    -0.026 C 
HETATM   14  C12 UNL     1      23.887   3.442  52.926  1.00  0.00     0.121 C 
HETATM   15  C13 UNL     1      23.421   2.032  52.859  1.00  0.00     0.164 C 
HETATM   16  O1  UNL     1      22.188   2.343  52.697  1.00  0.00    -0.292 OA
HETATM   17  C14 UNL     1      23.998   0.666  52.945  1.00  0.00     0.012 C 
HETATM   18  C16 UNL     1      25.230   0.091  52.999  1.00  0.00     0.022 C 
HETATM   19  C17 UNL     1      23.174   4.146  50.642  1.00  0.00     0.315 C 
HETATM   20  H13 UNL     1      21.136   1.256  49.444  1.00  0.00     0.184 HD
ENDROOT
BRANCH  17  21
HETATM   21  P1  UNL     1      22.635  -0.518  52.984  1.00  0.00    -0.095 P 
HETATM   22  C15 UNL     1      21.878  -0.719  54.642  1.00  0.00     0.046 C 
HETATM   23  H17 UNL     1      22.949  -1.744  52.312  1.00  0.00     0.062 HD
ENDBRANCH  17  21
BRANCH   1  24
HETATM   24  C2  UNL     1      27.378   0.115  54.010  1.00  0.00     0.034 C 
HETATM   25  C1  UNL     1      28.658  -0.512  53.542  1.00  0.00     0.010 C 
ENDBRANCH   1  24
TORSDOF 2
ENDMDL
MODEL 4
REMARK VINA RESULT:      -6.8      2.421      3.946
REMARK  2 active torsions:
REMARK  status: ('A' for Active; 'I' for Inactive)
REMARK    1  A    between atoms: C2_2  and  C3_3 
REMARK    2  A    between atoms: C14_19  and  P1_20 
ROOT
HETATM    1  C3  UNL     1      21.345   0.955  53.127  1.00  0.00    -0.058 C 
HETATM    2  C4  UNL     1      22.461   0.504  53.578  1.00  0.00     0.007 C 
HETATM    3  C5  UNL     1      23.493   0.916  52.543  1.00  0.00    -0.002 C 
HETATM    4  C6  UNL     1      23.489   1.539  51.326  1.00  0.00     0.003 C 
HETATM    5  C7  UNL     1      23.585   2.203  50.008  1.00  0.00     0.303 C 
HETATM    6  N1  UNL     1      22.959   3.470  49.826  1.00  0.00     0.125 N 
HETATM    7  C8  UNL     1      22.536   3.404  48.392  1.00  0.00     0.415 C 
HETATM    8  N2  UNL     1      21.757   4.538  48.066  1.00  0.00    -0.285 N 
HETATM    9  N3  UNL     1      22.505   5.739  48.161  1.00  0.00    -0.172 NA
HETATM   10  C9  UNL     1      23.391   5.767  49.105  1.00  0.00     0.132 C 
HETATM   11  S1  UNL     1      24.685   6.778  49.912  1.00  0.00    -0.082 SA
HETATM   12  C10 UNL     1      23.933   6.535  51.563  1.00  0.00     0.057 C 
HETATM   13  C11 UNL     1      23.413   5.287  51.421  1.00  0.00    -0.026 C 
HETATM   14  C12 UNL     1      22.652   4.427  52.348  1.00  0.00     0.121 C 
HETATM   15  C13 UNL     1      21.270   4.097  51.910  1.00  0.00     0.164 C 
HETATM   16  O1  UNL     1      21.097   5.205  51.290  1.00  0.00    -0.292 OA
HETATM   17  C14 UNL     1      20.295   2.985  52.052  1.00  0.00     0.012 C 
HETATM   18  C16 UNL     1      20.274   1.716  52.542  1.00  0.00     0.022 C 
HETATM   19  C17 UNL     1      23.683   4.646  50.088  1.00  0.00     0.315 C 
HETATM   20  H13 UNL     1      20.747   4.526  47.785  1.00  0.00     0.184 HD
ENDROOT
BRANCH  17  21
HETATM   21  P1  UNL     1      18.718   3.531  51.364  1.00  0.00    -0.095 P 
HETATM   22  C15 UNL     1      18.502   3.115  49.591  1.00  0.00     0.046 C 
HETATM   23  H17 UNL     1      18.405   4.888  51.707  1.00  0.00     0.062 HD
ENDBRANCH  17  21
BRANCH   1  24
HETATM   24  C2  UNL     1      20.839   0.287  54.352  1.00  0.00     0.034 C 
HETATM   25  C1  UNL     1      21.304  -1.120  54.578  1.00  0.00     0.010 C 
ENDBRANCH   1  24
TORSDOF 2
ENDMDL
MODEL 5
REMARK VINA RESULT:      -6.4     11.163     12.803
REMARK  2 active torsions:
REMARK  status: ('A' for Active; 'I' for Inactive)
REMARK    1  A    between atoms: C2_2  and  C3_3 
REMARK    2  A    between atoms: C14_19  and  P1_20 
ROOT
HETATM    1  C3  UNL     1      34.453   4.389  46.817  1.00  0.00    -0.058 C 
HETATM    2  C4  UNL     1      34.702   4.069  48.037  1.00  0.00     0.007 C 
HETATM    3  C5  UNL     1      34.795   5.394  48.774  1.00  0.00    -0.002 C 
HETATM    4  C6  UNL     1      34.745   6.720  48.448  1.00  0.00     0.003 C 
HETATM    5  C7  UNL     1      34.704   8.176  48.193  1.00  0.00     0.303 C 
HETATM    6  N1  UNL     1      33.616   8.717  47.449  1.00  0.00     0.125 N 
HETATM    7  C8  UNL     1      34.269   9.847  46.719  1.00  0.00     0.415 C 
HETATM    8  N2  UNL     1      33.359  10.422  45.803  1.00  0.00    -0.285 N 
HETATM    9  N3  UNL     1      32.252  11.017  46.462  1.00  0.00    -0.172 NA
HETATM   10  C9  UNL     1      31.853  10.410  47.533  1.00  0.00     0.132 C 
HETATM   11  S1  UNL     1      30.632  10.430  48.897  1.00  0.00    -0.082 SA
HETATM   12  C10 UNL     1      30.133   8.701  48.557  1.00  0.00     0.057 C 
HETATM   13  C11 UNL     1      31.309   8.182  48.114  1.00  0.00    -0.026 C 
HETATM   14  C12 UNL     1      31.674   6.829  47.650  1.00  0.00     0.121 C 
HETATM   15  C13 UNL     1      32.118   6.750  46.233  1.00  0.00     0.164 C 
HETATM   16  O1  UNL     1      31.373   7.715  45.841  1.00  0.00    -0.292 OA
HETATM   17  C14 UNL     1      33.038   5.931  45.402  1.00  0.00     0.012 C 
HETATM   18  C16 UNL     1      33.980   4.967  45.587  1.00  0.00     0.022 C 
HETATM   19  C17 UNL     1      32.460   9.149  48.124  1.00  0.00     0.315 C 
HETATM   20  H13 UNL     1      33.460  10.425  44.760  1.00  0.00     0.184 HD
ENDROOT
BRANCH  17  21
HETATM   21  P1  UNL     1      32.789   6.389  43.673  1.00  0.00    -0.095 P 
HETATM   22  C15 UNL     1      33.763   7.853  43.150  1.00  0.00     0.046 C 
HETATM   23  H17 UNL     1      31.405   6.424  43.304  1.00  0.00     0.062 HD
ENDBRANCH  17  21
BRANCH   1  24
HETATM   24  C2  UNL     1      34.524   2.915  46.652  1.00  0.00     0.034 C 
HETATM   25  C1  UNL     1      33.305   2.145  47.060  1.00  0.00     0.010 C 
ENDBRANCH   1  24
TORSDOF 2
ENDMDL
MODEL 6
REMARK VINA RESULT:      -6.3      7.543      9.542
REMARK  2 active torsions:
REMARK  status: ('A' for Active; 'I' for Inactive)
REMARK    1  A    between atoms: C2_2  and  C3_3 
REMARK    2  A    between atoms: C14_19  and  P1_20 
ROOT
HETATM    1  C3  UNL     1      27.846   5.718  48.730  1.00  0.00    -0.058 C 
HETATM    2  C4  UNL     1      26.596   5.932  48.942  1.00  0.00     0.007 C 
HETATM    3  C5  UNL     1      26.487   7.435  49.130  1.00  0.00    -0.002 C 
HETATM    4  C6  UNL     1      27.345   8.497  49.185  1.00  0.00     0.003 C 
HETATM    5  C7  UNL     1      28.194   9.706  49.257  1.00  0.00     0.303 C 
HETATM    6  N1  UNL     1      29.141   9.948  48.221  1.00  0.00     0.125 N 
HETATM    7  C8  UNL     1      30.254  10.615  48.966  1.00  0.00     0.415 C 
HETATM    8  N2  UNL     1      31.363  10.805  48.110  1.00  0.00    -0.285 N 
HETATM    9  N3  UNL     1      31.064  11.694  47.046  1.00  0.00    -0.172 NA
HETATM   10  C9  UNL     1      29.854  11.627  46.592  1.00  0.00     0.132 C 
HETATM   11  S1  UNL     1      28.678  12.305  45.364  1.00  0.00    -0.082 SA
HETATM   12  C10 UNL     1      28.274  10.633  44.737  1.00  0.00     0.057 C 
HETATM   13  C11 UNL     1      28.407   9.899  45.874  1.00  0.00    -0.026 C 
HETATM   14  C12 UNL     1      28.240   8.457  46.138  1.00  0.00     0.121 C 
HETATM   15  C13 UNL     1      29.469   7.753  46.589  1.00  0.00     0.164 C 
HETATM   16  O1  UNL     1      30.263   8.507  45.923  1.00  0.00    -0.292 OA
HETATM   17  C14 UNL     1      29.837   6.600  47.450  1.00  0.00     0.012 C 
HETATM   18  C16 UNL     1      29.223   5.747  48.314  1.00  0.00     0.022 C 
HETATM   19  C17 UNL     1      28.761  10.700  47.096  1.00  0.00     0.315 C 
HETATM   20  H13 UNL     1      32.304  10.357  48.221  1.00  0.00     0.184 HD
ENDROOT
BRANCH  17  21
HETATM   21  P1  UNL     1      31.606   6.295  47.254  1.00  0.00    -0.095 P 
HETATM   22  C15 UNL     1      32.194   4.780  48.104  1.00  0.00     0.046 C 
HETATM   23  H17 UNL     1      32.398   7.466  47.493  1.00  0.00     0.062 HD
ENDBRANCH  17  21
BRANCH   1  24
HETATM   24  C2  UNL     1      27.368   4.313  48.690  1.00  0.00     0.034 C 
HETATM   25  C1  UNL     1      26.435   3.902  49.789  1.00  0.00     0.010 C 
ENDBRANCH   1  24
TORSDOF 2
ENDMDL
MODEL 7
REMARK VINA RESULT:      -6.3      8.768     11.212
REMARK  2 active torsions:
REMARK  status: ('A' for Active; 'I' for Inactive)
REMARK    1  A    between atoms: C2_2  and  C3_3 
REMARK    2  A    between atoms: C14_19  and  P1_20 
ROOT
HETATM    1  C3  UNL     1      32.609   5.860  46.400  1.00  0.00    -0.058 C 
HETATM    2  C4  UNL     1      32.723   4.944  47.295  1.00  0.00     0.007 C 
HETATM    3  C5  UNL     1      32.295   5.612  48.590  1.00  0.00    -0.002 C 
HETATM    4  C6  UNL     1      31.918   6.863  48.988  1.00  0.00     0.003 C 
HETATM    5  C7  UNL     1      31.498   8.182  49.510  1.00  0.00     0.303 C 
HETATM    6  N1  UNL     1      30.446   8.883  48.852  1.00  0.00     0.125 N 
HETATM    7  C8  UNL     1      30.858  10.309  49.041  1.00  0.00     0.415 C 
HETATM    8  N2  UNL     1      29.994  11.162  48.317  1.00  0.00    -0.285 N 
HETATM    9  N3  UNL     1      28.664  11.108  48.808  1.00  0.00    -0.172 NA
HETATM   10  C9  UNL     1      28.280   9.949  49.238  1.00  0.00     0.132 C 
HETATM   11  S1  UNL     1      26.888   9.012  49.970  1.00  0.00    -0.082 SA
HETATM   12  C10 UNL     1      26.983   7.731  48.664  1.00  0.00     0.057 C 
HETATM   13  C11 UNL     1      28.317   7.735  48.406  1.00  0.00    -0.026 C 
HETATM   14  C12 UNL     1      29.138   6.957  47.456  1.00  0.00     0.121 C 
HETATM   15  C13 UNL     1      29.826   7.762  46.413  1.00  0.00     0.164 C 
HETATM   16  O1  UNL     1      28.911   8.657  46.360  1.00  0.00    -0.292 OA
HETATM   17  C14 UNL     1      31.075   7.705  45.611  1.00  0.00     0.012 C 
HETATM   18  C16 UNL     1      32.210   6.957  45.560  1.00  0.00     0.022 C 
HETATM   19  C17 UNL     1      29.116   8.681  49.259  1.00  0.00     0.315 C 
HETATM   20  H13 UNL     1      30.270  11.772  47.510  1.00  0.00     0.184 HD
ENDROOT
BRANCH  17  21
HETATM   21  P1  UNL     1      31.010   9.022  44.378  1.00  0.00    -0.095 P 
HETATM   22  C15 UNL     1      31.563  10.653  45.008  1.00  0.00     0.046 C 
HETATM   23  H17 UNL     1      29.771   9.044  43.657  1.00  0.00     0.062 HD
ENDBRANCH  17  21
BRANCH   1  24
HETATM   24  C2  UNL     1      33.136   4.770  45.541  1.00  0.00     0.034 C 
HETATM   25  C1  UNL     1      34.490   4.239  45.904  1.00  0.00     0.010 C 
ENDBRANCH   1  24
TORSDOF 2
ENDMDL
MODEL 8
REMARK VINA RESULT:      -6.2      7.354      9.886
REMARK  2 active torsions:
REMARK  status: ('A' for Active; 'I' for Inactive)
REMARK    1  A    between atoms: C2_2  and  C3_3 
REMARK    2  A    between atoms: C14_19  and  P1_20 
ROOT
HETATM    1  C3  UNL     1      26.826   5.916  48.596  1.00  0.00    -0.058 C 
HETATM    2  C4  UNL     1      27.797   5.113  48.851  1.00  0.00     0.007 C 
HETATM    3  C5  UNL     1      28.982   5.684  48.093  1.00  0.00    -0.002 C 
HETATM    4  C6  UNL     1      29.208   6.721  47.232  1.00  0.00     0.003 C 
HETATM    5  C7  UNL     1      29.548   7.816  46.298  1.00  0.00     0.303 C 
HETATM    6  N1  UNL     1      29.173   9.150  46.629  1.00  0.00     0.125 N 
HETATM    7  C8  UNL     1      28.890   9.737  45.283  1.00  0.00     0.415 C 
HETATM    8  N2  UNL     1      28.356  11.038  45.425  1.00  0.00    -0.285 N 
HETATM    9  N3  UNL     1      29.288  11.931  46.014  1.00  0.00    -0.172 NA
HETATM   10  C9  UNL     1      30.066  11.409  46.907  1.00  0.00     0.132 C 
HETATM   11  S1  UNL     1      31.429  11.744  48.082  1.00  0.00    -0.082 SA
HETATM   12  C10 UNL     1      30.485  11.027  49.478  1.00  0.00     0.057 C 
HETATM   13  C11 UNL     1      29.774  10.065  48.832  1.00  0.00    -0.026 C 
HETATM   14  C12 UNL     1      28.786   9.080  49.316  1.00  0.00     0.121 C 
HETATM   15  C13 UNL     1      27.419   9.231  48.753  1.00  0.00     0.164 C 
HETATM   16  O1  UNL     1      27.503  10.503  48.629  1.00  0.00    -0.292 OA
HETATM   17  C14 UNL     1      26.257   8.370  48.412  1.00  0.00     0.012 C 
HETATM   18  C16 UNL     1      25.967   7.042  48.346  1.00  0.00     0.022 C 
HETATM   19  C17 UNL     1      30.060   9.959  47.360  1.00  0.00     0.315 C 
HETATM   20  H13 UNL     1      27.392  11.338  45.142  1.00  0.00     0.184 HD
ENDROOT
BRANCH  17  21
HETATM   21  P1  UNL     1      24.875   9.444  47.969  1.00  0.00    -0.095 P 
HETATM   22  C15 UNL     1      24.899   9.998  46.221  1.00  0.00     0.046 C 
HETATM   23  H17 UNL     1      24.656  10.487  48.928  1.00  0.00     0.062 HD
ENDBRANCH  17  21
BRANCH   1  24
HETATM   24  C2  UNL     1      26.092   4.937  49.436  1.00  0.00     0.034 C 
HETATM   25  C1  UNL     1      26.619   3.533  49.426  1.00  0.00     0.010 C 
ENDBRANCH   1  24
TORSDOF 2
ENDMDL
MODEL 9
REMARK VINA RESULT:      -6.1      2.954      4.560
REMARK  2 active torsions:
REMARK  status: ('A' for Active; 'I' for Inactive)
REMARK    1  A    between atoms: C2_2  and  C3_3 
REMARK    2  A    between atoms: C14_19  and  P1_20 
ROOT
HETATM    1  C3  UNL     1      19.423  -0.339  52.583  1.00  0.00    -0.058 C 
HETATM    2  C4  UNL     1      20.226  -0.668  53.531  1.00  0.00     0.007 C 
HETATM    3  C5  UNL     1      21.583  -0.151  53.085  1.00  0.00    -0.002 C 
HETATM    4  C6  UNL     1      22.101   0.464  51.980  1.00  0.00     0.003 C 
HETATM    5  C7  UNL     1      22.749   1.131  50.830  1.00  0.00     0.303 C 
HETATM    6  N1  UNL     1      22.172   2.324  50.307  1.00  0.00     0.125 N 
HETATM    7  C8  UNL     1      22.488   2.210  48.850  1.00  0.00     0.415 C 
HETATM    8  N2  UNL     1      21.858   3.254  48.135  1.00  0.00    -0.285 N 
HETATM    9  N3  UNL     1      22.358   4.528  48.509  1.00  0.00    -0.172 NA
HETATM   10  C9  UNL     1      22.681   4.652  49.756  1.00  0.00     0.132 C 
HETATM   11  S1  UNL     1      23.338   5.797  51.024  1.00  0.00    -0.082 SA
HETATM   12  C10 UNL     1      21.917   5.480  52.135  1.00  0.00     0.057 C 
HETATM   13  C11 UNL     1      21.645   4.183  51.830  1.00  0.00    -0.026 C 
HETATM   14  C12 UNL     1      20.617   3.250  52.332  1.00  0.00     0.121 C 
HETATM   15  C13 UNL     1      19.646   2.775  51.312  1.00  0.00     0.164 C 
HETATM   16  O1  UNL     1      19.688   3.856  50.626  1.00  0.00    -0.292 OA
HETATM   17  C14 UNL     1      18.828   1.567  51.035  1.00  0.00     0.012 C 
HETATM   18  C16 UNL     1      18.693   0.304  51.523  1.00  0.00     0.022 C 
HETATM   19  C17 UNL     1      22.573   3.571  50.818  1.00  0.00     0.315 C 
HETATM   20  H13 UNL     1      21.108   3.135  47.411  1.00  0.00     0.184 HD
ENDROOT
BRANCH  17  21
HETATM   21  P1  UNL     1      17.724   1.941  49.656  1.00  0.00    -0.095 P 
HETATM   22  C15 UNL     1      16.246   2.915  50.135  1.00  0.00     0.046 C 
HETATM   23  H17 UNL     1      17.451   0.794  48.840  1.00  0.00     0.062 HD
ENDBRANCH  17  21
BRANCH   1  24
HETATM   24  C2  UNL     1      18.458  -1.053  53.458  1.00  0.00     0.034 C 
HETATM   25  C1  UNL     1      17.174  -1.481  52.814  1.00  0.00     0.010 C 
ENDBRANCH   1  24
TORSDOF 2
ENDMDL
