MODEL 1
REMARK VINA RESULT:      -7.8      0.000      0.000
REMARK  7 active torsions:
REMARK  status: ('A' for Active; 'I' for Inactive)
REMARK    1  A    between atoms: O1_2  and  C2_3 
REMARK    2  A    between atoms: C5_6  and  C6_7 
REMARK    3  A    between atoms: N1_8  and  C7_9 
REMARK    4  A    between atoms: N2_10  and  C8_11 
REMARK    5  A    between atoms: C8_11  and  N3_12 
REMARK    6  A    between atoms: N3_12  and  C9_13 
REMARK    7  A    between atoms: C13_17  and  N4_18 
REMARK       I    between atoms: N4_18  and  C14_19 
ROOT
HETATM    1  N3  UNL     1      22.922   2.764  52.008  1.00  0.00     0.114 N 
HETATM    2  H11 UNL     1      23.471   3.619  51.755  1.00  0.00     0.319 HD
ENDROOT
BRANCH   1   3
HETATM    3  C8  UNL     1      22.092   2.446  50.889  1.00  0.00     0.420 C 
BRANCH   3   4
HETATM    4  N2  UNL     1      23.005   2.186  49.769  1.00  0.00    -0.253 NA
HETATM    5  C7  UNL     1      23.686   3.126  49.203  1.00  0.00     0.228 C 
BRANCH   5   6
HETATM    6  N1  UNL     1      23.549   4.449  49.674  1.00  0.00    -0.254 NA
HETATM    7  C6  UNL     1      24.415   5.364  49.584  1.00  0.00     0.128 C 
BRANCH   7   8
HETATM    8  C5  UNL     1      25.753   5.575  49.070  1.00  0.00     0.004 A 
HETATM    9  C4  UNL     1      26.127   6.855  48.437  1.00  0.00     0.073 A 
HETATM   10  C3  UNL     1      27.552   6.599  48.084  1.00  0.00     0.018 A 
HETATM   11  C2  UNL     1      27.875   5.375  48.473  1.00  0.00     0.103 A 
HETATM   12  C18 UNL     1      26.745   4.704  49.103  1.00  0.00     0.157 A 
HETATM   13  F1  UNL     1      26.780   3.447  49.598  1.00  0.00    -0.203 F 
BRANCH  11  14
HETATM   14  O1  UNL     1      29.185   4.916  48.238  1.00  0.00    -0.353 OA
HETATM   15  C1  UNL     1      30.304   5.803  48.373  1.00  0.00     0.210 C 
ENDBRANCH  11  14
ENDBRANCH   7   8
ENDBRANCH   5   6
ENDBRANCH   3   4
ENDBRANCH   1   3
BRANCH   1  16
HETATM   16  C9  UNL     1      23.898   1.758  52.351  1.00  0.00     0.268 C 
HETATM   17  C10 UNL     1      23.245   0.640  53.082  1.00  0.00     0.012 C 
HETATM   18  C11 UNL     1      23.644  -0.347  53.868  1.00  0.00     0.001 C 
HETATM   19  C12 UNL     1      25.058  -0.573  54.233  1.00  0.00     0.029 C 
HETATM   20  C13 UNL     1      26.044   0.323  54.243  1.00  0.00     0.034 C 
HETATM   21  C16 UNL     1      25.935   1.735  53.890  1.00  0.00     0.028 C 
HETATM   22  C17 UNL     1      25.044   2.321  53.107  1.00  0.00     0.014 C 
BRANCH  20  23
HETATM   23  N4  UNL     1      27.308  -0.185  54.642  1.00  0.00    -0.328 N 
HETATM   24  C14 UNL     1      28.115  -0.564  53.556  1.00  0.00     0.218 C 
HETATM   25  C15 UNL     1      29.478  -1.123  53.703  1.00  0.00     0.117 C 
HETATM   26  O2  UNL     1      27.623  -0.406  52.413  1.00  0.00    -0.274 OA
HETATM   27  H16 UNL     1      27.652  -0.289  55.619  1.00  0.00     0.169 HD
ENDBRANCH  20  23
ENDBRANCH   1  16
TORSDOF 7
ENDMDL
MODEL 2
REMARK VINA RESULT:      -7.8      1.482      1.871
REMARK  7 active torsions:
REMARK  status: ('A' for Active; 'I' for Inactive)
REMARK    1  A    between atoms: O1_2  and  C2_3 
REMARK    2  A    between atoms: C5_6  and  C6_7 
REMARK    3  A    between atoms: N1_8  and  C7_9 
REMARK    4  A    between atoms: N2_10  and  C8_11 
REMARK    5  A    between atoms: C8_11  and  N3_12 
REMARK    6  A    between atoms: N3_12  and  C9_13 
REMARK    7  A    between atoms: C13_17  and  N4_18 
REMARK       I    between atoms: N4_18  and  C14_19 
ROOT
HETATM    1  N3  UNL     1      22.739   2.187  51.905  1.00  0.00     0.114 N 
HETATM    2  H11 UNL     1      22.058   2.223  52.699  1.00  0.00     0.319 HD
ENDROOT
BRANCH   1   3
HETATM    3  C8  UNL     1      23.142   3.532  51.629  1.00  0.00     0.420 C 
BRANCH   3   4
HETATM    4  N2  UNL     1      22.885   3.745  50.199  1.00  0.00    -0.253 NA
HETATM    5  C7  UNL     1      23.777   3.503  49.296  1.00  0.00     0.228 C 
BRANCH   5   6
HETATM    6  N1  UNL     1      25.041   3.018  49.694  1.00  0.00    -0.254 NA
HETATM    7  C6  UNL     1      26.130   3.656  49.648  1.00  0.00     0.128 C 
BRANCH   7   8
HETATM    8  C5  UNL     1      26.636   4.956  49.258  1.00  0.00     0.004 A 
HETATM    9  C4  UNL     1      27.848   5.075  48.424  1.00  0.00     0.073 A 
HETATM   10  C3  UNL     1      27.966   6.555  48.292  1.00  0.00     0.018 A 
HETATM   11  C2  UNL     1      26.970   7.123  48.955  1.00  0.00     0.103 A 
HETATM   12  C18 UNL     1      26.110   6.124  49.578  1.00  0.00     0.157 A 
HETATM   13  F1  UNL     1      25.015   6.409  50.317  1.00  0.00    -0.203 F 
BRANCH  11  14
HETATM   14  O1  UNL     1      26.882   8.528  48.967  1.00  0.00    -0.353 OA
HETATM   15  C1  UNL     1      27.196   9.269  50.154  1.00  0.00     0.210 C 
ENDBRANCH  11  14
ENDBRANCH   7   8
ENDBRANCH   5   6
ENDBRANCH   3   4
ENDBRANCH   1   3
BRANCH   1  16
HETATM   16  C9  UNL     1      23.800   1.309  52.334  1.00  0.00     0.268 C 
HETATM   17  C10 UNL     1      23.254   0.237  53.208  1.00  0.00     0.012 C 
HETATM   18  C11 UNL     1      23.748  -0.616  54.092  1.00  0.00     0.001 C 
HETATM   19  C12 UNL     1      25.182  -0.684  54.441  1.00  0.00     0.029 C 
HETATM   20  C13 UNL     1      26.091   0.283  54.320  1.00  0.00     0.034 C 
HETATM   21  C16 UNL     1      25.860   1.630  53.808  1.00  0.00     0.028 C 
HETATM   22  C17 UNL     1      24.910   2.046  52.987  1.00  0.00     0.014 C 
BRANCH  20  23
HETATM   23  N4  UNL     1      27.400  -0.073  54.739  1.00  0.00    -0.328 N 
HETATM   24  C14 UNL     1      28.223  -0.486  53.678  1.00  0.00     0.218 C 
HETATM   25  C15 UNL     1      29.632  -0.909  53.850  1.00  0.00     0.117 C 
HETATM   26  O2  UNL     1      27.705  -0.485  52.536  1.00  0.00    -0.274 OA
HETATM   27  H16 UNL     1      27.764  -0.050  55.714  1.00  0.00     0.169 HD
ENDBRANCH  20  23
ENDBRANCH   1  16
TORSDOF 7
ENDMDL
MODEL 3
REMARK VINA RESULT:      -7.4      3.070      3.658
REMARK  7 active torsions:
REMARK  status: ('A' for Active; 'I' for Inactive)
REMARK    1  A    between atoms: O1_2  and  C2_3 
REMARK    2  A    between atoms: C5_6  and  C6_7 
REMARK    3  A    between atoms: N1_8  and  C7_9 
REMARK    4  A    between atoms: N2_10  and  C8_11 
REMARK    5  A    between atoms: C8_11  and  N3_12 
REMARK    6  A    between atoms: N3_12  and  C9_13 
REMARK    7  A    between atoms: C13_17  and  N4_18 
REMARK       I    between atoms: N4_18  and  C14_19 
ROOT
HETATM    1  N3  UNL     1      20.933  -0.099  52.719  1.00  0.00     0.114 N 
HETATM    2  H11 UNL     1      20.221  -0.449  53.402  1.00  0.00     0.319 HD
ENDROOT
BRANCH   1   3
HETATM    3  C8  UNL     1      20.902   1.330  52.768  1.00  0.00     0.420 C 
BRANCH   3   4
HETATM    4  N2  UNL     1      19.907   1.746  51.772  1.00  0.00    -0.253 NA
HETATM    5  C7  UNL     1      20.124   1.654  50.501  1.00  0.00     0.228 C 
BRANCH   5   6
HETATM    6  N1  UNL     1      21.357   1.137  50.053  1.00  0.00    -0.254 NA
HETATM    7  C6  UNL     1      22.400   1.808  49.808  1.00  0.00     0.128 C 
BRANCH   7   8
HETATM    8  C5  UNL     1      22.864   3.180  49.829  1.00  0.00     0.004 A 
HETATM    9  C4  UNL     1      22.957   3.965  48.583  1.00  0.00     0.073 A 
HETATM   10  C3  UNL     1      23.465   5.268  49.098  1.00  0.00     0.018 A 
HETATM   11  C2  UNL     1      23.615   5.179  50.411  1.00  0.00     0.103 A 
HETATM   12  C18 UNL     1      23.238   3.858  50.898  1.00  0.00     0.157 A 
HETATM   13  F1  UNL     1      23.287   3.478  52.194  1.00  0.00    -0.203 F 
BRANCH  11  14
HETATM   14  O1  UNL     1      24.089   6.303  51.113  1.00  0.00    -0.353 OA
HETATM   15  C1  UNL     1      23.656   7.623  50.757  1.00  0.00     0.210 C 
ENDBRANCH  11  14
ENDBRANCH   7   8
ENDBRANCH   5   6
ENDBRANCH   3   4
ENDBRANCH   1   3
BRANCH   1  16
HETATM   16  C9  UNL     1      22.185  -0.696  53.115  1.00  0.00     0.268 C 
HETATM   17  C10 UNL     1      22.165  -1.014  54.567  1.00  0.00     0.012 C 
HETATM   18  C11 UNL     1      23.068  -1.267  55.501  1.00  0.00     0.001 C 
HETATM   19  C12 UNL     1      24.522  -1.291  55.238  1.00  0.00     0.029 C 
HETATM   20  C13 UNL     1      25.177  -0.675  54.254  1.00  0.00     0.034 C 
HETATM   21  C16 UNL     1      24.588   0.162  53.213  1.00  0.00     0.028 C 
HETATM   22  C17 UNL     1      23.350   0.147  52.748  1.00  0.00     0.014 C 
BRANCH  20  23
HETATM   23  N4  UNL     1      26.581  -0.880  54.252  1.00  0.00    -0.328 N 
HETATM   24  C14 UNL     1      27.300   0.237  54.709  1.00  0.00     0.218 C 
HETATM   25  C15 UNL     1      28.777   0.279  54.804  1.00  0.00     0.117 C 
HETATM   26  O2  UNL     1      26.622   1.237  55.046  1.00  0.00    -0.274 OA
HETATM   27  H16 UNL     1      27.080  -1.745  53.955  1.00  0.00     0.169 HD
ENDBRANCH  20  23
ENDBRANCH   1  16
TORSDOF 7
ENDMDL
MODEL 4
REMARK VINA RESULT:      -7.4      3.045      6.164
REMARK  7 active torsions:
REMARK  status: ('A' for Active; 'I' for Inactive)
REMARK    1  A    between atoms: O1_2  and  C2_3 
REMARK    2  A    between atoms: C5_6  and  C6_7 
REMARK    3  A    between atoms: N1_8  and  C7_9 
REMARK    4  A    between atoms: N2_10  and  C8_11 
REMARK    5  A    between atoms: C8_11  and  N3_12 
REMARK    6  A    between atoms: N3_12  and  C9_13 
REMARK    7  A    between atoms: C13_17  and  N4_18 
REMARK       I    between atoms: N4_18  and  C14_19 
ROOT
HETATM    1  N3  UNL     1      22.677   4.445  51.765  1.00  0.00     0.114 N 
HETATM    2  H11 UNL     1      22.587   5.383  52.221  1.00  0.00     0.319 HD
ENDROOT
BRANCH   1   3
HETATM    3  C8  UNL     1      22.229   4.586  50.414  1.00  0.00     0.420 C 
BRANCH   3   4
HETATM    4  N2  UNL     1      20.836   4.121  50.401  1.00  0.00    -0.253 NA
HETATM    5  C7  UNL     1      20.523   2.889  50.170  1.00  0.00     0.228 C 
BRANCH   5   6
HETATM    6  N1  UNL     1      21.552   1.956  49.923  1.00  0.00    -0.254 NA
HETATM    7  C6  UNL     1      21.836   0.956  50.641  1.00  0.00     0.128 C 
BRANCH   7   8
HETATM    8  C5  UNL     1      21.397   0.305  51.858  1.00  0.00     0.004 A 
HETATM    9  C4  UNL     1      19.965   0.248  52.210  1.00  0.00     0.073 A 
HETATM   10  C3  UNL     1      20.012  -0.495  53.501  1.00  0.00     0.018 A 
HETATM   11  C2  UNL     1      21.274  -0.781  53.783  1.00  0.00     0.103 A 
HETATM   12  C18 UNL     1      22.174  -0.281  52.750  1.00  0.00     0.157 A 
HETATM   13  F1  UNL     1      23.517  -0.428  52.769  1.00  0.00    -0.203 F 
BRANCH  11  14
HETATM   14  O1  UNL     1      21.557  -1.486  54.968  1.00  0.00    -0.353 OA
HETATM   15  C1  UNL     1      22.895  -1.543  55.481  1.00  0.00     0.210 C 
ENDBRANCH  11  14
ENDBRANCH   7   8
ENDBRANCH   5   6
ENDBRANCH   3   4
ENDBRANCH   1   3
BRANCH   1  16
HETATM   16  C9  UNL     1      24.061   4.066  51.913  1.00  0.00     0.268 C 
HETATM   17  C10 UNL     1      24.626   3.669  50.596  1.00  0.00     0.012 C 
HETATM   18  C11 UNL     1      25.675   2.979  50.178  1.00  0.00     0.001 C 
HETATM   19  C12 UNL     1      26.660   2.365  51.092  1.00  0.00     0.029 C 
HETATM   20  C13 UNL     1      26.473   2.010  52.363  1.00  0.00     0.034 C 
HETATM   21  C16 UNL     1      25.240   2.156  53.131  1.00  0.00     0.028 C 
HETATM   22  C17 UNL     1      24.247   3.009  52.938  1.00  0.00     0.014 C 
BRANCH  20  23
HETATM   23  N4  UNL     1      27.608   1.440  52.996  1.00  0.00    -0.328 N 
HETATM   24  C14 UNL     1      27.643   0.039  52.902  1.00  0.00     0.218 C 
HETATM   25  C15 UNL     1      28.722  -0.795  53.480  1.00  0.00     0.117 C 
HETATM   26  O2  UNL     1      26.693  -0.504  52.289  1.00  0.00    -0.274 OA
HETATM   27  H16 UNL     1      28.364   1.956  53.492  1.00  0.00     0.169 HD
ENDBRANCH  20  23
ENDBRANCH   1  16
TORSDOF 7
ENDMDL
MODEL 5
REMARK VINA RESULT:      -7.4      3.942      6.913
REMARK  7 active torsions:
REMARK  status: ('A' for Active; 'I' for Inactive)
REMARK    1  A    between atoms: O1_2  and  C2_3 
REMARK    2  A    between atoms: C5_6  and  C6_7 
REMARK    3  A    between atoms: N1_8  and  C7_9 
REMARK    4  A    between atoms: N2_10  and  C8_11 
REMARK    5  A    between atoms: C8_11  and  N3_12 
REMARK    6  A    between atoms: N3_12  and  C9_13 
REMARK    7  A    between atoms: C13_17  and  N4_18 
REMARK       I    between atoms: N4_18  and  C14_19 
ROOT
HETATM    1  N3  UNL     1      22.859   2.860  52.634  1.00  0.00     0.114 N 
HETATM    2  H11 UNL     1      23.145   3.294  53.542  1.00  0.00     0.319 HD
ENDROOT
BRANCH   1   3
HETATM    3  C8  UNL     1      22.799   3.908  51.662  1.00  0.00     0.420 C 
BRANCH   3   4
HETATM    4  N2  UNL     1      21.376   4.239  51.513  1.00  0.00    -0.253 NA
HETATM    5  C7  UNL     1      20.556   3.477  50.867  1.00  0.00     0.228 C 
BRANCH   5   6
HETATM    6  N1  UNL     1      21.041   2.287  50.284  1.00  0.00    -0.254 NA
HETATM    7  C6  UNL     1      20.497   1.150  50.355  1.00  0.00     0.128 C 
BRANCH   7   8
HETATM    8  C5  UNL     1      19.330   0.514  50.932  1.00  0.00     0.004 A 
HETATM    9  C4  UNL     1      18.025   0.565  50.245  1.00  0.00     0.073 A 
HETATM   10  C3  UNL     1      17.167  -0.202  51.193  1.00  0.00     0.018 A 
HETATM   11  C2  UNL     1      17.909  -0.593  52.218  1.00  0.00     0.103 A 
HETATM   12  C18 UNL     1      19.290  -0.148  52.073  1.00  0.00     0.157 A 
HETATM   13  F1  UNL     1      20.273  -0.401  52.965  1.00  0.00    -0.203 F 
BRANCH  11  14
HETATM   14  O1  UNL     1      17.301  -1.340  53.244  1.00  0.00    -0.353 OA
HETATM   15  C1  UNL     1      17.851  -2.598  53.657  1.00  0.00     0.210 C 
ENDBRANCH  11  14
ENDBRANCH   7   8
ENDBRANCH   5   6
ENDBRANCH   3   4
ENDBRANCH   1   3
BRANCH   1  16
HETATM   16  C9  UNL     1      23.836   1.833  52.363  1.00  0.00     0.268 C 
HETATM   17  C10 UNL     1      23.494   0.592  53.108  1.00  0.00     0.012 C 
HETATM   18  C11 UNL     1      24.136  -0.504  53.480  1.00  0.00     0.001 C 
HETATM   19  C12 UNL     1      25.560  -0.755  53.172  1.00  0.00     0.029 C 
HETATM   20  C13 UNL     1      26.503   0.150  52.912  1.00  0.00     0.034 C 
HETATM   21  C16 UNL     1      26.327   1.598  52.874  1.00  0.00     0.028 C 
HETATM   22  C17 UNL     1      25.221   2.286  52.646  1.00  0.00     0.014 C 
BRANCH  20  23
HETATM   23  N4  UNL     1      27.790  -0.389  52.652  1.00  0.00    -0.328 N 
HETATM   24  C14 UNL     1      28.566  -0.544  53.812  1.00  0.00     0.218 C 
HETATM   25  C15 UNL     1      29.944  -1.085  53.811  1.00  0.00     0.117 C 
HETATM   26  O2  UNL     1      28.032  -0.195  54.892  1.00  0.00    -0.274 OA
HETATM   27  H16 UNL     1      28.171  -0.658  51.721  1.00  0.00     0.169 HD
ENDBRANCH  20  23
ENDBRANCH   1  16
TORSDOF 7
ENDMDL
MODEL 6
REMARK VINA RESULT:      -7.4      3.087      4.306
REMARK  7 active torsions:
REMARK  status: ('A' for Active; 'I' for Inactive)
REMARK    1  A    between atoms: O1_2  and  C2_3 
REMARK    2  A    between atoms: C5_6  and  C6_7 
REMARK    3  A    between atoms: N1_8  and  C7_9 
REMARK    4  A    between atoms: N2_10  and  C8_11 
REMARK    5  A    between atoms: C8_11  and  N3_12 
REMARK    6  A    between atoms: N3_12  and  C9_13 
REMARK    7  A    between atoms: C13_17  and  N4_18 
REMARK       I    between atoms: N4_18  and  C14_19 
ROOT
HETATM    1  N3  UNL     1      26.817   3.214  51.279  1.00  0.00     0.114 N 
HETATM    2  H11 UNL     1      27.854   3.086  51.225  1.00  0.00     0.319 HD
ENDROOT
BRANCH   1   3
HETATM    3  C8  UNL     1      26.300   3.053  49.956  1.00  0.00     0.420 C 
BRANCH   3   4
HETATM    4  N2  UNL     1      25.904   4.395  49.511  1.00  0.00    -0.253 NA
HETATM    5  C7  UNL     1      26.711   5.173  48.868  1.00  0.00     0.228 C 
BRANCH   5   6
HETATM    6  N1  UNL     1      28.016   4.721  48.582  1.00  0.00    -0.254 NA
HETATM    7  C6  UNL     1      29.003   5.446  48.274  1.00  0.00     0.128 C 
BRANCH   7   8
HETATM    8  C5  UNL     1      29.331   6.842  48.072  1.00  0.00     0.004 A 
HETATM    9  C4  UNL     1      28.547   7.676  47.141  1.00  0.00     0.073 A 
HETATM   10  C3  UNL     1      29.241   8.989  47.271  1.00  0.00     0.018 A 
HETATM   11  C2  UNL     1      30.236   8.862  48.137  1.00  0.00     0.103 A 
HETATM   12  C18 UNL     1      30.312   7.503  48.660  1.00  0.00     0.157 A 
HETATM   13  F1  UNL     1      31.227   7.080  49.561  1.00  0.00    -0.203 F 
BRANCH  11  14
HETATM   14  O1  UNL     1      31.034   9.987  48.417  1.00  0.00    -0.353 OA
HETATM   15  C1  UNL     1      30.493  11.310  48.312  1.00  0.00     0.210 C 
ENDBRANCH  11  14
ENDBRANCH   7   8
ENDBRANCH   5   6
ENDBRANCH   3   4
ENDBRANCH   1   3
BRANCH   1  16
HETATM   16  C9  UNL     1      26.350   2.242  52.239  1.00  0.00     0.268 C 
HETATM   17  C10 UNL     1      26.865   0.892  51.892  1.00  0.00     0.012 C 
HETATM   18  C11 UNL     1      26.548  -0.357  52.196  1.00  0.00     0.001 C 
HETATM   19  C12 UNL     1      25.431  -0.714  53.095  1.00  0.00     0.029 C 
HETATM   20  C13 UNL     1      24.350   0.015  53.373  1.00  0.00     0.034 C 
HETATM   21  C16 UNL     1      24.040   1.339  52.843  1.00  0.00     0.028 C 
HETATM   22  C17 UNL     1      24.872   2.254  52.376  1.00  0.00     0.014 C 
BRANCH  20  23
HETATM   23  N4  UNL     1      23.439  -0.590  54.277  1.00  0.00    -0.328 N 
HETATM   24  C14 UNL     1      22.224  -0.952  53.673  1.00  0.00     0.218 C 
HETATM   25  C15 UNL     1      21.108  -1.600  54.399  1.00  0.00     0.117 C 
HETATM   26  O2  UNL     1      22.112  -0.699  52.450  1.00  0.00    -0.274 OA
HETATM   27  H16 UNL     1      23.601  -0.770  55.290  1.00  0.00     0.169 HD
ENDBRANCH  20  23
ENDBRANCH   1  16
TORSDOF 7
ENDMDL
MODEL 7
REMARK VINA RESULT:      -7.3      1.971      3.053
REMARK  7 active torsions:
REMARK  status: ('A' for Active; 'I' for Inactive)
REMARK    1  A    between atoms: O1_2  and  C2_3 
REMARK    2  A    between atoms: C5_6  and  C6_7 
REMARK    3  A    between atoms: N1_8  and  C7_9 
REMARK    4  A    between atoms: N2_10  and  C8_11 
REMARK    5  A    between atoms: C8_11  and  N3_12 
REMARK    6  A    between atoms: N3_12  and  C9_13 
REMARK    7  A    between atoms: C13_17  and  N4_18 
REMARK       I    between atoms: N4_18  and  C14_19 
ROOT
HETATM    1  N3  UNL     1      24.833   4.555  49.047  1.00  0.00     0.114 N 
HETATM    2  H11 UNL     1      24.370   4.315  48.140  1.00  0.00     0.319 HD
ENDROOT
BRANCH   1   3
HETATM    3  C8  UNL     1      23.952   5.432  49.755  1.00  0.00     0.420 C 
BRANCH   3   4
HETATM    4  N2  UNL     1      24.810   6.258  50.613  1.00  0.00    -0.253 NA
HETATM    5  C7  UNL     1      25.634   7.129  50.130  1.00  0.00     0.228 C 
BRANCH   5   6
HETATM    6  N1  UNL     1      25.714   7.293  48.731  1.00  0.00    -0.254 NA
HETATM    7  C6  UNL     1      26.758   7.184  48.029  1.00  0.00     0.128 C 
BRANCH   7   8
HETATM    8  C5  UNL     1      28.169   6.895  48.180  1.00  0.00     0.004 A 
HETATM    9  C4  UNL     1      29.162   7.986  48.242  1.00  0.00     0.073 A 
HETATM   10  C3  UNL     1      30.429   7.217  48.396  1.00  0.00     0.018 A 
HETATM   11  C2  UNL     1      30.144   5.923  48.412  1.00  0.00     0.103 A 
HETATM   12  C18 UNL     1      28.711   5.695  48.276  1.00  0.00     0.157 A 
HETATM   13  F1  UNL     1      28.129   4.475  48.261  1.00  0.00    -0.203 F 
BRANCH  11  14
HETATM   14  O1  UNL     1      31.200   5.002  48.550  1.00  0.00    -0.353 OA
HETATM   15  C1  UNL     1      32.563   5.446  48.531  1.00  0.00     0.210 C 
ENDBRANCH  11  14
ENDBRANCH   7   8
ENDBRANCH   5   6
ENDBRANCH   3   4
ENDBRANCH   1   3
BRANCH   1  16
HETATM   16  C9  UNL     1      25.095   3.296  49.701  1.00  0.00     0.268 C 
HETATM   17  C10 UNL     1      23.974   2.949  50.614  1.00  0.00     0.012 C 
HETATM   18  C11 UNL     1      23.798   2.135  51.642  1.00  0.00     0.001 C 
HETATM   19  C12 UNL     1      24.862   1.257  52.173  1.00  0.00     0.029 C 
HETATM   20  C13 UNL     1      26.179   1.422  52.059  1.00  0.00     0.034 C 
HETATM   21  C16 UNL     1      26.859   2.518  51.376  1.00  0.00     0.028 C 
HETATM   22  C17 UNL     1      26.403   3.289  50.402  1.00  0.00     0.014 C 
BRANCH  20  23
HETATM   23  N4  UNL     1      26.962   0.412  52.676  1.00  0.00    -0.328 N 
HETATM   24  C14 UNL     1      27.538   0.826  53.888  1.00  0.00     0.218 C 
HETATM   25  C15 UNL     1      28.398  -0.041  54.726  1.00  0.00     0.117 C 
HETATM   26  O2  UNL     1      27.289   2.000  54.252  1.00  0.00    -0.274 OA
HETATM   27  H16 UNL     1      27.127  -0.550  52.313  1.00  0.00     0.169 HD
ENDBRANCH  20  23
ENDBRANCH   1  16
TORSDOF 7
ENDMDL
MODEL 8
REMARK VINA RESULT:      -7.3      2.522      7.824
REMARK  7 active torsions:
REMARK  status: ('A' for Active; 'I' for Inactive)
REMARK    1  A    between atoms: O1_2  and  C2_3 
REMARK    2  A    between atoms: C5_6  and  C6_7 
REMARK    3  A    between atoms: N1_8  and  C7_9 
REMARK    4  A    between atoms: N2_10  and  C8_11 
REMARK    5  A    between atoms: C8_11  and  N3_12 
REMARK    6  A    between atoms: N3_12  and  C9_13 
REMARK    7  A    between atoms: C13_17  and  N4_18 
REMARK       I    between atoms: N4_18  and  C14_19 
ROOT
HETATM    1  N3  UNL     1      25.158   5.354  50.276  1.00  0.00     0.114 N 
HETATM    2  H11 UNL     1      24.981   6.081  51.008  1.00  0.00     0.319 HD
ENDROOT
BRANCH   1   3
HETATM    3  C8  UNL     1      23.884   4.896  49.816  1.00  0.00     0.420 C 
BRANCH   3   4
HETATM    4  N2  UNL     1      24.005   3.439  49.678  1.00  0.00    -0.253 NA
HETATM    5  C7  UNL     1      24.063   2.652  50.701  1.00  0.00     0.228 C 
BRANCH   5   6
HETATM    6  N1  UNL     1      24.009   3.209  51.996  1.00  0.00    -0.254 NA
HETATM    7  C6  UNL     1      24.503   2.704  53.043  1.00  0.00     0.128 C 
BRANCH   7   8
HETATM    8  C5  UNL     1      25.247   1.535  53.465  1.00  0.00     0.004 A 
HETATM    9  C4  UNL     1      24.618   0.201  53.472  1.00  0.00     0.073 A 
HETATM   10  C3  UNL     1      25.741  -0.648  53.964  1.00  0.00     0.018 A 
HETATM   11  C2  UNL     1      26.795   0.124  54.180  1.00  0.00     0.103 A 
HETATM   12  C18 UNL     1      26.504   1.518  53.869  1.00  0.00     0.157 A 
HETATM   13  F1  UNL     1      27.391   2.530  53.993  1.00  0.00    -0.203 F 
BRANCH  11  14
HETATM   14  O1  UNL     1      27.980  -0.472  54.652  1.00  0.00    -0.353 OA
HETATM   15  C1  UNL     1      29.227  -0.246  53.981  1.00  0.00     0.210 C 
ENDBRANCH  11  14
ENDBRANCH   7   8
ENDBRANCH   5   6
ENDBRANCH   3   4
ENDBRANCH   1   3
BRANCH   1  16
HETATM   16  C9  UNL     1      25.974   5.995  49.273  1.00  0.00     0.268 C 
HETATM   17  C10 UNL     1      27.141   5.137  48.938  1.00  0.00     0.012 C 
HETATM   18  C11 UNL     1      28.319   5.313  48.362  1.00  0.00     0.001 C 
HETATM   19  C12 UNL     1      28.785   6.618  47.848  1.00  0.00     0.029 C 
HETATM   20  C13 UNL     1      28.381   7.830  48.231  1.00  0.00     0.034 C 
HETATM   21  C16 UNL     1      27.380   8.127  49.250  1.00  0.00     0.028 C 
HETATM   22  C17 UNL     1      26.388   7.362  49.676  1.00  0.00     0.014 C 
BRANCH  20  23
HETATM   23  N4  UNL     1      29.010   8.908  47.556  1.00  0.00    -0.328 N 
HETATM   24  C14 UNL     1      30.128   9.409  48.243  1.00  0.00     0.218 C 
HETATM   25  C15 UNL     1      30.957  10.533  47.751  1.00  0.00     0.117 C 
HETATM   26  O2  UNL     1      30.412   8.851  49.330  1.00  0.00    -0.274 OA
HETATM   27  H16 UNL     1      28.717   9.324  46.648  1.00  0.00     0.169 HD
ENDBRANCH  20  23
ENDBRANCH   1  16
TORSDOF 7
ENDMDL
MODEL 9
REMARK VINA RESULT:      -7.2      2.763      6.511
REMARK  7 active torsions:
REMARK  status: ('A' for Active; 'I' for Inactive)
REMARK    1  A    between atoms: O1_2  and  C2_3 
REMARK    2  A    between atoms: C5_6  and  C6_7 
REMARK    3  A    between atoms: N1_8  and  C7_9 
REMARK    4  A    between atoms: N2_10  and  C8_11 
REMARK    5  A    between atoms: C8_11  and  N3_12 
REMARK    6  A    between atoms: N3_12  and  C9_13 
REMARK    7  A    between atoms: C13_17  and  N4_18 
REMARK       I    between atoms: N4_18  and  C14_19 
ROOT
HETATM    1  N3  UNL     1      20.336   3.641  51.879  1.00  0.00     0.114 N 
HETATM    2  H11 UNL     1      19.532   4.066  51.363  1.00  0.00     0.319 HD
ENDROOT
BRANCH   1   3
HETATM    3  C8  UNL     1      20.058   2.246  52.025  1.00  0.00     0.420 C 
BRANCH   3   4
HETATM    4  N2  UNL     1      20.303   1.930  53.438  1.00  0.00    -0.253 NA
HETATM    5  C7  UNL     1      20.919   0.856  53.807  1.00  0.00     0.228 C 
BRANCH   5   6
HETATM    6  N1  UNL     1      21.372  -0.046  52.821  1.00  0.00    -0.254 NA
HETATM    7  C6  UNL     1      22.574  -0.363  52.600  1.00  0.00     0.128 C 
BRANCH   7   8
HETATM    8  C5  UNL     1      23.905  -0.074  53.094  1.00  0.00     0.004 A 
HETATM    9  C4  UNL     1      24.798   0.848  52.365  1.00  0.00     0.073 A 
HETATM   10  C3  UNL     1      26.009   0.826  53.233  1.00  0.00     0.018 A 
HETATM   11  C2  UNL     1      25.786   0.018  54.257  1.00  0.00     0.103 A 
HETATM   12  C18 UNL     1      24.452  -0.567  54.190  1.00  0.00     0.157 A 
HETATM   13  F1  UNL     1      23.947  -1.428  55.101  1.00  0.00    -0.203 F 
BRANCH  11  14
HETATM   14  O1  UNL     1      26.804  -0.156  55.214  1.00  0.00    -0.353 OA
HETATM   15  C1  UNL     1      28.173   0.107  54.878  1.00  0.00     0.210 C 
ENDBRANCH  11  14
ENDBRANCH   7   8
ENDBRANCH   5   6
ENDBRANCH   3   4
ENDBRANCH   1   3
BRANCH   1  16
HETATM   16  C9  UNL     1      21.512   3.950  51.102  1.00  0.00     0.268 C 
HETATM   17  C10 UNL     1      21.901   2.778  50.274  1.00  0.00     0.012 C 
HETATM   18  C11 UNL     1      22.992   2.379  49.639  1.00  0.00     0.001 C 
HETATM   19  C12 UNL     1      24.251   3.153  49.624  1.00  0.00     0.029 C 
HETATM   20  C13 UNL     1      24.658   4.055  50.517  1.00  0.00     0.034 C 
HETATM   21  C16 UNL     1      23.935   4.476  51.713  1.00  0.00     0.028 C 
HETATM   22  C17 UNL     1      22.634   4.429  51.948  1.00  0.00     0.014 C 
BRANCH  20  23
HETATM   23  N4  UNL     1      25.921   4.640  50.241  1.00  0.00    -0.328 N 
HETATM   24  C14 UNL     1      25.877   5.570  49.189  1.00  0.00     0.218 C 
HETATM   25  C15 UNL     1      27.060   6.319  48.707  1.00  0.00     0.117 C 
HETATM   26  O2  UNL     1      24.759   5.752  48.651  1.00  0.00    -0.274 OA
HETATM   27  H16 UNL     1      26.816   4.439  50.733  1.00  0.00     0.169 HD
ENDBRANCH  20  23
ENDBRANCH   1  16
TORSDOF 7
ENDMDL
