MODEL 1
REMARK VINA RESULT:      -8.9      0.000      0.000
REMARK  5 active torsions:
REMARK  status: ('A' for Active; 'I' for Inactive)
REMARK    1  A    between atoms: O1_2  and  C2_3 
REMARK    2  A    between atoms: C2_3  and  C14_20 
REMARK    3  A    between atoms: C3_4  and  C4_5 
REMARK    4  A    between atoms: C6_7  and  N1_8 
REMARK    5  A    between atoms: N1_8  and  C7_9 
ROOT
HETATM    1  C4  UNL     1      26.262   4.073  49.474  1.00  0.00     0.064 A 
HETATM    2  C5  UNL     1      26.462   3.535  50.740  1.00  0.00     0.082 A 
HETATM    3  C6  UNL     1      25.512   2.822  51.435  1.00  0.00     0.131 A 
HETATM    4  N2  UNL     1      24.319   2.627  50.863  1.00  0.00    -0.224 NA
HETATM    5  C13 UNL     1      24.097   3.136  49.639  1.00  0.00     0.235 A 
HETATM    6  N3  UNL     1      25.037   3.821  48.995  1.00  0.00    -0.242 NA
ENDROOT
BRANCH   1   7
HETATM    7  C3  UNL     1      27.301   4.813  48.796  1.00  0.00     0.071 C 
HETATM    8  C2  UNL     1      27.381   6.103  48.532  1.00  0.00     0.100 C 
BRANCH   8   9
HETATM    9  O1  UNL     1      26.443   7.066  48.866  1.00  0.00    -0.353 OA
HETATM   10  C1  UNL     1      26.685   8.144  49.747  1.00  0.00     0.210 C 
ENDBRANCH   8   9
BRANCH   8  11
HETATM   11  C14 UNL     1      28.610   6.504  47.809  1.00  0.00     0.087 C 
HETATM   12  C15 UNL     1      29.678   5.821  48.309  1.00  0.00     0.089 C 
HETATM   13  C16 UNL     1      31.119   5.504  48.321  1.00  0.00     0.161 C 
HETATM   14  C17 UNL     1      32.017   6.720  48.189  1.00  0.00     0.305 C 
HETATM   15  O3  UNL     1      31.385   4.586  47.322  1.00  0.00    -0.382 OA
HETATM   16  N4  UNL     1      32.414   6.972  46.857  1.00  0.00     0.093 N 
HETATM   17  C18 UNL     1      31.516   7.194  45.811  1.00  0.00     0.274 C 
HETATM   18  C21 UNL     1      33.288   5.825  46.484  1.00  0.00     0.298 C 
HETATM   19  C19 UNL     1      30.612   8.353  45.779  1.00  0.00     0.057 C 
HETATM   20  C20 UNL     1      29.542   8.503  46.779  1.00  0.00     0.177 C 
HETATM   21  O2  UNL     1      28.534   7.486  46.756  1.00  0.00    -0.352 OA
HETATM   22  C22 UNL     1      32.722   4.530  47.010  1.00  0.00     0.198 C 
ENDBRANCH   8  11
ENDBRANCH   1   7
BRANCH   3  23
HETATM   23  N1  UNL     1      25.911   2.363  52.728  1.00  0.00    -0.341 N 
HETATM   24  H6  UNL     1      25.401   2.846  53.515  1.00  0.00     0.167 HD
BRANCH  23  25
HETATM   25  C7  UNL     1      26.882   1.378  52.954  1.00  0.00     0.035 A 
HETATM   26  C8  UNL     1      28.074   1.824  53.477  1.00  0.00     0.032 A 
HETATM   27  C9  UNL     1      29.122   0.960  53.757  1.00  0.00     0.046 A 
HETATM   28  C10 UNL     1      28.869  -0.380  53.465  1.00  0.00     0.138 A 
HETATM   29  F1  UNL     1      29.840  -1.268  53.711  1.00  0.00    -0.204 F 
HETATM   30  C11 UNL     1      27.675  -0.833  52.940  1.00  0.00     0.074 A 
HETATM   31 CL1  UNL     1      27.452  -2.557  52.602  1.00  0.00    -0.081 Cl
HETATM   32  C12 UNL     1      26.662   0.049  52.678  1.00  0.00     0.056 A 
ENDBRANCH  23  25
ENDBRANCH   3  23
TORSDOF 5
ENDMDL
MODEL 2
REMARK VINA RESULT:      -8.6      4.946      8.684
REMARK  5 active torsions:
REMARK  status: ('A' for Active; 'I' for Inactive)
REMARK    1  A    between atoms: O1_2  and  C2_3 
REMARK    2  A    between atoms: C2_3  and  C14_20 
REMARK    3  A    between atoms: C3_4  and  C4_5 
REMARK    4  A    between atoms: C6_7  and  N1_8 
REMARK    5  A    between atoms: N1_8  and  C7_9 
ROOT
HETATM    1  C4  UNL     1      23.430   5.510  51.608  1.00  0.00     0.064 A 
HETATM    2  C5  UNL     1      24.253   6.573  51.249  1.00  0.00     0.082 A 
HETATM    3  C6  UNL     1      23.796   7.759  50.724  1.00  0.00     0.131 A 
HETATM    4  N2  UNL     1      22.479   7.911  50.547  1.00  0.00    -0.224 NA
HETATM    5  C13 UNL     1      21.660   6.901  50.885  1.00  0.00     0.235 A 
HETATM    6  N3  UNL     1      22.135   5.766  51.389  1.00  0.00    -0.242 NA
ENDROOT
BRANCH   1   7
HETATM    7  C3  UNL     1      23.973   4.288  52.154  1.00  0.00     0.071 C 
HETATM    8  C2  UNL     1      23.811   3.041  51.752  1.00  0.00     0.100 C 
BRANCH   8   9
HETATM    9  O1  UNL     1      23.053   2.622  50.672  1.00  0.00    -0.353 OA
HETATM   10  C1  UNL     1      23.411   2.825  49.320  1.00  0.00     0.210 C 
ENDBRANCH   8   9
BRANCH   8  11
HETATM   11  C14 UNL     1      24.529   2.038  52.572  1.00  0.00     0.087 C 
HETATM   12  C15 UNL     1      25.872   2.162  52.373  1.00  0.00     0.089 C 
HETATM   13  C16 UNL     1      27.262   1.745  52.641  1.00  0.00     0.161 C 
HETATM   14  C17 UNL     1      27.454   0.240  52.687  1.00  0.00     0.305 C 
HETATM   15  O3  UNL     1      27.688   2.331  53.818  1.00  0.00    -0.382 OA
HETATM   16  N4  UNL     1      27.388  -0.285  53.996  1.00  0.00     0.093 N 
HETATM   17  C18 UNL     1      26.281  -0.136  54.834  1.00  0.00     0.274 C 
HETATM   18  C21 UNL     1      28.581   0.262  54.700  1.00  0.00     0.298 C 
HETATM   19  C19 UNL     1      24.966  -0.714  54.517  1.00  0.00     0.057 C 
HETATM   20  C20 UNL     1      24.196  -0.243  53.354  1.00  0.00     0.177 C 
HETATM   21  O2  UNL     1      23.784   1.127  53.405  1.00  0.00    -0.352 OA
HETATM   22  C22 UNL     1      28.798   1.710  54.337  1.00  0.00     0.198 C 
ENDBRANCH   8  11
ENDBRANCH   1   7
BRANCH   3  23
HETATM   23  N1  UNL     1      24.804   8.722  50.410  1.00  0.00    -0.341 N 
HETATM   24  H6  UNL     1      24.680   9.636  50.924  1.00  0.00     0.167 HD
BRANCH  23  25
HETATM   25  C7  UNL     1      25.856   8.503  49.510  1.00  0.00     0.035 A 
HETATM   26  C8  UNL     1      25.494   8.019  48.274  1.00  0.00     0.032 A 
HETATM   27  C9  UNL     1      26.430   7.761  47.283  1.00  0.00     0.046 A 
HETATM   28  C10 UNL     1      27.751   8.029  47.643  1.00  0.00     0.138 A 
HETATM   29  F1  UNL     1      28.705   7.802  46.732  1.00  0.00    -0.204 F 
HETATM   30  C11 UNL     1      28.120   8.515  48.882  1.00  0.00     0.074 A 
HETATM   31 CL1  UNL     1      29.826   8.821  49.242  1.00  0.00    -0.081 Cl
HETATM   32  C12 UNL     1      27.168   8.759  49.834  1.00  0.00     0.056 A 
ENDBRANCH  23  25
ENDBRANCH   3  23
TORSDOF 5
ENDMDL
MODEL 3
REMARK VINA RESULT:      -8.6      3.144      5.076
REMARK  5 active torsions:
REMARK  status: ('A' for Active; 'I' for Inactive)
REMARK    1  A    between atoms: O1_2  and  C2_3 
REMARK    2  A    between atoms: C2_3  and  C14_20 
REMARK    3  A    between atoms: C3_4  and  C4_5 
REMARK    4  A    between atoms: C6_7  and  N1_8 
REMARK    5  A    between atoms: N1_8  and  C7_9 
ROOT
HETATM    1  C4  UNL     1      22.969   1.562  51.531  1.00  0.00     0.064 A 
HETATM    2  C5  UNL     1      23.824   1.029  52.490  1.00  0.00     0.082 A 
HETATM    3  C6  UNL     1      23.517  -0.053  53.281  1.00  0.00     0.131 A 
HETATM    4  N2  UNL     1      22.325  -0.639  53.123  1.00  0.00    -0.224 NA
HETATM    5  C13 UNL     1      21.479  -0.145  52.203  1.00  0.00     0.235 A 
HETATM    6  N3  UNL     1      21.806   0.904  51.455  1.00  0.00    -0.242 NA
ENDROOT
BRANCH   1   7
HETATM    7  C3  UNL     1      23.350   2.703  50.731  1.00  0.00     0.071 C 
HETATM    8  C2  UNL     1      23.210   2.909  49.436  1.00  0.00     0.100 C 
BRANCH   8   9
HETATM    9  O1  UNL     1      22.640   2.034  48.526  1.00  0.00    -0.353 OA
HETATM   10  C1  UNL     1      21.268   2.018  48.187  1.00  0.00     0.210 C 
ENDBRANCH   8   9
BRANCH   8  11
HETATM   11  C14 UNL     1      23.730   4.213  48.964  1.00  0.00     0.087 C 
HETATM   12  C15 UNL     1      24.976   4.421  49.476  1.00  0.00     0.089 C 
HETATM   13  C16 UNL     1      26.192   5.244  49.624  1.00  0.00     0.161 C 
HETATM   14  C17 UNL     1      25.912   6.722  49.828  1.00  0.00     0.305 C 
HETATM   15  O3  UNL     1      27.006   5.045  48.525  1.00  0.00    -0.382 OA
HETATM   16  N4  UNL     1      25.950   7.462  48.627  1.00  0.00     0.093 N 
HETATM   17  C18 UNL     1      25.136   7.191  47.525  1.00  0.00     0.274 C 
HETATM   18  C21 UNL     1      27.370   7.413  48.179  1.00  0.00     0.298 C 
HETATM   19  C19 UNL     1      23.671   7.314  47.576  1.00  0.00     0.057 C 
HETATM   20  C20 UNL     1      22.869   6.427  48.434  1.00  0.00     0.177 C 
HETATM   21  O2  UNL     1      22.922   5.036  48.099  1.00  0.00    -0.352 OA
HETATM   22  C22 UNL     1      27.948   6.036  48.389  1.00  0.00     0.198 C 
ENDBRANCH   8  11
ENDBRANCH   1   7
BRANCH   3  23
HETATM   23  N1  UNL     1      24.527  -0.440  54.214  1.00  0.00    -0.341 N 
HETATM   24  H6  UNL     1      24.141  -0.683  55.166  1.00  0.00     0.167 HD
BRANCH  23  25
HETATM   25  C7  UNL     1      25.897  -0.492  53.924  1.00  0.00     0.035 A 
HETATM   26  C8  UNL     1      26.289  -1.502  53.076  1.00  0.00     0.032 A 
HETATM   27  C9  UNL     1      27.613  -1.670  52.697  1.00  0.00     0.046 A 
HETATM   28  C10 UNL     1      28.500  -0.743  53.244  1.00  0.00     0.138 A 
HETATM   29  F1  UNL     1      29.794  -0.849  52.919  1.00  0.00    -0.204 F 
HETATM   30  C11 UNL     1      28.112   0.273  54.095  1.00  0.00     0.074 A 
HETATM   31 CL1  UNL     1      29.316   1.399  54.739  1.00  0.00    -0.081 Cl
HETATM   32  C12 UNL     1      26.796   0.408  54.446  1.00  0.00     0.056 A 
ENDBRANCH  23  25
ENDBRANCH   3  23
TORSDOF 5
ENDMDL
MODEL 4
REMARK VINA RESULT:      -8.5      1.781      2.532
REMARK  5 active torsions:
REMARK  status: ('A' for Active; 'I' for Inactive)
REMARK    1  A    between atoms: O1_2  and  C2_3 
REMARK    2  A    between atoms: C2_3  and  C14_20 
REMARK    3  A    between atoms: C3_4  and  C4_5 
REMARK    4  A    between atoms: C6_7  and  N1_8 
REMARK    5  A    between atoms: N1_8  and  C7_9 
ROOT
HETATM    1  C4  UNL     1      27.345   5.397  48.860  1.00  0.00     0.064 A 
HETATM    2  C5  UNL     1      26.883   4.164  49.307  1.00  0.00     0.082 A 
HETATM    3  C6  UNL     1      25.662   3.969  49.909  1.00  0.00     0.131 A 
HETATM    4  N2  UNL     1      24.859   5.026  50.076  1.00  0.00    -0.224 NA
HETATM    5  C13 UNL     1      25.279   6.230  49.652  1.00  0.00     0.235 A 
HETATM    6  N3  UNL     1      26.467   6.384  49.076  1.00  0.00    -0.242 NA
ENDROOT
BRANCH   1   7
HETATM    7  C3  UNL     1      28.640   5.537  48.236  1.00  0.00     0.071 C 
HETATM    8  C2  UNL     1      29.422   6.595  48.146  1.00  0.00     0.100 C 
BRANCH   8   9
HETATM    9  O1  UNL     1      29.156   7.855  48.656  1.00  0.00    -0.353 OA
HETATM   10  C1  UNL     1      30.141   8.741  49.148  1.00  0.00     0.210 C 
ENDBRANCH   8   9
BRANCH   8  11
HETATM   11  C14 UNL     1      30.692   6.356  47.421  1.00  0.00     0.087 C 
HETATM   12  C15 UNL     1      31.354   5.310  47.990  1.00  0.00     0.089 C 
HETATM   13  C16 UNL     1      32.506   4.389  48.053  1.00  0.00     0.161 C 
HETATM   14  C17 UNL     1      33.847   5.070  47.853  1.00  0.00     0.305 C 
HETATM   15  O3  UNL     1      32.324   3.379  47.127  1.00  0.00    -0.382 OA
HETATM   16  N4  UNL     1      34.297   5.022  46.515  1.00  0.00     0.093 N 
HETATM   17  C18 UNL     1      33.576   5.542  45.438  1.00  0.00     0.274 C 
HETATM   18  C21 UNL     1      34.568   3.583  46.242  1.00  0.00     0.298 C 
HETATM   19  C19 UNL     1      33.278   6.976  45.306  1.00  0.00     0.057 C 
HETATM   20  C20 UNL     1      32.398   7.656  46.270  1.00  0.00     0.177 C 
HETATM   21  O2  UNL     1      31.045   7.192  46.300  1.00  0.00    -0.352 OA
HETATM   22  C22 UNL     1      33.494   2.714  46.847  1.00  0.00     0.198 C 
ENDBRANCH   8  11
ENDBRANCH   1   7
BRANCH   3  23
HETATM   23  N1  UNL     1      25.379   2.627  50.307  1.00  0.00    -0.341 N 
HETATM   24  H6  UNL     1      24.833   2.085  49.584  1.00  0.00     0.167 HD
BRANCH  23  25
HETATM   25  C7  UNL     1      25.767   2.065  51.531  1.00  0.00     0.035 A 
HETATM   26  C8  UNL     1      25.248   2.663  52.655  1.00  0.00     0.032 A 
HETATM   27  C9  UNL     1      25.542   2.209  53.932  1.00  0.00     0.046 A 
HETATM   28  C10 UNL     1      26.401   1.110  53.978  1.00  0.00     0.138 A 
HETATM   29  F1  UNL     1      26.726   0.621  55.181  1.00  0.00    -0.204 F 
HETATM   30  C11 UNL     1      26.925   0.505  52.853  1.00  0.00     0.074 A 
HETATM   31 CL1  UNL     1      28.009  -0.885  53.018  1.00  0.00    -0.081 Cl
HETATM   32  C12 UNL     1      26.611   0.981  51.609  1.00  0.00     0.056 A 
ENDBRANCH  23  25
ENDBRANCH   3  23
TORSDOF 5
ENDMDL
MODEL 5
REMARK VINA RESULT:      -8.2      1.752      2.071
REMARK  5 active torsions:
REMARK  status: ('A' for Active; 'I' for Inactive)
REMARK    1  A    between atoms: O1_2  and  C2_3 
REMARK    2  A    between atoms: C2_3  and  C14_20 
REMARK    3  A    between atoms: C3_4  and  C4_5 
REMARK    4  A    between atoms: C6_7  and  N1_8 
REMARK    5  A    between atoms: N1_8  and  C7_9 
ROOT
HETATM    1  C4  UNL     1      25.594   5.450  49.051  1.00  0.00     0.064 A 
HETATM    2  C5  UNL     1      25.535   4.844  50.302  1.00  0.00     0.082 A 
HETATM    3  C6  UNL     1      24.368   4.439  50.908  1.00  0.00     0.131 A 
HETATM    4  N2  UNL     1      23.214   4.634  50.261  1.00  0.00    -0.224 NA
HETATM    5  C13 UNL     1      23.241   5.217  49.051  1.00  0.00     0.235 A 
HETATM    6  N3  UNL     1      24.386   5.598  48.493  1.00  0.00    -0.242 NA
ENDROOT
BRANCH   1   7
HETATM    7  C3  UNL     1      26.853   5.854  48.468  1.00  0.00     0.071 C 
HETATM    8  C2  UNL     1      27.364   7.061  48.321  1.00  0.00     0.100 C 
BRANCH   8   9
HETATM    9  O1  UNL     1      26.776   8.252  48.712  1.00  0.00    -0.353 OA
HETATM   10  C1  UNL     1      26.958   8.853  49.979  1.00  0.00     0.210 C 
ENDBRANCH   8   9
BRANCH   8  11
HETATM   11  C14 UNL     1      28.693   7.085  47.667  1.00  0.00     0.087 C 
HETATM   12  C15 UNL     1      29.553   6.278  48.350  1.00  0.00     0.089 C 
HETATM   13  C16 UNL     1      30.887   5.674  48.536  1.00  0.00     0.161 C 
HETATM   14  C17 UNL     1      32.035   6.644  48.328  1.00  0.00     0.305 C 
HETATM   15  O3  UNL     1      31.007   4.583  47.696  1.00  0.00    -0.382 OA
HETATM   16  N4  UNL     1      32.560   6.607  47.017  1.00  0.00     0.093 N 
HETATM   17  C18 UNL     1      31.798   6.852  45.873  1.00  0.00     0.274 C 
HETATM   18  C21 UNL     1      33.183   5.261  46.881  1.00  0.00     0.298 C 
HETATM   19  C19 UNL     1      31.172   8.156  45.604  1.00  0.00     0.057 C 
HETATM   20  C20 UNL     1      30.101   8.671  46.472  1.00  0.00     0.177 C 
HETATM   21  O2  UNL     1      28.899   7.894  46.491  1.00  0.00    -0.352 OA
HETATM   22  C22 UNL     1      32.316   4.204  47.519  1.00  0.00     0.198 C 
ENDBRANCH   8  11
ENDBRANCH   1   7
BRANCH   3  23
HETATM   23  N1  UNL     1      24.519   3.847  52.200  1.00  0.00    -0.341 N 
HETATM   24  H6  UNL     1      24.415   4.540  52.989  1.00  0.00     0.167 HD
BRANCH  23  25
HETATM   25  C7  UNL     1      24.785   2.489  52.423  1.00  0.00     0.035 A 
HETATM   26  C8  UNL     1      26.104   2.113  52.311  1.00  0.00     0.032 A 
HETATM   27  C9  UNL     1      26.513   0.803  52.510  1.00  0.00     0.046 A 
HETATM   28  C10 UNL     1      25.487  -0.088  52.827  1.00  0.00     0.138 A 
HETATM   29  F1  UNL     1      25.814  -1.370  53.032  1.00  0.00    -0.204 F 
HETATM   30  C11 UNL     1      24.162   0.284  52.941  1.00  0.00     0.074 A 
HETATM   31 CL1  UNL     1      22.934  -0.925  53.345  1.00  0.00    -0.081 Cl
HETATM   32  C12 UNL     1      23.797   1.587  52.738  1.00  0.00     0.056 A 
ENDBRANCH  23  25
ENDBRANCH   3  23
TORSDOF 5
ENDMDL
MODEL 6
REMARK VINA RESULT:      -7.9      2.310      2.674
REMARK  5 active torsions:
REMARK  status: ('A' for Active; 'I' for Inactive)
REMARK    1  A    between atoms: O1_2  and  C2_3 
REMARK    2  A    between atoms: C2_3  and  C14_20 
REMARK    3  A    between atoms: C3_4  and  C4_5 
REMARK    4  A    between atoms: C6_7  and  N1_8 
REMARK    5  A    between atoms: N1_8  and  C7_9 
ROOT
HETATM    1  C4  UNL     1      25.187   4.551  49.536  1.00  0.00     0.064 A 
HETATM    2  C5  UNL     1      25.595   4.047  50.767  1.00  0.00     0.082 A 
HETATM    3  C6  UNL     1      24.992   2.988  51.405  1.00  0.00     0.131 A 
HETATM    4  N2  UNL     1      23.948   2.398  50.812  1.00  0.00    -0.224 NA
HETATM    5  C13 UNL     1      23.533   2.864  49.622  1.00  0.00     0.235 A 
HETATM    6  N3  UNL     1      24.137   3.891  49.032  1.00  0.00    -0.242 NA
ENDROOT
BRANCH   1   7
HETATM    7  C3  UNL     1      25.863   5.668  48.917  1.00  0.00     0.071 C 
HETATM    8  C2  UNL     1      25.376   6.821  48.500  1.00  0.00     0.100 C 
BRANCH   8   9
HETATM    9  O1  UNL     1      24.053   7.223  48.570  1.00  0.00    -0.353 OA
HETATM   10  C1  UNL     1      23.630   8.500  49.007  1.00  0.00     0.210 C 
ENDBRANCH   8   9
BRANCH   8  11
HETATM   11  C14 UNL     1      26.383   7.730  47.907  1.00  0.00     0.087 C 
HETATM   12  C15 UNL     1      27.286   8.095  48.860  1.00  0.00     0.089 C 
HETATM   13  C16 UNL     1      28.490   8.837  49.284  1.00  0.00     0.161 C 
HETATM   14  C17 UNL     1      28.565  10.250  48.736  1.00  0.00     0.305 C 
HETATM   15  O3  UNL     1      29.612   8.112  48.928  1.00  0.00    -0.382 OA
HETATM   16  N4  UNL     1      29.323  10.344  47.549  1.00  0.00     0.093 N 
HETATM   17  C18 UNL     1      29.029   9.628  46.386  1.00  0.00     0.274 C 
HETATM   18  C21 UNL     1      30.722  10.027  47.949  1.00  0.00     0.298 C 
HETATM   19  C19 UNL     1      27.784   9.827  45.629  1.00  0.00     0.057 C 
HETATM   20  C20 UNL     1      26.480   9.479  46.217  1.00  0.00     0.177 C 
HETATM   21  O2  UNL     1      26.291   8.092  46.514  1.00  0.00    -0.352 OA
HETATM   22  C22 UNL     1      30.751   8.882  48.930  1.00  0.00     0.198 C 
ENDBRANCH   8  11
ENDBRANCH   1   7
BRANCH   3  23
HETATM   23  N1  UNL     1      25.555   2.630  52.668  1.00  0.00    -0.341 N 
HETATM   24  H6  UNL     1      25.153   3.181  53.473  1.00  0.00     0.167 HD
BRANCH  23  25
HETATM   25  C7  UNL     1      26.545   1.654  52.846  1.00  0.00     0.035 A 
HETATM   26  C8  UNL     1      27.765   2.114  53.285  1.00  0.00     0.032 A 
HETATM   27  C9  UNL     1      28.835   1.260  53.510  1.00  0.00     0.046 A 
HETATM   28  C10 UNL     1      28.572  -0.086  53.253  1.00  0.00     0.138 A 
HETATM   29  F1  UNL     1      29.563  -0.964  53.450  1.00  0.00    -0.204 F 
HETATM   30  C11 UNL     1      27.350  -0.553  52.813  1.00  0.00     0.074 A 
HETATM   31 CL1  UNL     1      27.118  -2.282  52.514  1.00  0.00    -0.081 Cl
HETATM   32  C12 UNL     1      26.317   0.320  52.603  1.00  0.00     0.056 A 
ENDBRANCH  23  25
ENDBRANCH   3  23
TORSDOF 5
ENDMDL
MODEL 7
REMARK VINA RESULT:      -7.7      2.487      3.687
REMARK  5 active torsions:
REMARK  status: ('A' for Active; 'I' for Inactive)
REMARK    1  A    between atoms: O1_2  and  C2_3 
REMARK    2  A    between atoms: C2_3  and  C14_20 
REMARK    3  A    between atoms: C3_4  and  C4_5 
REMARK    4  A    between atoms: C6_7  and  N1_8 
REMARK    5  A    between atoms: N1_8  and  C7_9 
ROOT
HETATM    1  C4  UNL     1      23.573   3.277  49.710  1.00  0.00     0.064 A 
HETATM    2  C5  UNL     1      24.024   2.766  50.922  1.00  0.00     0.082 A 
HETATM    3  C6  UNL     1      23.459   1.688  51.563  1.00  0.00     0.131 A 
HETATM    4  N2  UNL     1      22.411   1.085  50.990  1.00  0.00    -0.224 NA
HETATM    5  C13 UNL     1      21.954   1.558  49.818  1.00  0.00     0.235 A 
HETATM    6  N3  UNL     1      22.523   2.603  49.226  1.00  0.00    -0.242 NA
ENDROOT
BRANCH   1   7
HETATM    7  C3  UNL     1      24.210   4.415  49.087  1.00  0.00     0.071 C 
HETATM    8  C2  UNL     1      23.690   5.561  48.695  1.00  0.00     0.100 C 
BRANCH   8   9
HETATM    9  O1  UNL     1      22.361   5.936  48.802  1.00  0.00    -0.353 OA
HETATM   10  C1  UNL     1      21.384   5.704  47.807  1.00  0.00     0.210 C 
ENDBRANCH   8   9
BRANCH   8  11
HETATM   11  C14 UNL     1      24.663   6.498  48.088  1.00  0.00     0.087 C 
HETATM   12  C15 UNL     1      25.872   6.364  48.703  1.00  0.00     0.089 C 
HETATM   13  C16 UNL     1      27.290   6.739  48.862  1.00  0.00     0.161 C 
HETATM   14  C17 UNL     1      27.542   8.234  48.796  1.00  0.00     0.305 C 
HETATM   15  O3  UNL     1      28.040   6.072  47.912  1.00  0.00    -0.382 OA
HETATM   16  N4  UNL     1      27.906   8.677  47.505  1.00  0.00     0.093 N 
HETATM   17  C18 UNL     1      27.111   8.493  46.372  1.00  0.00     0.274 C 
HETATM   18  C21 UNL     1      29.239   8.065  47.242  1.00  0.00     0.298 C 
HETATM   19  C19 UNL     1      25.785   9.113  46.229  1.00  0.00     0.057 C 
HETATM   20  C20 UNL     1      24.674   8.730  47.116  1.00  0.00     0.177 C 
HETATM   21  O2  UNL     1      24.249   7.367  47.014  1.00  0.00    -0.352 OA
HETATM   22  C22 UNL     1      29.279   6.640  47.734  1.00  0.00     0.198 C 
ENDBRANCH   8  11
ENDBRANCH   1   7
BRANCH   3  23
HETATM   23  N1  UNL     1      24.062   1.325  52.806  1.00  0.00    -0.341 N 
HETATM   24  H6  UNL     1      23.397   1.384  53.623  1.00  0.00     0.167 HD
BRANCH  23  25
HETATM   25  C7  UNL     1      25.400   0.935  52.953  1.00  0.00     0.035 A 
HETATM   26  C8  UNL     1      25.673  -0.383  52.668  1.00  0.00     0.032 A 
HETATM   27  C9  UNL     1      26.954  -0.906  52.765  1.00  0.00     0.046 A 
HETATM   28  C10 UNL     1      27.928   0.006  53.174  1.00  0.00     0.138 A 
HETATM   29  F1  UNL     1      29.187  -0.434  53.289  1.00  0.00    -0.204 F 
HETATM   30  C11 UNL     1      27.660   1.329  53.462  1.00  0.00     0.074 A 
HETATM   31 CL1  UNL     1      28.967   2.407  53.976  1.00  0.00    -0.081 Cl
HETATM   32  C12 UNL     1      26.383   1.810  53.353  1.00  0.00     0.056 A 
ENDBRANCH  23  25
ENDBRANCH   3  23
TORSDOF 5
ENDMDL
MODEL 8
REMARK VINA RESULT:      -7.7      3.287      3.810
REMARK  5 active torsions:
REMARK  status: ('A' for Active; 'I' for Inactive)
REMARK    1  A    between atoms: O1_2  and  C2_3 
REMARK    2  A    between atoms: C2_3  and  C14_20 
REMARK    3  A    between atoms: C3_4  and  C4_5 
REMARK    4  A    between atoms: C6_7  and  N1_8 
REMARK    5  A    between atoms: N1_8  and  C7_9 
ROOT
HETATM    1  C4  UNL     1      26.102   5.446  49.413  1.00  0.00     0.064 A 
HETATM    2  C5  UNL     1      25.784   4.125  49.710  1.00  0.00     0.082 A 
HETATM    3  C6  UNL     1      24.646   3.737  50.378  1.00  0.00     0.131 A 
HETATM    4  N2  UNL     1      23.784   4.683  50.770  1.00  0.00    -0.224 NA
HETATM    5  C13 UNL     1      24.066   5.968  50.496  1.00  0.00     0.235 A 
HETATM    6  N3  UNL     1      25.176   6.309  49.849  1.00  0.00    -0.242 NA
ENDROOT
BRANCH   1   7
HETATM    7  C3  UNL     1      27.315   5.789  48.708  1.00  0.00     0.071 C 
HETATM    8  C2  UNL     1      27.693   6.943  48.194  1.00  0.00     0.100 C 
BRANCH   8   9
HETATM    9  O1  UNL     1      26.974   8.126  48.224  1.00  0.00    -0.353 OA
HETATM   10  C1  UNL     1      27.348   9.269  48.967  1.00  0.00     0.210 C 
ENDBRANCH   8   9
BRANCH   8  11
HETATM   11  C14 UNL     1      29.019   6.913  47.533  1.00  0.00     0.087 C 
HETATM   12  C15 UNL     1      29.906   6.243  48.320  1.00  0.00     0.089 C 
HETATM   13  C16 UNL     1      31.259   5.715  48.582  1.00  0.00     0.161 C 
HETATM   14  C17 UNL     1      32.375   6.679  48.225  1.00  0.00     0.305 C 
HETATM   15  O3  UNL     1      31.412   4.517  47.911  1.00  0.00    -0.382 OA
HETATM   16  N4  UNL     1      32.897   6.467  46.931  1.00  0.00     0.093 N 
HETATM   17  C18 UNL     1      32.124   6.517  45.769  1.00  0.00     0.274 C 
HETATM   18  C21 UNL     1      33.563   5.136  46.988  1.00  0.00     0.298 C 
HETATM   19  C19 UNL     1      31.456   7.748  45.317  1.00  0.00     0.057 C 
HETATM   20  C20 UNL     1      30.371   8.351  46.108  1.00  0.00     0.177 C 
HETATM   21  O2  UNL     1      29.195   7.547  46.250  1.00  0.00    -0.352 OA
HETATM   22  C22 UNL     1      32.732   4.157  47.781  1.00  0.00     0.198 C 
ENDBRANCH   8  11
ENDBRANCH   1   7
BRANCH   3  23
HETATM   23  N1  UNL     1      24.508   2.332  50.595  1.00  0.00    -0.341 N 
HETATM   24  H6  UNL     1      25.397   1.794  50.412  1.00  0.00     0.167 HD
BRANCH  23  25
HETATM   25  C7  UNL     1      23.322   1.706  51.003  1.00  0.00     0.035 A 
HETATM   26  C8  UNL     1      22.401   1.467  50.009  1.00  0.00     0.032 A 
HETATM   27  C9  UNL     1      21.186   0.849  50.267  1.00  0.00     0.046 A 
HETATM   28  C10 UNL     1      20.980   0.498  51.601  1.00  0.00     0.138 A 
HETATM   29  F1  UNL     1      19.826  -0.102  51.919  1.00  0.00    -0.204 F 
HETATM   30  C11 UNL     1      21.901   0.735  52.602  1.00  0.00     0.074 A 
HETATM   31 CL1  UNL     1      21.543   0.253  54.268  1.00  0.00    -0.081 Cl
HETATM   32  C12 UNL     1      23.090   1.346  52.310  1.00  0.00     0.056 A 
ENDBRANCH  23  25
ENDBRANCH   3  23
TORSDOF 5
ENDMDL
MODEL 9
REMARK VINA RESULT:      -7.6      3.371      4.452
REMARK  5 active torsions:
REMARK  status: ('A' for Active; 'I' for Inactive)
REMARK    1  A    between atoms: O1_2  and  C2_3 
REMARK    2  A    between atoms: C2_3  and  C14_20 
REMARK    3  A    between atoms: C3_4  and  C4_5 
REMARK    4  A    between atoms: C6_7  and  N1_8 
REMARK    5  A    between atoms: N1_8  and  C7_9 
ROOT
HETATM    1  C4  UNL     1      27.621   7.050  48.661  1.00  0.00     0.064 A 
HETATM    2  C5  UNL     1      26.519   6.221  48.476  1.00  0.00     0.082 A 
HETATM    3  C6  UNL     1      25.278   6.455  49.021  1.00  0.00     0.131 A 
HETATM    4  N2  UNL     1      25.110   7.546  49.777  1.00  0.00    -0.224 NA
HETATM    5  C13 UNL     1      26.157   8.364  49.972  1.00  0.00     0.235 A 
HETATM    6  N3  UNL     1      27.344   8.109  49.431  1.00  0.00    -0.242 NA
ENDROOT
BRANCH   1   7
HETATM    7  C3  UNL     1      28.900   6.749  48.060  1.00  0.00     0.071 C 
HETATM    8  C2  UNL     1      29.902   7.554  47.766  1.00  0.00     0.100 C 
BRANCH   8   9
HETATM    9  O1  UNL     1      29.944   8.921  47.981  1.00  0.00    -0.353 OA
HETATM   10  C1  UNL     1      30.696   9.546  49.002  1.00  0.00     0.210 C 
ENDBRANCH   8   9
BRANCH   8  11
HETATM   11  C14 UNL     1      31.067   6.879  47.148  1.00  0.00     0.087 C 
HETATM   12  C15 UNL     1      31.578   5.962  48.017  1.00  0.00     0.089 C 
HETATM   13  C16 UNL     1      32.561   4.917  48.364  1.00  0.00     0.161 C 
HETATM   14  C17 UNL     1      33.983   5.250  47.951  1.00  0.00     0.305 C 
HETATM   15  O3  UNL     1      32.156   3.718  47.809  1.00  0.00    -0.382 OA
HETATM   16  N4  UNL     1      34.335   4.708  46.696  1.00  0.00     0.093 N 
HETATM   17  C18 UNL     1      33.647   4.985  45.513  1.00  0.00     0.274 C 
HETATM   18  C21 UNL     1      34.344   3.232  46.894  1.00  0.00     0.298 C 
HETATM   19  C19 UNL     1      33.586   6.335  44.932  1.00  0.00     0.057 C 
HETATM   20  C20 UNL     1      32.893   7.428  45.635  1.00  0.00     0.177 C 
HETATM   21  O2  UNL     1      31.485   7.245  45.818  1.00  0.00    -0.352 OA
HETATM   22  C22 UNL     1      33.179   2.801  47.749  1.00  0.00     0.198 C 
ENDBRANCH   8  11
ENDBRANCH   1   7
BRANCH   3  23
HETATM   23  N1  UNL     1      24.280   5.478  48.721  1.00  0.00    -0.341 N 
HETATM   24  H6  UNL     1      23.745   5.689  47.836  1.00  0.00     0.167 HD
BRANCH  23  25
HETATM   25  C7  UNL     1      24.012   4.350  49.509  1.00  0.00     0.035 A 
HETATM   26  C8  UNL     1      23.251   3.371  48.913  1.00  0.00     0.032 A 
HETATM   27  C9  UNL     1      22.913   2.199  49.573  1.00  0.00     0.046 A 
HETATM   28  C10 UNL     1      23.404   2.099  50.875  1.00  0.00     0.138 A 
HETATM   29  F1  UNL     1      23.115   0.992  51.569  1.00  0.00    -0.204 F 
HETATM   30  C11 UNL     1      24.169   3.078  51.478  1.00  0.00     0.074 A 
HETATM   31 CL1  UNL     1      24.743   2.857  53.138  1.00  0.00    -0.081 Cl
HETATM   32  C12 UNL     1      24.483   4.222  50.795  1.00  0.00     0.056 A 
ENDBRANCH  23  25
ENDBRANCH   3  23
TORSDOF 5
ENDMDL
