MODEL 1
REMARK VINA RESULT:      -9.6      0.000      0.000
REMARK  3 active torsions:
REMARK  status: ('A' for Active; 'I' for Inactive)
REMARK    1  A    between atoms: C2_2  and  C3_3 
REMARK    2  A    between atoms: C3_3  and  C4_5 
REMARK    3  A    between atoms: C7_8  and  C8_9 
ROOT
HETATM    1  C8  UNL     1      22.659   1.537  50.658  1.00  0.00     0.045 C 
HETATM    2  C9  UNL     1      22.680   2.838  50.889  1.00  0.00    -0.015 C 
HETATM    3  C10 UNL     1      23.835   2.826  49.946  1.00  0.00     0.033 C 
HETATM    4  C11 UNL     1      23.683   2.956  48.649  1.00  0.00     0.011 C 
HETATM    5  C12 UNL     1      22.425   2.971  48.220  1.00  0.00     0.160 C 
HETATM    6  O2  UNL     1      22.456   4.247  48.735  1.00  0.00    -0.378 OA
HETATM    7  C13 UNL     1      22.774   5.406  48.023  1.00  0.00     0.207 C 
HETATM    8  C14 UNL     1      23.771   6.177  48.785  1.00  0.00    -0.021 A 
HETATM    9  C15 UNL     1      24.575   7.002  47.986  1.00  0.00     0.052 A 
HETATM   10  C16 UNL     1      25.560   7.762  48.607  1.00  0.00     0.117 A 
HETATM   11  F1  UNL     1      26.357   8.572  47.841  1.00  0.00    -0.206 F 
HETATM   12  C17 UNL     1      25.822   7.779  49.959  1.00  0.00     0.043 A 
HETATM   13  C18 UNL     1      25.019   6.960  50.716  1.00  0.00     0.015 A 
HETATM   14  C19 UNL     1      24.049   6.208  50.127  1.00  0.00    -0.026 A 
HETATM   15  C20 UNL     1      23.181   5.334  50.856  1.00  0.00     0.036 C 
HETATM   16  C21 UNL     1      22.631   4.216  51.208  1.00  0.00     0.044 C 
HETATM   17 CL1  UNL     1      21.434   3.835  52.404  1.00  0.00    -0.083 Cl
ENDROOT
BRANCH   1  18
HETATM   18  C7  UNL     1      21.573   0.940  51.426  1.00  0.00     0.071 A 
HETATM   19  C6  UNL     1      21.666   0.194  52.581  1.00  0.00     0.020 A 
HETATM   20  C5  UNL     1      23.072   0.156  52.982  1.00  0.00     0.029 C 
HETATM   21  C23 UNL     1      20.606  -0.385  53.241  1.00  0.00     0.072 A 
HETATM   22  C4  UNL     1      23.630  -0.515  53.996  1.00  0.00     0.012 C 
HETATM   23  C25 UNL     1      22.903  -1.387  54.957  1.00  0.00     0.210 C 
HETATM   24  O3  UNL     1      21.788  -1.984  54.429  1.00  0.00    -0.381 OA
HETATM   25  C24 UNL     1      20.636  -1.204  54.485  1.00  0.00     0.228 C 
HETATM   26  N2  UNL     1      19.369  -0.224  52.740  1.00  0.00    -0.243 NA
HETATM   27  C22 UNL     1      19.260   0.498  51.620  1.00  0.00     0.234 A 
HETATM   28  N1  UNL     1      20.285   1.059  50.979  1.00  0.00    -0.241 NA
BRANCH  22  29
HETATM   29  C3  UNL     1      25.057  -0.348  54.136  1.00  0.00     0.157 C 
HETATM   30  O1  UNL     1      25.649  -0.928  55.056  1.00  0.00    -0.293 OA
BRANCH  29  31
HETATM   31  C2  UNL     1      25.889   0.484  53.242  1.00  0.00     0.079 C 
HETATM   32  C1  UNL     1      26.691  -0.372  52.284  1.00  0.00     0.013 C 
ENDBRANCH  29  31
ENDBRANCH  22  29
ENDBRANCH   1  18
TORSDOF 3
ENDMDL
MODEL 2
REMARK VINA RESULT:      -9.0      3.667      6.856
REMARK  3 active torsions:
REMARK  status: ('A' for Active; 'I' for Inactive)
REMARK    1  A    between atoms: C2_2  and  C3_3 
REMARK    2  A    between atoms: C3_3  and  C4_5 
REMARK    3  A    between atoms: C7_8  and  C8_9 
ROOT
HETATM    1  C8  UNL     1      23.946   2.845  53.314  1.00  0.00     0.045 C 
HETATM    2  C9  UNL     1      25.079   2.505  52.725  1.00  0.00    -0.015 C 
HETATM    3  C10 UNL     1      25.290   1.692  53.957  1.00  0.00     0.033 C 
HETATM    4  C11 UNL     1      24.858   0.458  54.066  1.00  0.00     0.011 C 
HETATM    5  C12 UNL     1      24.109   0.024  53.058  1.00  0.00     0.160 C 
HETATM    6  O2  UNL     1      25.328  -0.049  52.423  1.00  0.00    -0.378 OA
HETATM    7  C13 UNL     1      26.154  -1.175  52.370  1.00  0.00     0.207 C 
HETATM    8  C14 UNL     1      27.524  -0.779  52.739  1.00  0.00    -0.021 A 
HETATM    9  C15 UNL     1      28.287  -1.827  53.275  1.00  0.00     0.052 A 
HETATM   10  C16 UNL     1      29.591  -1.555  53.670  1.00  0.00     0.117 A 
HETATM   11  F1  UNL     1      30.351  -2.567  54.198  1.00  0.00    -0.206 F 
HETATM   12  C17 UNL     1      30.214  -0.330  53.582  1.00  0.00     0.043 A 
HETATM   13  C18 UNL     1      29.442   0.677  53.055  1.00  0.00     0.015 A 
HETATM   14  C19 UNL     1      28.162   0.432  52.661  1.00  0.00    -0.026 A 
HETATM   15  C20 UNL     1      27.304   1.434  52.107  1.00  0.00     0.036 C 
HETATM   16  C21 UNL     1      26.270   2.209  52.021  1.00  0.00     0.044 C 
HETATM   17 CL1  UNL     1      25.814   3.415  50.862  1.00  0.00    -0.083 Cl
ENDROOT
BRANCH   1  18
HETATM   18  C7  UNL     1      23.218   3.760  52.443  1.00  0.00     0.071 A 
HETATM   19  C6  UNL     1      21.961   3.592  51.903  1.00  0.00     0.020 A 
HETATM   20  C5  UNL     1      21.411   2.341  52.423  1.00  0.00     0.029 C 
HETATM   21  C23 UNL     1      21.339   4.474  51.048  1.00  0.00     0.072 A 
HETATM   22  C4  UNL     1      20.254   1.747  52.107  1.00  0.00     0.012 C 
HETATM   23  C25 UNL     1      19.256   2.264  51.133  1.00  0.00     0.210 C 
HETATM   24  O3  UNL     1      19.805   3.006  50.120  1.00  0.00    -0.381 OA
HETATM   25  C24 UNL     1      19.990   4.351  50.427  1.00  0.00     0.228 C 
HETATM   26  N2  UNL     1      21.988   5.596  50.695  1.00  0.00    -0.243 NA
HETATM   27  C22 UNL     1      23.209   5.776  51.209  1.00  0.00     0.234 A 
HETATM   28  N1  UNL     1      23.813   4.924  52.037  1.00  0.00    -0.241 NA
BRANCH  22  29
HETATM   29  C3  UNL     1      19.988   0.507  52.797  1.00  0.00     0.157 C 
HETATM   30  O1  UNL     1      19.214  -0.315  52.291  1.00  0.00    -0.293 OA
BRANCH  29  31
HETATM   31  C2  UNL     1      20.585   0.134  54.096  1.00  0.00     0.079 C 
HETATM   32  C1  UNL     1      20.866  -1.354  54.164  1.00  0.00     0.013 C 
ENDBRANCH  29  31
ENDBRANCH  22  29
ENDBRANCH   1  18
TORSDOF 3
ENDMDL
MODEL 3
REMARK VINA RESULT:      -8.7      4.330      8.417
REMARK  3 active torsions:
REMARK  status: ('A' for Active; 'I' for Inactive)
REMARK    1  A    between atoms: C2_2  and  C3_3 
REMARK    2  A    between atoms: C3_3  and  C4_5 
REMARK    3  A    between atoms: C7_8  and  C8_9 
ROOT
HETATM    1  C8  UNL     1      24.728   5.422  48.656  1.00  0.00     0.045 C 
HETATM    2  C9  UNL     1      24.186   5.112  49.820  1.00  0.00    -0.015 C 
HETATM    3  C10 UNL     1      24.313   3.711  49.326  1.00  0.00     0.033 C 
HETATM    4  C11 UNL     1      25.393   2.992  49.523  1.00  0.00     0.011 C 
HETATM    5  C12 UNL     1      26.414   3.636  50.078  1.00  0.00     0.160 C 
HETATM    6  O2  UNL     1      25.647   3.499  51.213  1.00  0.00    -0.378 OA
HETATM    7  C13 UNL     1      25.732   2.451  52.133  1.00  0.00     0.207 C 
HETATM    8  C14 UNL     1      24.378   1.934  52.395  1.00  0.00    -0.021 A 
HETATM    9  C15 UNL     1      24.357   0.594  52.805  1.00  0.00     0.052 A 
HETATM   10  C16 UNL     1      23.125   0.005  53.065  1.00  0.00     0.117 A 
HETATM   11  F1  UNL     1      23.085  -1.306  53.465  1.00  0.00    -0.206 F 
HETATM   12  C17 UNL     1      21.902   0.628  52.953  1.00  0.00     0.043 A 
HETATM   13  C18 UNL     1      21.954   1.940  52.549  1.00  0.00     0.015 A 
HETATM   14  C19 UNL     1      23.150   2.535  52.290  1.00  0.00    -0.026 A 
HETATM   15  C20 UNL     1      23.276   3.896  51.863  1.00  0.00     0.036 C 
HETATM   16  C21 UNL     1      23.592   4.880  51.083  1.00  0.00     0.044 C 
HETATM   17 CL1  UNL     1      23.393   6.596  51.237  1.00  0.00    -0.083 Cl
ENDROOT
BRANCH   1  18
HETATM   18  C7  UNL     1      24.867   6.872  48.571  1.00  0.00     0.071 A 
HETATM   19  C6  UNL     1      26.030   7.605  48.477  1.00  0.00     0.020 A 
HETATM   20  C5  UNL     1      27.148   6.668  48.391  1.00  0.00     0.029 C 
HETATM   21  C23 UNL     1      26.101   8.980  48.444  1.00  0.00     0.072 A 
HETATM   22  C4  UNL     1      28.459   6.938  48.364  1.00  0.00     0.012 C 
HETATM   23  C25 UNL     1      29.061   8.297  48.413  1.00  0.00     0.210 C 
HETATM   24  O3  UNL     1      28.310   9.210  49.104  1.00  0.00    -0.381 OA
HETATM   25  C24 UNL     1      27.319   9.832  48.349  1.00  0.00     0.228 C 
HETATM   26  N2  UNL     1      24.960   9.687  48.508  1.00  0.00    -0.243 NA
HETATM   27  C22 UNL     1      23.822   8.991  48.599  1.00  0.00     0.234 A 
HETATM   28  N1  UNL     1      23.750   7.661  48.631  1.00  0.00    -0.241 NA
BRANCH  22  29
HETATM   29  C3  UNL     1      29.324   5.786  48.274  1.00  0.00     0.157 C 
HETATM   30  O1  UNL     1      28.827   4.652  48.250  1.00  0.00    -0.293 OA
BRANCH  29  31
HETATM   31  C2  UNL     1      30.799   5.857  48.209  1.00  0.00     0.079 C 
HETATM   32  C1  UNL     1      31.377   4.637  47.521  1.00  0.00     0.013 C 
ENDBRANCH  29  31
ENDBRANCH  22  29
ENDBRANCH   1  18
TORSDOF 3
ENDMDL
MODEL 4
REMARK VINA RESULT:      -8.7      2.341      3.883
REMARK  3 active torsions:
REMARK  status: ('A' for Active; 'I' for Inactive)
REMARK    1  A    between atoms: C2_2  and  C3_3 
REMARK    2  A    between atoms: C3_3  and  C4_5 
REMARK    3  A    between atoms: C7_8  and  C8_9 
ROOT
HETATM    1  C8  UNL     1      23.680   1.833  50.935  1.00  0.00     0.045 C 
HETATM    2  C9  UNL     1      23.751   3.073  51.384  1.00  0.00    -0.015 C 
HETATM    3  C10 UNL     1      23.448   3.434  49.970  1.00  0.00     0.033 C 
HETATM    4  C11 UNL     1      22.220   3.559  49.525  1.00  0.00     0.011 C 
HETATM    5  C12 UNL     1      21.265   3.218  50.383  1.00  0.00     0.160 C 
HETATM    6  O2  UNL     1      21.594   4.427  50.950  1.00  0.00    -0.378 OA
HETATM    7  C13 UNL     1      20.984   5.653  50.669  1.00  0.00     0.207 C 
HETATM    8  C14 UNL     1      22.029   6.656  50.402  1.00  0.00    -0.021 A 
HETATM    9  C15 UNL     1      21.602   7.708  49.580  1.00  0.00     0.052 A 
HETATM   10  C16 UNL     1      22.518   8.702  49.255  1.00  0.00     0.117 A 
HETATM   11  F1  UNL     1      22.118   9.738  48.449  1.00  0.00    -0.206 F 
HETATM   12  C17 UNL     1      23.829   8.749  49.674  1.00  0.00     0.043 A 
HETATM   13  C18 UNL     1      24.219   7.705  50.477  1.00  0.00     0.015 A 
HETATM   14  C19 UNL     1      23.337   6.721  50.808  1.00  0.00    -0.026 A 
HETATM   15  C20 UNL     1      23.678   5.606  51.637  1.00  0.00     0.036 C 
HETATM   16  C21 UNL     1      23.859   4.364  51.956  1.00  0.00     0.044 C 
HETATM   17 CL1  UNL     1      24.408   3.606  53.415  1.00  0.00    -0.083 Cl
ENDROOT
BRANCH   1  18
HETATM   18  C7  UNL     1      23.926   0.916  52.042  1.00  0.00     0.071 A 
HETATM   19  C6  UNL     1      22.995   0.265  52.823  1.00  0.00     0.020 A 
HETATM   20  C5  UNL     1      21.667   0.585  52.302  1.00  0.00     0.029 C 
HETATM   21  C23 UNL     1      23.287  -0.559  53.887  1.00  0.00     0.072 A 
HETATM   22  C4  UNL     1      20.474   0.235  52.796  1.00  0.00     0.012 C 
HETATM   23  C25 UNL     1      20.253  -0.585  54.018  1.00  0.00     0.210 C 
HETATM   24  O3  UNL     1      21.237  -0.449  54.961  1.00  0.00    -0.381 OA
HETATM   25  C24 UNL     1      22.334  -1.285  54.772  1.00  0.00     0.228 C 
HETATM   26  N2  UNL     1      24.575  -0.761  54.211  1.00  0.00    -0.243 NA
HETATM   27  C22 UNL     1      25.492  -0.139  53.463  1.00  0.00     0.234 A 
HETATM   28  N1  UNL     1      25.213   0.659  52.433  1.00  0.00    -0.241 NA
BRANCH  22  29
HETATM   29  C3  UNL     1      19.333   0.708  52.049  1.00  0.00     0.157 C 
HETATM   30  O1  UNL     1      18.995   1.895  52.143  1.00  0.00    -0.293 OA
BRANCH  29  31
HETATM   31  C2  UNL     1      18.514  -0.139  51.156  1.00  0.00     0.079 C 
HETATM   32  C1  UNL     1      17.836   0.690  50.083  1.00  0.00     0.013 C 
ENDBRANCH  29  31
ENDBRANCH  22  29
ENDBRANCH   1  18
TORSDOF 3
ENDMDL
MODEL 5
REMARK VINA RESULT:      -8.6      3.807      6.526
REMARK  3 active torsions:
REMARK  status: ('A' for Active; 'I' for Inactive)
REMARK    1  A    between atoms: C2_2  and  C3_3 
REMARK    2  A    between atoms: C3_3  and  C4_5 
REMARK    3  A    between atoms: C7_8  and  C8_9 
ROOT
HETATM    1  C8  UNL     1      21.737   2.688  52.168  1.00  0.00     0.045 C 
HETATM    2  C9  UNL     1      21.023   2.011  51.287  1.00  0.00    -0.015 C 
HETATM    3  C10 UNL     1      19.866   2.479  52.101  1.00  0.00     0.033 C 
HETATM    4  C11 UNL     1      19.259   3.619  51.868  1.00  0.00     0.011 C 
HETATM    5  C12 UNL     1      19.823   4.387  50.942  1.00  0.00     0.160 C 
HETATM    6  O2  UNL     1      19.254   3.466  50.092  1.00  0.00    -0.378 OA
HETATM    7  C13 UNL     1      17.994   3.574  49.497  1.00  0.00     0.207 C 
HETATM    8  C14 UNL     1      17.261   2.313  49.700  1.00  0.00    -0.021 A 
HETATM    9  C15 UNL     1      15.867   2.464  49.686  1.00  0.00     0.052 A 
HETATM   10  C16 UNL     1      15.081   1.335  49.883  1.00  0.00     0.117 A 
HETATM   11  F1  UNL     1      13.716   1.464  49.875  1.00  0.00    -0.206 F 
HETATM   12  C17 UNL     1      15.554   0.059  50.095  1.00  0.00     0.043 A 
HETATM   13  C18 UNL     1      16.923  -0.059  50.105  1.00  0.00     0.015 A 
HETATM   14  C19 UNL     1      17.711   1.035  49.913  1.00  0.00    -0.026 A 
HETATM   15  C20 UNL     1      19.141   0.984  49.914  1.00  0.00     0.036 C 
HETATM   16  C21 UNL     1      20.347   1.250  50.303  1.00  0.00     0.044 C 
HETATM   17 CL1  UNL     1      21.896   0.715  49.738  1.00  0.00    -0.083 Cl
ENDROOT
BRANCH   1  18
HETATM   18  C7  UNL     1      23.149   2.571  51.821  1.00  0.00     0.071 A 
HETATM   19  C6  UNL     1      24.054   1.632  52.268  1.00  0.00     0.020 A 
HETATM   20  C5  UNL     1      23.336   0.683  53.116  1.00  0.00     0.029 C 
HETATM   21  C23 UNL     1      25.390   1.597  51.939  1.00  0.00     0.072 A 
HETATM   22  C4  UNL     1      23.831  -0.343  53.820  1.00  0.00     0.012 C 
HETATM   23  C25 UNL     1      25.263  -0.738  53.877  1.00  0.00     0.210 C 
HETATM   24  O3  UNL     1      26.133   0.308  53.715  1.00  0.00    -0.381 OA
HETATM   25  C24 UNL     1      26.419   0.618  52.388  1.00  0.00     0.228 C 
HETATM   26  N2  UNL     1      25.877   2.543  51.118  1.00  0.00    -0.243 NA
HETATM   27  C22 UNL     1      25.013   3.462  50.674  1.00  0.00     0.234 A 
HETATM   28  N1  UNL     1      23.719   3.499  50.991  1.00  0.00    -0.241 NA
BRANCH  22  29
HETATM   29  C3  UNL     1      22.859  -1.105  54.567  1.00  0.00     0.157 C 
HETATM   30  O1  UNL     1      23.081  -1.374  55.755  1.00  0.00    -0.293 OA
BRANCH  29  31
HETATM   31  C2  UNL     1      21.585  -1.604  54.008  1.00  0.00     0.079 C 
HETATM   32  C1  UNL     1      20.480  -0.578  54.158  1.00  0.00     0.013 C 
ENDBRANCH  29  31
ENDBRANCH  22  29
ENDBRANCH   1  18
TORSDOF 3
ENDMDL
MODEL 6
REMARK VINA RESULT:      -8.6      3.651      6.884
REMARK  3 active torsions:
REMARK  status: ('A' for Active; 'I' for Inactive)
REMARK    1  A    between atoms: C2_2  and  C3_3 
REMARK    2  A    between atoms: C3_3  and  C4_5 
REMARK    3  A    between atoms: C7_8  and  C8_9 
ROOT
HETATM    1  C8  UNL     1      23.281   4.158  51.278  1.00  0.00     0.045 C 
HETATM    2  C9  UNL     1      24.507   3.684  51.151  1.00  0.00    -0.015 C 
HETATM    3  C10 UNL     1      24.351   3.333  52.591  1.00  0.00     0.033 C 
HETATM    4  C11 UNL     1      23.840   2.189  52.984  1.00  0.00     0.011 C 
HETATM    5  C12 UNL     1      23.355   1.419  52.017  1.00  0.00     0.160 C 
HETATM    6  O2  UNL     1      24.690   1.185  51.781  1.00  0.00    -0.378 OA
HETATM    7  C13 UNL     1      25.442   0.136  52.319  1.00  0.00     0.207 C 
HETATM    8  C14 UNL     1      26.689   0.682  52.880  1.00  0.00    -0.021 A 
HETATM    9  C15 UNL     1      27.232  -0.100  53.910  1.00  0.00     0.052 A 
HETATM   10  C16 UNL     1      28.403   0.334  54.518  1.00  0.00     0.117 A 
HETATM   11  F1  UNL     1      28.947  -0.417  55.529  1.00  0.00    -0.206 F 
HETATM   12  C17 UNL     1      29.092   1.483  54.198  1.00  0.00     0.043 A 
HETATM   13  C18 UNL     1      28.536   2.229  53.187  1.00  0.00     0.015 A 
HETATM   14  C19 UNL     1      27.389   1.821  52.577  1.00  0.00    -0.026 A 
HETATM   15  C20 UNL     1      26.757   2.550  51.521  1.00  0.00     0.036 C 
HETATM   16  C21 UNL     1      25.822   3.215  50.919  1.00  0.00     0.044 C 
HETATM   17 CL1  UNL     1      25.745   3.952  49.351  1.00  0.00    -0.083 Cl
ENDROOT
BRANCH   1  18
HETATM   18  C7  UNL     1      22.851   4.705  49.997  1.00  0.00     0.071 A 
HETATM   19  C6  UNL     1      21.777   4.311  49.228  1.00  0.00     0.020 A 
HETATM   20  C5  UNL     1      21.056   3.271  49.959  1.00  0.00     0.029 C 
HETATM   21  C23 UNL     1      21.444   4.837  48.000  1.00  0.00     0.072 A 
HETATM   22  C4  UNL     1      20.001   2.552  49.559  1.00  0.00     0.012 C 
HETATM   23  C25 UNL     1      19.322   2.677  48.241  1.00  0.00     0.210 C 
HETATM   24  O3  UNL     1      20.152   3.076  47.226  1.00  0.00    -0.381 OA
HETATM   25  C24 UNL     1      20.306   4.456  47.118  1.00  0.00     0.228 C 
HETATM   26  N2  UNL     1      22.211   5.815  47.487  1.00  0.00    -0.243 NA
HETATM   27  C22 UNL     1      23.257   6.210  48.220  1.00  0.00     0.234 A 
HETATM   28  N1  UNL     1      23.582   5.702  49.409  1.00  0.00    -0.241 NA
BRANCH  22  29
HETATM   29  C3  UNL     1      19.509   1.591  50.516  1.00  0.00     0.157 C 
HETATM   30  O1  UNL     1      18.866   0.611  50.118  1.00  0.00    -0.293 OA
BRANCH  29  31
HETATM   31  C2  UNL     1      19.717   1.690  51.976  1.00  0.00     0.079 C 
HETATM   32  C1  UNL     1      19.794   0.317  52.614  1.00  0.00     0.013 C 
ENDBRANCH  29  31
ENDBRANCH  22  29
ENDBRANCH   1  18
TORSDOF 3
ENDMDL
MODEL 7
REMARK VINA RESULT:      -8.4      3.410      6.535
REMARK  3 active torsions:
REMARK  status: ('A' for Active; 'I' for Inactive)
REMARK    1  A    between atoms: C2_2  and  C3_3 
REMARK    2  A    between atoms: C3_3  and  C4_5 
REMARK    3  A    between atoms: C7_8  and  C8_9 
ROOT
HETATM    1  C8  UNL     1      19.963   0.595  50.871  1.00  0.00     0.045 C 
HETATM    2  C9  UNL     1      20.809   0.372  51.861  1.00  0.00    -0.015 C 
HETATM    3  C10 UNL     1      21.846   0.636  50.823  1.00  0.00     0.033 C 
HETATM    4  C11 UNL     1      22.298   1.842  50.573  1.00  0.00     0.011 C 
HETATM    5  C12 UNL     1      21.680   2.827  51.216  1.00  0.00     0.160 C 
HETATM    6  O2  UNL     1      22.415   2.352  52.277  1.00  0.00    -0.378 OA
HETATM    7  C13 UNL     1      23.677   2.810  52.667  1.00  0.00     0.207 C 
HETATM    8  C14 UNL     1      24.568   1.653  52.856  1.00  0.00    -0.021 A 
HETATM    9  C15 UNL     1      25.926   1.954  52.677  1.00  0.00     0.052 A 
HETATM   10  C16 UNL     1      26.851   0.927  52.819  1.00  0.00     0.117 A 
HETATM   11  F1  UNL     1      28.183   1.202  52.646  1.00  0.00    -0.206 F 
HETATM   12  C17 UNL     1      26.552  -0.383  53.124  1.00  0.00     0.043 A 
HETATM   13  C18 UNL     1      25.214  -0.648  53.292  1.00  0.00     0.015 A 
HETATM   14  C19 UNL     1      24.291   0.345  53.158  1.00  0.00    -0.026 A 
HETATM   15  C20 UNL     1      22.884   0.137  53.317  1.00  0.00     0.036 C 
HETATM   16  C21 UNL     1      21.634   0.106  52.979  1.00  0.00     0.044 C 
HETATM   17 CL1  UNL     1      20.207  -0.355  53.849  1.00  0.00    -0.083 Cl
ENDROOT
BRANCH   1  18
HETATM   18  C7  UNL     1      18.601   0.456  51.374  1.00  0.00     0.071 A 
HETATM   19  C6  UNL     1      17.591   1.393  51.350  1.00  0.00     0.020 A 
HETATM   20  C5  UNL     1      18.088   2.572  50.642  1.00  0.00     0.029 C 
HETATM   21  C23 UNL     1      16.333   1.221  51.882  1.00  0.00     0.072 A 
HETATM   22  C4  UNL     1      17.476   3.746  50.451  1.00  0.00     0.012 C 
HETATM   23  C25 UNL     1      16.114   4.098  50.934  1.00  0.00     0.210 C 
HETATM   24  O3  UNL     1      15.753   3.454  52.088  1.00  0.00    -0.381 OA
HETATM   25  C24 UNL     1      15.202   2.190  51.894  1.00  0.00     0.228 C 
HETATM   26  N2  UNL     1      16.040   0.052  52.478  1.00  0.00    -0.243 NA
HETATM   27  C22 UNL     1      17.008  -0.870  52.510  1.00  0.00     0.234 A 
HETATM   28  N1  UNL     1      18.226  -0.705  51.997  1.00  0.00    -0.241 NA
BRANCH  22  29
HETATM   29  C3  UNL     1      18.233   4.723  49.704  1.00  0.00     0.157 C 
HETATM   30  O1  UNL     1      17.743   5.218  48.680  1.00  0.00    -0.293 OA
BRANCH  29  31
HETATM   31  C2  UNL     1      19.584   5.190  50.076  1.00  0.00     0.079 C 
HETATM   32  C1  UNL     1      20.483   5.296  48.860  1.00  0.00     0.013 C 
ENDBRANCH  29  31
ENDBRANCH  22  29
ENDBRANCH   1  18
TORSDOF 3
ENDMDL
MODEL 8
REMARK VINA RESULT:      -8.3      2.430      3.601
REMARK  3 active torsions:
REMARK  status: ('A' for Active; 'I' for Inactive)
REMARK    1  A    between atoms: C2_2  and  C3_3 
REMARK    2  A    between atoms: C3_3  and  C4_5 
REMARK    3  A    between atoms: C7_8  and  C8_9 
ROOT
HETATM    1  C8  UNL     1      21.085   4.383  51.643  1.00  0.00     0.045 C 
HETATM    2  C9  UNL     1      21.673   4.663  50.493  1.00  0.00    -0.015 C 
HETATM    3  C10 UNL     1      22.827   5.041  51.358  1.00  0.00     0.033 C 
HETATM    4  C11 UNL     1      23.739   4.173  51.729  1.00  0.00     0.011 C 
HETATM    5  C12 UNL     1      23.498   2.911  51.390  1.00  0.00     0.160 C 
HETATM    6  O2  UNL     1      23.879   3.363  50.147  1.00  0.00    -0.378 OA
HETATM    7  C13 UNL     1      25.173   3.318  49.624  1.00  0.00     0.207 C 
HETATM    8  C14 UNL     1      25.515   4.642  49.078  1.00  0.00    -0.021 A 
HETATM    9  C15 UNL     1      26.892   4.905  49.059  1.00  0.00     0.052 A 
HETATM   10  C16 UNL     1      27.320   6.136  48.576  1.00  0.00     0.117 A 
HETATM   11  F1  UNL     1      28.664   6.411  48.553  1.00  0.00    -0.206 F 
HETATM   12  C17 UNL     1      26.502   7.139  48.106  1.00  0.00     0.043 A 
HETATM   13  C18 UNL     1      25.158   6.854  48.138  1.00  0.00     0.015 A 
HETATM   14  C19 UNL     1      24.718   5.654  48.607  1.00  0.00    -0.026 A 
HETATM   15  C20 UNL     1      23.334   5.293  48.670  1.00  0.00     0.036 C 
HETATM   16  C21 UNL     1      22.212   4.946  49.216  1.00  0.00     0.044 C 
HETATM   17 CL1  UNL     1      20.640   4.643  48.551  1.00  0.00    -0.083 Cl
ENDROOT
BRANCH   1  18
HETATM   18  C7  UNL     1      19.735   3.898  51.376  1.00  0.00     0.071 A 
HETATM   19  C6  UNL     1      19.226   2.641  51.620  1.00  0.00     0.020 A 
HETATM   20  C5  UNL     1      20.263   1.856  52.287  1.00  0.00     0.029 C 
HETATM   21  C23 UNL     1      17.952   2.225  51.305  1.00  0.00     0.072 A 
HETATM   22  C4  UNL     1      20.232   0.564  52.637  1.00  0.00     0.012 C 
HETATM   23  C25 UNL     1      19.091  -0.363  52.413  1.00  0.00     0.210 C 
HETATM   24  O3  UNL     1      18.339  -0.059  51.309  1.00  0.00    -0.381 OA
HETATM   25  C24 UNL     1      17.341   0.886  51.535  1.00  0.00     0.228 C 
HETATM   26  N2  UNL     1      17.117   3.096  50.713  1.00  0.00    -0.243 NA
HETATM   27  C22 UNL     1      17.594   4.321  50.470  1.00  0.00     0.234 A 
HETATM   28  N1  UNL     1      18.827   4.726  50.773  1.00  0.00    -0.241 NA
BRANCH  22  29
HETATM   29  C3  UNL     1      21.423   0.073  53.288  1.00  0.00     0.157 C 
HETATM   30  O1  UNL     1      22.467  -0.048  52.634  1.00  0.00    -0.293 OA
BRANCH  29  31
HETATM   31  C2  UNL     1      21.495  -0.309  54.714  1.00  0.00     0.079 C 
HETATM   32  C1  UNL     1      21.883  -1.765  54.874  1.00  0.00     0.013 C 
ENDBRANCH  29  31
ENDBRANCH  22  29
ENDBRANCH   1  18
TORSDOF 3
ENDMDL
MODEL 9
REMARK VINA RESULT:      -8.3      4.678      7.872
REMARK  3 active torsions:
REMARK  status: ('A' for Active; 'I' for Inactive)
REMARK    1  A    between atoms: C2_2  and  C3_3 
REMARK    2  A    between atoms: C3_3  and  C4_5 
REMARK    3  A    between atoms: C7_8  and  C8_9 
ROOT
HETATM    1  C8  UNL     1      17.167  -0.323  50.911  1.00  0.00     0.045 C 
HETATM    2  C9  UNL     1      18.075  -0.462  51.861  1.00  0.00    -0.015 C 
HETATM    3  C10 UNL     1      19.010   0.060  50.824  1.00  0.00     0.033 C 
HETATM    4  C11 UNL     1      19.231   1.343  50.660  1.00  0.00     0.011 C 
HETATM    5  C12 UNL     1      18.472   2.151  51.391  1.00  0.00     0.160 C 
HETATM    6  O2  UNL     1      19.317   1.739  52.395  1.00  0.00    -0.378 OA
HETATM    7  C13 UNL     1      20.490   2.387  52.791  1.00  0.00     0.207 C 
HETATM    8  C14 UNL     1      21.579   1.399  52.869  1.00  0.00    -0.021 A 
HETATM    9  C15 UNL     1      22.855   1.952  52.684  1.00  0.00     0.052 A 
HETATM   10  C16 UNL     1      23.953   1.101  52.724  1.00  0.00     0.117 A 
HETATM   11  F1  UNL     1      25.207   1.624  52.543  1.00  0.00    -0.206 F 
HETATM   12  C17 UNL     1      23.902  -0.260  52.932  1.00  0.00     0.043 A 
HETATM   13  C18 UNL     1      22.640  -0.773  53.108  1.00  0.00     0.015 A 
HETATM   14  C19 UNL     1      21.551   0.044  53.073  1.00  0.00    -0.026 A 
HETATM   15  C20 UNL     1      20.210  -0.425  53.247  1.00  0.00     0.036 C 
HETATM   16  C21 UNL     1      18.974  -0.656  52.936  1.00  0.00     0.044 C 
HETATM   17 CL1  UNL     1      17.684  -1.429  53.798  1.00  0.00    -0.083 Cl
ENDROOT
BRANCH   1  18
HETATM   18  C7  UNL     1      15.871  -0.742  51.432  1.00  0.00     0.071 A 
HETATM   19  C6  UNL     1      14.887   0.050  51.984  1.00  0.00     0.020 A 
HETATM   20  C5  UNL     1      15.324   1.441  51.892  1.00  0.00     0.029 C 
HETATM   21  C23 UNL     1      13.696  -0.409  52.501  1.00  0.00     0.072 A 
HETATM   22  C4  UNL     1      14.720   2.536  52.371  1.00  0.00     0.012 C 
HETATM   23  C25 UNL     1      13.432   2.554  53.116  1.00  0.00     0.210 C 
HETATM   24  O3  UNL     1      13.194   1.415  53.839  1.00  0.00    -0.381 OA
HETATM   25  C24 UNL     1      12.597   0.388  53.115  1.00  0.00     0.228 C 
HETATM   26  N2  UNL     1      13.449  -1.729  52.478  1.00  0.00    -0.243 NA
HETATM   27  C22 UNL     1      14.392  -2.512  51.945  1.00  0.00     0.234 A 
HETATM   28  N1  UNL     1      15.546  -2.072  51.444  1.00  0.00    -0.241 NA
BRANCH  22  29
HETATM   29  C3  UNL     1      15.406   3.780  52.118  1.00  0.00     0.157 C 
HETATM   30  O1  UNL     1      15.852   4.432  53.071  1.00  0.00    -0.293 OA
BRANCH  29  31
HETATM   31  C2  UNL     1      15.621   4.353  50.773  1.00  0.00     0.079 C 
HETATM   32  C1  UNL     1      14.309   4.526  50.033  1.00  0.00     0.013 C 
ENDBRANCH  29  31
ENDBRANCH  22  29
ENDBRANCH   1  18
TORSDOF 3
ENDMDL
