MODEL 1
REMARK VINA RESULT:      -9.5      0.000      0.000
REMARK  6 active torsions:
REMARK  status: ('A' for Active; 'I' for Inactive)
REMARK    1  A    between atoms: C1_2  and  C2_3 
REMARK       I    between atoms: C1_2  and  N1_11 
REMARK    2  A    between atoms: C2_3  and  O2_4 
REMARK    3  A    between atoms: O2_4  and  C3_5 
REMARK    4  A    between atoms: N1_11  and  C9_12 
REMARK    5  A    between atoms: C14_19  and  N4_20 
REMARK    6  A    between atoms: N4_20  and  C15_21 
ROOT
HETATM    1  C9  UNL     1      24.373  -0.291  53.704  1.00  0.00     0.035 A 
HETATM    2  C10 UNL     1      25.143  -0.595  54.800  1.00  0.00     0.032 A 
HETATM    3  C11 UNL     1      26.394  -0.081  55.045  1.00  0.00     0.035 A 
HETATM    4  C12 UNL     1      26.880   0.799  54.104  1.00  0.00     0.072 A 
HETATM    5  N2  UNL     1      28.123   1.316  54.336  1.00  0.00    -0.241 NA
HETATM    6  C13 UNL     1      28.683   2.179  53.480  1.00  0.00     0.236 A 
HETATM    7  N3  UNL     1      27.955   2.491  52.408  1.00  0.00    -0.224 NA
HETATM    8  C14 UNL     1      26.745   2.047  52.091  1.00  0.00     0.142 A 
HETATM    9  C21 UNL     1      26.176   1.160  52.975  1.00  0.00     0.041 A 
HETATM   10  C22 UNL     1      24.933   0.595  52.816  1.00  0.00     0.047 A 
ENDROOT
BRANCH   1  11
HETATM   11  N1  UNL     1      23.087  -0.790  53.409  1.00  0.00    -0.325 N 
HETATM   12  C1  UNL     1      22.053  -1.159  54.292  1.00  0.00     0.246 C 
HETATM   13  O1  UNL     1      22.251  -1.046  55.524  1.00  0.00    -0.271 OA
HETATM   14  H10 UNL     1      22.776  -0.938  52.426  1.00  0.00     0.169 HD
BRANCH  12  15
HETATM   15  C2  UNL     1      20.726  -1.676  53.924  1.00  0.00     0.278 C 
BRANCH  15  16
HETATM   16  O2  UNL     1      19.830  -0.586  53.780  1.00  0.00    -0.346 OA
BRANCH  16  17
HETATM   17  C3  UNL     1      19.298  -0.211  52.572  1.00  0.00     0.047 A 
HETATM   18  C4  UNL     1      19.939   0.488  51.640  1.00  0.00     0.032 A 
HETATM   19  C5  UNL     1      19.246   0.819  50.394  1.00  0.00    -0.002 A 
HETATM   20  C6  UNL     1      18.000   0.409  50.242  1.00  0.00    -0.026 A 
HETATM   21  C7  UNL     1      17.208  -0.364  51.209  1.00  0.00     0.033 A 
HETATM   22  C8  UNL     1      17.907  -0.705  52.480  1.00  0.00     0.068 A 
ENDBRANCH  16  17
ENDBRANCH  15  16
ENDBRANCH  12  15
ENDBRANCH   1  11
BRANCH   8  23
HETATM   23  N4  UNL     1      26.044   2.433  50.928  1.00  0.00    -0.340 N 
HETATM   24  H14 UNL     1      25.408   1.785  50.429  1.00  0.00     0.167 HD
BRANCH  23  25
HETATM   25  C15 UNL     1      26.081   3.688  50.272  1.00  0.00     0.035 A 
HETATM   26  C16 UNL     1      26.983   4.030  49.303  1.00  0.00     0.029 A 
HETATM   27  C17 UNL     1      27.040   5.239  48.665  1.00  0.00     0.004 A 
HETATM   28  C18 UNL     1      26.133   6.222  48.994  1.00  0.00     0.019 A 
HETATM   29  C19 UNL     1      25.197   5.947  49.961  1.00  0.00     0.013 A 
HETATM   30 BR1  UNL     1      23.923   7.269  50.452  1.00  0.00    -0.051 Br
HETATM   31  C20 UNL     1      25.201   4.722  50.552  1.00  0.00     0.048 A 
ENDBRANCH  23  25
ENDBRANCH   8  23
TORSDOF 6
ENDMDL
MODEL 2
REMARK VINA RESULT:      -9.3      3.403      6.845
REMARK  6 active torsions:
REMARK  status: ('A' for Active; 'I' for Inactive)
REMARK    1  A    between atoms: C1_2  and  C2_3 
REMARK       I    between atoms: C1_2  and  N1_11 
REMARK    2  A    between atoms: C2_3  and  O2_4 
REMARK    3  A    between atoms: O2_4  and  C3_5 
REMARK    4  A    between atoms: N1_11  and  C9_12 
REMARK    5  A    between atoms: C14_19  and  N4_20 
REMARK    6  A    between atoms: N4_20  and  C15_21 
ROOT
HETATM    1  C9  UNL     1      21.502   2.130  51.944  1.00  0.00     0.035 A 
HETATM    2  C10 UNL     1      20.449   1.884  52.790  1.00  0.00     0.032 A 
HETATM    3  C11 UNL     1      20.471   0.977  53.824  1.00  0.00     0.035 A 
HETATM    4  C12 UNL     1      21.650   0.286  53.995  1.00  0.00     0.072 A 
HETATM    5  N2  UNL     1      21.684  -0.618  55.019  1.00  0.00    -0.241 NA
HETATM    6  C13 UNL     1      22.784  -1.340  55.266  1.00  0.00     0.236 A 
HETATM    7  N3  UNL     1      23.820  -1.118  54.458  1.00  0.00    -0.224 NA
HETATM    8  C14 UNL     1      23.889  -0.268  53.441  1.00  0.00     0.142 A 
HETATM    9  C21 UNL     1      22.755   0.471  53.192  1.00  0.00     0.041 A 
HETATM   10  C22 UNL     1      22.638   1.398  52.185  1.00  0.00     0.047 A 
ENDROOT
BRANCH   1  11
HETATM   11  N1  UNL     1      21.527   3.048  50.873  1.00  0.00    -0.325 N 
HETATM   12  C1  UNL     1      21.873   4.414  50.880  1.00  0.00     0.246 C 
HETATM   13  O1  UNL     1      22.215   4.937  51.965  1.00  0.00    -0.271 OA
HETATM   14  H10 UNL     1      21.268   2.759  49.906  1.00  0.00     0.169 HD
BRANCH  12  15
HETATM   15  C2  UNL     1      21.880   5.324  49.724  1.00  0.00     0.278 C 
BRANCH  15  16
HETATM   16  O2  UNL     1      22.754   4.806  48.734  1.00  0.00    -0.346 OA
BRANCH  16  17
HETATM   17  C3  UNL     1      24.106   4.671  48.927  1.00  0.00     0.047 A 
HETATM   18  C4  UNL     1      24.715   3.552  49.307  1.00  0.00     0.032 A 
HETATM   19  C5  UNL     1      26.169   3.553  49.473  1.00  0.00    -0.002 A 
HETATM   20  C6  UNL     1      26.827   4.674  49.239  1.00  0.00    -0.026 A 
HETATM   21  C7  UNL     1      26.247   5.957  48.818  1.00  0.00     0.033 A 
HETATM   22  C8  UNL     1      24.767   5.964  48.645  1.00  0.00     0.068 A 
ENDBRANCH  16  17
ENDBRANCH  15  16
ENDBRANCH  12  15
ENDBRANCH   1  11
BRANCH   8  23
HETATM   23  N4  UNL     1      25.035  -0.097  52.634  1.00  0.00    -0.340 N 
HETATM   24  H14 UNL     1      25.050  -0.373  51.635  1.00  0.00     0.167 HD
BRANCH  23  25
HETATM   25  C15 UNL     1      26.289   0.443  53.014  1.00  0.00     0.035 A 
HETATM   26  C16 UNL     1      26.524   1.770  53.244  1.00  0.00     0.029 A 
HETATM   27  C17 UNL     1      27.728   2.310  53.602  1.00  0.00     0.004 A 
HETATM   28  C18 UNL     1      28.822   1.487  53.754  1.00  0.00     0.019 A 
HETATM   29  C19 UNL     1      28.658   0.140  53.537  1.00  0.00     0.013 A 
HETATM   30 BR1  UNL     1      30.136  -1.040  53.733  1.00  0.00    -0.051 Br
HETATM   31  C20 UNL     1      27.430  -0.326  53.184  1.00  0.00     0.048 A 
ENDBRANCH  23  25
ENDBRANCH   8  23
TORSDOF 6
ENDMDL
MODEL 3
REMARK VINA RESULT:      -9.2      1.562      2.274
REMARK  6 active torsions:
REMARK  status: ('A' for Active; 'I' for Inactive)
REMARK    1  A    between atoms: C1_2  and  C2_3 
REMARK       I    between atoms: C1_2  and  N1_11 
REMARK    2  A    between atoms: C2_3  and  O2_4 
REMARK    3  A    between atoms: O2_4  and  C3_5 
REMARK    4  A    between atoms: N1_11  and  C9_12 
REMARK    5  A    between atoms: C14_19  and  N4_20 
REMARK    6  A    between atoms: N4_20  and  C15_21 
ROOT
HETATM    1  C9  UNL     1      23.154   0.114  52.730  1.00  0.00     0.035 A 
HETATM    2  C10 UNL     1      23.794  -0.524  53.764  1.00  0.00     0.032 A 
HETATM    3  C11 UNL     1      25.104  -0.310  54.124  1.00  0.00     0.035 A 
HETATM    4  C12 UNL     1      25.792   0.618  53.374  1.00  0.00     0.072 A 
HETATM    5  N2  UNL     1      27.095   0.839  53.723  1.00  0.00    -0.241 NA
HETATM    6  C13 UNL     1      27.848   1.720  53.055  1.00  0.00     0.236 A 
HETATM    7  N3  UNL     1      27.248   2.353  52.047  1.00  0.00    -0.224 NA
HETATM    8  C14 UNL     1      25.996   2.212  51.630  1.00  0.00     0.142 A 
HETATM    9  C21 UNL     1      25.227   1.304  52.321  1.00  0.00     0.041 A 
HETATM   10  C22 UNL     1      23.913   1.023  52.035  1.00  0.00     0.047 A 
ENDROOT
BRANCH   1  11
HETATM   11  N1  UNL     1      21.816  -0.070  52.323  1.00  0.00    -0.325 N 
HETATM   12  C1  UNL     1      20.626   0.195  53.031  1.00  0.00     0.246 C 
HETATM   13  O1  UNL     1      20.713   0.663  54.190  1.00  0.00    -0.271 OA
HETATM   14  H10 UNL     1      21.583  -0.452  51.382  1.00  0.00     0.169 HD
BRANCH  12  15
HETATM   15  C2  UNL     1      19.252  -0.020  52.551  1.00  0.00     0.278 C 
BRANCH  15  16
HETATM   16  O2  UNL     1      18.494  -0.632  53.583  1.00  0.00    -0.346 OA
BRANCH  16  17
HETATM   17  C3  UNL     1      17.673  -1.709  53.367  1.00  0.00     0.047 A 
HETATM   18  C4  UNL     1      17.880  -2.933  53.844  1.00  0.00     0.032 A 
HETATM   19  C5  UNL     1      16.917  -3.991  53.534  1.00  0.00    -0.002 A 
HETATM   20  C6  UNL     1      15.871  -3.688  52.786  1.00  0.00    -0.026 A 
HETATM   21  C7  UNL     1      15.557  -2.372  52.213  1.00  0.00     0.033 A 
HETATM   22  C8  UNL     1      16.533  -1.290  52.525  1.00  0.00     0.068 A 
ENDBRANCH  16  17
ENDBRANCH  15  16
ENDBRANCH  12  15
ENDBRANCH   1  11
BRANCH   8  23
HETATM   23  N4  UNL     1      25.441   2.928  50.547  1.00  0.00    -0.340 N 
HETATM   24  H14 UNL     1      24.567   2.627  50.079  1.00  0.00     0.167 HD
BRANCH  23  25
HETATM   25  C15 UNL     1      25.943   4.106  49.939  1.00  0.00     0.035 A 
HETATM   26  C16 UNL     1      27.041   4.150  49.126  1.00  0.00     0.029 A 
HETATM   27  C17 UNL     1      27.546   5.277  48.538  1.00  0.00     0.004 A 
HETATM   28  C18 UNL     1      26.930   6.489  48.757  1.00  0.00     0.019 A 
HETATM   29  C19 UNL     1      25.819   6.519  49.565  1.00  0.00     0.013 A 
HETATM   30 BR1  UNL     1      24.931   8.166  49.899  1.00  0.00    -0.051 Br
HETATM   31  C20 UNL     1      25.374   5.357  50.116  1.00  0.00     0.048 A 
ENDBRANCH  23  25
ENDBRANCH   8  23
TORSDOF 6
ENDMDL
MODEL 4
REMARK VINA RESULT:      -8.9      3.538      7.998
REMARK  6 active torsions:
REMARK  status: ('A' for Active; 'I' for Inactive)
REMARK    1  A    between atoms: C1_2  and  C2_3 
REMARK       I    between atoms: C1_2  and  N1_11 
REMARK    2  A    between atoms: C2_3  and  O2_4 
REMARK    3  A    between atoms: O2_4  and  C3_5 
REMARK    4  A    between atoms: N1_11  and  C9_12 
REMARK    5  A    between atoms: C14_19  and  N4_20 
REMARK    6  A    between atoms: N4_20  and  C15_21 
ROOT
HETATM    1  C9  UNL     1      24.811   3.249  50.769  1.00  0.00     0.035 A 
HETATM    2  C10 UNL     1      24.850   4.505  50.213  1.00  0.00     0.032 A 
HETATM    3  C11 UNL     1      23.908   5.007  49.347  1.00  0.00     0.035 A 
HETATM    4  C12 UNL     1      22.864   4.165  49.036  1.00  0.00     0.072 A 
HETATM    5  N2  UNL     1      21.921   4.653  48.175  1.00  0.00    -0.241 NA
HETATM    6  C13 UNL     1      20.868   3.911  47.812  1.00  0.00     0.236 A 
HETATM    7  N3  UNL     1      20.807   2.688  48.339  1.00  0.00    -0.224 NA
HETATM    8  C14 UNL     1      21.665   2.123  49.179  1.00  0.00     0.142 A 
HETATM    9  C21 UNL     1      22.745   2.890  49.549  1.00  0.00     0.041 A 
HETATM   10  C22 UNL     1      23.735   2.476  50.406  1.00  0.00     0.047 A 
ENDROOT
BRANCH   1  11
HETATM   11  N1  UNL     1      25.750   2.690  51.660  1.00  0.00    -0.325 N 
HETATM   12  C1  UNL     1      25.652   2.504  53.054  1.00  0.00     0.246 C 
HETATM   13  O1  UNL     1      24.602   2.867  53.632  1.00  0.00    -0.271 OA
HETATM   14  H10 UNL     1      26.673   2.341  51.326  1.00  0.00     0.169 HD
BRANCH  12  15
HETATM   15  C2  UNL     1      26.671   1.912  53.935  1.00  0.00     0.278 C 
BRANCH  15  16
HETATM   16  O2  UNL     1      27.737   1.418  53.140  1.00  0.00    -0.346 OA
BRANCH  16  17
HETATM   17  C3  UNL     1      28.122   0.102  53.141  1.00  0.00     0.047 A 
HETATM   18  C4  UNL     1      29.303  -0.347  53.555  1.00  0.00     0.032 A 
HETATM   19  C5  UNL     1      29.580  -1.783  53.500  1.00  0.00    -0.002 A 
HETATM   20  C6  UNL     1      28.638  -2.586  53.037  1.00  0.00    -0.026 A 
HETATM   21  C7  UNL     1      27.308  -2.188  52.557  1.00  0.00     0.033 A 
HETATM   22  C8  UNL     1      27.019  -0.727  52.610  1.00  0.00     0.068 A 
ENDBRANCH  16  17
ENDBRANCH  15  16
ENDBRANCH  12  15
ENDBRANCH   1  11
BRANCH   8  23
HETATM   23  N4  UNL     1      21.521   0.815  49.690  1.00  0.00    -0.340 N 
HETATM   24  H14 UNL     1      21.921  -0.011  49.208  1.00  0.00     0.167 HD
BRANCH  23  25
HETATM   25  C15 UNL     1      20.846   0.415  50.870  1.00  0.00     0.035 A 
HETATM   26  C16 UNL     1      19.487   0.373  51.009  1.00  0.00     0.029 A 
HETATM   27  C17 UNL     1      18.818  -0.000  52.142  1.00  0.00     0.004 A 
HETATM   28  C18 UNL     1      19.532  -0.372  53.260  1.00  0.00     0.019 A 
HETATM   29  C19 UNL     1      20.904  -0.352  53.191  1.00  0.00     0.013 A 
HETATM   30 BR1  UNL     1      21.938  -0.855  54.705  1.00  0.00    -0.051 Br
HETATM   31  C20 UNL     1      21.501   0.031  52.030  1.00  0.00     0.048 A 
ENDBRANCH  23  25
ENDBRANCH   8  23
TORSDOF 6
ENDMDL
MODEL 5
REMARK VINA RESULT:      -8.9      3.185      6.278
REMARK  6 active torsions:
REMARK  status: ('A' for Active; 'I' for Inactive)
REMARK    1  A    between atoms: C1_2  and  C2_3 
REMARK       I    between atoms: C1_2  and  N1_11 
REMARK    2  A    between atoms: C2_3  and  O2_4 
REMARK    3  A    between atoms: O2_4  and  C3_5 
REMARK    4  A    between atoms: N1_11  and  C9_12 
REMARK    5  A    between atoms: C14_19  and  N4_20 
REMARK    6  A    between atoms: N4_20  and  C15_21 
ROOT
HETATM    1  C9  UNL     1      26.238   3.749  49.983  1.00  0.00     0.035 A 
HETATM    2  C10 UNL     1      27.111   4.243  49.044  1.00  0.00     0.032 A 
HETATM    3  C11 UNL     1      27.160   5.554  48.635  1.00  0.00     0.035 A 
HETATM    4  C12 UNL     1      26.256   6.407  49.229  1.00  0.00     0.072 A 
HETATM    5  N2  UNL     1      26.296   7.713  48.830  1.00  0.00    -0.241 NA
HETATM    6  C13 UNL     1      25.458   8.619  49.348  1.00  0.00     0.236 A 
HETATM    7  N3  UNL     1      24.601   8.164  50.263  1.00  0.00    -0.224 NA
HETATM    8  C14 UNL     1      24.483   6.923  50.717  1.00  0.00     0.142 A 
HETATM    9  C21 UNL     1      25.346   5.997  50.180  1.00  0.00     0.041 A 
HETATM   10  C22 UNL     1      25.372   4.667  50.526  1.00  0.00     0.047 A 
ENDROOT
BRANCH   1  11
HETATM   11  N1  UNL     1      26.149   2.416  50.436  1.00  0.00    -0.325 N 
HETATM   12  C1  UNL     1      26.798   1.802  51.526  1.00  0.00     0.246 C 
HETATM   13  O1  UNL     1      27.573   2.493  52.226  1.00  0.00    -0.271 OA
HETATM   14  H10 UNL     1      25.542   1.720  49.954  1.00  0.00     0.169 HD
BRANCH  12  15
HETATM   15  C2  UNL     1      26.665   0.400  51.950  1.00  0.00     0.278 C 
BRANCH  15  16
HETATM   16  O2  UNL     1      26.120   0.364  53.259  1.00  0.00    -0.346 OA
BRANCH  16  17
HETATM   17  C3  UNL     1      24.788   0.151  53.508  1.00  0.00     0.047 A 
HETATM   18  C4  UNL     1      23.787   0.735  52.857  1.00  0.00     0.032 A 
HETATM   19  C5  UNL     1      22.408   0.412  53.229  1.00  0.00    -0.002 A 
HETATM   20  C6  UNL     1      22.209  -0.454  54.206  1.00  0.00    -0.026 A 
HETATM   21  C7  UNL     1      23.244  -1.150  54.984  1.00  0.00     0.033 A 
HETATM   22  C8  UNL     1      24.650  -0.826  54.610  1.00  0.00     0.068 A 
ENDBRANCH  16  17
ENDBRANCH  15  16
ENDBRANCH  12  15
ENDBRANCH   1  11
BRANCH   8  23
HETATM   23  N4  UNL     1      23.541   6.528  51.693  1.00  0.00    -0.340 N 
HETATM   24  H14 UNL     1      23.618   6.825  52.683  1.00  0.00     0.167 HD
BRANCH  23  25
HETATM   25  C15 UNL     1      22.400   5.709  51.513  1.00  0.00     0.035 A 
HETATM   26  C16 UNL     1      22.136   4.578  52.234  1.00  0.00     0.029 A 
HETATM   27  C17 UNL     1      21.045   3.769  52.068  1.00  0.00     0.004 A 
HETATM   28  C18 UNL     1      20.109   4.082  51.108  1.00  0.00     0.019 A 
HETATM   29  C19 UNL     1      20.311   5.207  50.345  1.00  0.00     0.013 A 
HETATM   30 BR1  UNL     1      19.049   5.683  49.005  1.00  0.00    -0.051 Br
HETATM   31  C20 UNL     1      21.420   5.963  50.566  1.00  0.00     0.048 A 
ENDBRANCH  23  25
ENDBRANCH   8  23
TORSDOF 6
ENDMDL
MODEL 6
REMARK VINA RESULT:      -8.8      3.627      6.963
REMARK  6 active torsions:
REMARK  status: ('A' for Active; 'I' for Inactive)
REMARK    1  A    between atoms: C1_2  and  C2_3 
REMARK       I    between atoms: C1_2  and  N1_11 
REMARK    2  A    between atoms: C2_3  and  O2_4 
REMARK    3  A    between atoms: O2_4  and  C3_5 
REMARK    4  A    between atoms: N1_11  and  C9_12 
REMARK    5  A    between atoms: C14_19  and  N4_20 
REMARK    6  A    between atoms: N4_20  and  C15_21 
ROOT
HETATM    1  C9  UNL     1      22.975   3.821  52.315  1.00  0.00     0.035 A 
HETATM    2  C10 UNL     1      21.631   3.761  52.035  1.00  0.00     0.032 A 
HETATM    3  C11 UNL     1      20.922   4.744  51.386  1.00  0.00     0.035 A 
HETATM    4  C12 UNL     1      21.642   5.854  51.003  1.00  0.00     0.072 A 
HETATM    5  N2  UNL     1      20.947   6.838  50.358  1.00  0.00    -0.241 NA
HETATM    6  C13 UNL     1      21.557   7.956  49.946  1.00  0.00     0.236 A 
HETATM    7  N3  UNL     1      22.862   8.038  50.206  1.00  0.00    -0.224 NA
HETATM    8  C14 UNL     1      23.624   7.144  50.823  1.00  0.00     0.142 A 
HETATM    9  C21 UNL     1      22.992   5.997  51.243  1.00  0.00     0.041 A 
HETATM   10  C22 UNL     1      23.615   4.963  51.898  1.00  0.00     0.047 A 
ENDROOT
BRANCH   1  11
HETATM   11  N1  UNL     1      23.745   2.841  52.976  1.00  0.00    -0.325 N 
HETATM   12  C1  UNL     1      24.181   1.587  52.505  1.00  0.00     0.246 C 
HETATM   13  O1  UNL     1      23.870   1.245  51.341  1.00  0.00    -0.271 OA
HETATM   14  H10 UNL     1      24.080   2.983  53.952  1.00  0.00     0.169 HD
BRANCH  12  15
HETATM   15  C2  UNL     1      24.986   0.603  53.245  1.00  0.00     0.278 C 
BRANCH  15  16
HETATM   16  O2  UNL     1      26.304   1.106  53.399  1.00  0.00    -0.346 OA
BRANCH  16  17
HETATM   17  C3  UNL     1      27.415   0.302  53.393  1.00  0.00     0.047 A 
HETATM   18  C4  UNL     1      28.649   0.705  53.686  1.00  0.00     0.032 A 
HETATM   19  C5  UNL     1      29.745  -0.264  53.640  1.00  0.00    -0.002 A 
HETATM   20  C6  UNL     1      29.465  -1.512  53.306  1.00  0.00    -0.026 A 
HETATM   21  C7  UNL     1      28.142  -2.051  52.966  1.00  0.00     0.033 A 
HETATM   22  C8  UNL     1      27.021  -1.070  53.011  1.00  0.00     0.068 A 
ENDBRANCH  16  17
ENDBRANCH  15  16
ENDBRANCH  12  15
ENDBRANCH   1  11
BRANCH   8  23
HETATM   23  N4  UNL     1      25.006   7.315  51.057  1.00  0.00    -0.340 N 
HETATM   24  H14 UNL     1      25.392   7.433  52.011  1.00  0.00     0.167 HD
BRANCH  23  25
HETATM   25  C15 UNL     1      26.048   7.358  50.097  1.00  0.00     0.035 A 
HETATM   26  C16 UNL     1      26.340   6.346  49.225  1.00  0.00     0.029 A 
HETATM   27  C17 UNL     1      27.346   6.365  48.299  1.00  0.00     0.004 A 
HETATM   28  C18 UNL     1      28.157   7.474  48.202  1.00  0.00     0.019 A 
HETATM   29  C19 UNL     1      27.921   8.529  49.049  1.00  0.00     0.013 A 
HETATM   30 BR1  UNL     1      29.011  10.084  48.957  1.00  0.00    -0.051 Br
HETATM   31  C20 UNL     1      26.901   8.439  49.945  1.00  0.00     0.048 A 
ENDBRANCH  23  25
ENDBRANCH   8  23
TORSDOF 6
ENDMDL
MODEL 7
REMARK VINA RESULT:      -8.8      2.206      3.192
REMARK  6 active torsions:
REMARK  status: ('A' for Active; 'I' for Inactive)
REMARK    1  A    between atoms: C1_2  and  C2_3 
REMARK       I    between atoms: C1_2  and  N1_11 
REMARK    2  A    between atoms: C2_3  and  O2_4 
REMARK    3  A    between atoms: O2_4  and  C3_5 
REMARK    4  A    between atoms: N1_11  and  C9_12 
REMARK    5  A    between atoms: C14_19  and  N4_20 
REMARK    6  A    between atoms: N4_20  and  C15_21 
ROOT
HETATM    1  C9  UNL     1      22.653  -1.083  54.254  1.00  0.00     0.035 A 
HETATM    2  C10 UNL     1      23.266  -1.544  55.394  1.00  0.00     0.032 A 
HETATM    3  C11 UNL     1      24.570  -1.281  55.742  1.00  0.00     0.035 A 
HETATM    4  C12 UNL     1      25.283  -0.495  54.863  1.00  0.00     0.072 A 
HETATM    5  N2  UNL     1      26.580  -0.227  55.199  1.00  0.00    -0.241 NA
HETATM    6  C13 UNL     1      27.355   0.527  54.410  1.00  0.00     0.236 A 
HETATM    7  N3  UNL     1      26.782   0.986  53.298  1.00  0.00    -0.224 NA
HETATM    8  C14 UNL     1      25.537   0.785  52.883  1.00  0.00     0.142 A 
HETATM    9  C21 UNL     1      24.746   0.010  53.698  1.00  0.00     0.041 A 
HETATM   10  C22 UNL     1      23.435  -0.307  53.435  1.00  0.00     0.047 A 
ENDROOT
BRANCH   1  11
HETATM   11  N1  UNL     1      21.322  -1.325  53.855  1.00  0.00    -0.325 N 
HETATM   12  C1  UNL     1      20.254  -0.415  53.724  1.00  0.00     0.246 C 
HETATM   13  O1  UNL     1      20.462   0.792  53.985  1.00  0.00    -0.271 OA
HETATM   14  H10 UNL     1      20.997  -2.283  53.604  1.00  0.00     0.169 HD
BRANCH  12  15
HETATM   15  C2  UNL     1      18.880  -0.729  53.301  1.00  0.00     0.278 C 
BRANCH  15  16
HETATM   16  O2  UNL     1      18.570  -2.058  53.689  1.00  0.00    -0.346 OA
BRANCH  16  17
HETATM   17  C3  UNL     1      17.405  -2.688  53.333  1.00  0.00     0.047 A 
HETATM   18  C4  UNL     1      17.106  -3.953  53.611  1.00  0.00     0.032 A 
HETATM   19  C5  UNL     1      15.822  -4.497  53.168  1.00  0.00    -0.002 A 
HETATM   20  C6  UNL     1      15.002  -3.704  52.501  1.00  0.00    -0.026 A 
HETATM   21  C7  UNL     1      15.240  -2.298  52.145  1.00  0.00     0.033 A 
HETATM   22  C8  UNL     1      16.546  -1.738  52.594  1.00  0.00     0.068 A 
ENDBRANCH  16  17
ENDBRANCH  15  16
ENDBRANCH  12  15
ENDBRANCH   1  11
BRANCH   8  23
HETATM   23  N4  UNL     1      25.012   1.314  51.684  1.00  0.00    -0.340 N 
HETATM   24  H14 UNL     1      25.063   0.799  50.786  1.00  0.00     0.167 HD
BRANCH  23  25
HETATM   25  C15 UNL     1      24.365   2.561  51.498  1.00  0.00     0.035 A 
HETATM   26  C16 UNL     1      24.030   3.419  52.509  1.00  0.00     0.029 A 
HETATM   27  C17 UNL     1      23.397   4.621  52.350  1.00  0.00     0.004 A 
HETATM   28  C18 UNL     1      23.051   5.043  51.086  1.00  0.00     0.019 A 
HETATM   29  C19 UNL     1      23.358   4.230  50.022  1.00  0.00     0.013 A 
HETATM   30 BR1  UNL     1      22.901   4.765  48.255  1.00  0.00    -0.051 Br
HETATM   31  C20 UNL     1      23.988   3.047  50.256  1.00  0.00     0.048 A 
ENDBRANCH  23  25
ENDBRANCH   8  23
TORSDOF 6
ENDMDL
MODEL 8
REMARK VINA RESULT:      -8.8      4.327      7.472
REMARK  6 active torsions:
REMARK  status: ('A' for Active; 'I' for Inactive)
REMARK    1  A    between atoms: C1_2  and  C2_3 
REMARK       I    between atoms: C1_2  and  N1_11 
REMARK    2  A    between atoms: C2_3  and  O2_4 
REMARK    3  A    between atoms: O2_4  and  C3_5 
REMARK    4  A    between atoms: N1_11  and  C9_12 
REMARK    5  A    between atoms: C14_19  and  N4_20 
REMARK    6  A    between atoms: N4_20  and  C15_21 
ROOT
HETATM    1  C9  UNL     1      24.833   3.574  50.197  1.00  0.00     0.035 A 
HETATM    2  C10 UNL     1      23.579   3.757  49.667  1.00  0.00     0.032 A 
HETATM    3  C11 UNL     1      23.227   4.786  48.827  1.00  0.00     0.035 A 
HETATM    4  C12 UNL     1      24.228   5.678  48.513  1.00  0.00     0.072 A 
HETATM    5  N2  UNL     1      23.890   6.706  47.678  1.00  0.00    -0.241 NA
HETATM    6  C13 UNL     1      24.792   7.625  47.315  1.00  0.00     0.236 A 
HETATM    7  N3  UNL     1      26.017   7.469  47.816  1.00  0.00    -0.224 NA
HETATM    8  C14 UNL     1      26.446   6.512  48.629  1.00  0.00     0.142 A 
HETATM    9  C21 UNL     1      25.513   5.570  48.999  1.00  0.00     0.041 A 
HETATM   10  C22 UNL     1      25.770   4.509  49.833  1.00  0.00     0.047 A 
ENDROOT
BRANCH   1  11
HETATM   11  N1  UNL     1      25.242   2.537  51.061  1.00  0.00    -0.325 N 
HETATM   12  C1  UNL     1      25.024   2.395  52.446  1.00  0.00     0.246 C 
HETATM   13  O1  UNL     1      24.382   3.289  53.044  1.00  0.00    -0.271 OA
HETATM   14  H10 UNL     1      25.786   1.721  50.708  1.00  0.00     0.169 HD
BRANCH  12  15
HETATM   15  C2  UNL     1      25.478   1.284  53.298  1.00  0.00     0.278 C 
BRANCH  15  16
HETATM   16  O2  UNL     1      26.185   0.349  52.498  1.00  0.00    -0.346 OA
BRANCH  16  17
HETATM   17  C3  UNL     1      27.380  -0.207  52.879  1.00  0.00     0.047 A 
HETATM   18  C4  UNL     1      27.648  -1.509  52.882  1.00  0.00     0.032 A 
HETATM   19  C5  UNL     1      28.970  -1.964  53.314  1.00  0.00    -0.002 A 
HETATM   20  C6  UNL     1      29.854  -1.056  53.688  1.00  0.00    -0.026 A 
HETATM   21  C7  UNL     1      29.654   0.399  53.721  1.00  0.00     0.033 A 
HETATM   22  C8  UNL     1      28.310   0.869  53.281  1.00  0.00     0.068 A 
ENDBRANCH  16  17
ENDBRANCH  15  16
ENDBRANCH  12  15
ENDBRANCH   1  11
BRANCH   8  23
HETATM   23  N4  UNL     1      27.769   6.423  49.113  1.00  0.00    -0.340 N 
HETATM   24  H14 UNL     1      27.978   6.247  50.113  1.00  0.00     0.167 HD
BRANCH  23  25
HETATM   25  C15 UNL     1      28.971   6.553  48.375  1.00  0.00     0.035 A 
HETATM   26  C16 UNL     1      29.393   7.708  47.777  1.00  0.00     0.029 A 
HETATM   27  C17 UNL     1      30.544   7.851  47.053  1.00  0.00     0.004 A 
HETATM   28  C18 UNL     1      31.379   6.767  46.887  1.00  0.00     0.019 A 
HETATM   29  C19 UNL     1      31.017   5.573  47.462  1.00  0.00     0.013 A 
HETATM   30 BR1  UNL     1      32.133   4.047  47.262  1.00  0.00    -0.051 Br
HETATM   31  C20 UNL     1      29.856   5.507  48.168  1.00  0.00     0.048 A 
ENDBRANCH  23  25
ENDBRANCH   8  23
TORSDOF 6
ENDMDL
MODEL 9
REMARK VINA RESULT:      -8.6      5.472     10.624
REMARK  6 active torsions:
REMARK  status: ('A' for Active; 'I' for Inactive)
REMARK    1  A    between atoms: C1_2  and  C2_3 
REMARK       I    between atoms: C1_2  and  N1_11 
REMARK    2  A    between atoms: C2_3  and  O2_4 
REMARK    3  A    between atoms: O2_4  and  C3_5 
REMARK    4  A    between atoms: N1_11  and  C9_12 
REMARK    5  A    between atoms: C14_19  and  N4_20 
REMARK    6  A    between atoms: N4_20  and  C15_21 
ROOT
HETATM    1  C9  UNL     1      28.037   6.160  48.209  1.00  0.00     0.035 A 
HETATM    2  C10 UNL     1      27.132   7.119  47.825  1.00  0.00     0.032 A 
HETATM    3  C11 UNL     1      25.779   7.056  48.058  1.00  0.00     0.035 A 
HETATM    4  C12 UNL     1      25.333   5.938  48.728  1.00  0.00     0.072 A 
HETATM    5  N2  UNL     1      23.990   5.864  48.965  1.00  0.00    -0.241 NA
HETATM    6  C13 UNL     1      23.459   4.817  49.609  1.00  0.00     0.236 A 
HETATM    7  N3  UNL     1      24.318   3.873  49.993  1.00  0.00    -0.224 NA
HETATM    8  C14 UNL     1      25.633   3.850  49.813  1.00  0.00     0.142 A 
HETATM    9  C21 UNL     1      26.172   4.928  49.150  1.00  0.00     0.041 A 
HETATM   10  C22 UNL     1      27.509   5.079  48.871  1.00  0.00     0.047 A 
ENDROOT
BRANCH   1  11
HETATM   11  N1  UNL     1      29.431   6.180  47.993  1.00  0.00    -0.325 N 
HETATM   12  C1  UNL     1      30.384   7.126  48.422  1.00  0.00     0.246 C 
HETATM   13  O1  UNL     1      29.990   8.107  49.093  1.00  0.00    -0.271 OA
HETATM   14  H10 UNL     1      29.906   5.427  47.451  1.00  0.00     0.169 HD
BRANCH  12  15
HETATM   15  C2  UNL     1      31.832   7.092  48.164  1.00  0.00     0.278 C 
BRANCH  15  16
HETATM   16  O2  UNL     1      32.094   6.165  47.122  1.00  0.00    -0.346 OA
BRANCH  16  17
HETATM   17  C3  UNL     1      32.842   5.030  47.303  1.00  0.00     0.047 A 
HETATM   18  C4  UNL     1      34.092   5.004  47.756  1.00  0.00     0.032 A 
HETATM   19  C5  UNL     1      34.771   3.716  47.900  1.00  0.00    -0.002 A 
HETATM   20  C6  UNL     1      34.113   2.619  47.571  1.00  0.00    -0.026 A 
HETATM   21  C7  UNL     1      32.737   2.544  47.062  1.00  0.00     0.033 A 
HETATM   22  C8  UNL     1      32.038   3.852  46.914  1.00  0.00     0.068 A 
ENDBRANCH  16  17
ENDBRANCH  15  16
ENDBRANCH  12  15
ENDBRANCH   1  11
BRANCH   8  23
HETATM   23  N4  UNL     1      26.470   2.803  50.255  1.00  0.00    -0.340 N 
HETATM   24  H14 UNL     1      27.209   2.397  49.652  1.00  0.00     0.167 HD
BRANCH  23  25
HETATM   25  C15 UNL     1      26.454   2.155  51.515  1.00  0.00     0.035 A 
HETATM   26  C16 UNL     1      27.443   2.260  52.453  1.00  0.00     0.029 A 
HETATM   27  C17 UNL     1      27.450   1.636  53.670  1.00  0.00     0.004 A 
HETATM   28  C18 UNL     1      26.394   0.825  54.022  1.00  0.00     0.019 A 
HETATM   29  C19 UNL     1      25.363   0.674  53.126  1.00  0.00     0.013 A 
HETATM   30 BR1  UNL     1      23.881  -0.434  53.563  1.00  0.00    -0.051 Br
HETATM   31  C20 UNL     1      25.425   1.326  51.934  1.00  0.00     0.048 A 
ENDBRANCH  23  25
ENDBRANCH   8  23
TORSDOF 6
ENDMDL
