MODEL 1
REMARK VINA RESULT:      -7.8      0.000      0.000
REMARK  3 active torsions:
REMARK  status: ('A' for Active; 'I' for Inactive)
REMARK    1  A    between atoms: O1_2  and  C2_3 
REMARK    2  A    between atoms: C6_9  and  N2_10 
REMARK    3  A    between atoms: N2_10  and  C7_11 
ROOT
HETATM    1  C2  UNL     1      22.845   0.667  53.289  1.00  0.00     0.170 C 
HETATM    2  C3  UNL     1      21.815   1.661  53.021  1.00  0.00     0.145 C 
HETATM    3  N1  UNL     1      21.410   1.907  51.660  1.00  0.00    -0.221 NA
HETATM    4 CL1  UNL     1      20.350   3.246  51.504  1.00  0.00    -0.021 Cl
HETATM    5  C4  UNL     1      22.664   2.099  50.882  1.00  0.00     0.146 C 
HETATM    6  C5  UNL     1      23.522   3.055  51.546  1.00  0.00    -0.018 C 
HETATM    7  C6  UNL     1      24.624   2.250  51.210  1.00  0.00     0.023 C 
HETATM    8  C13 UNL     1      25.545   1.096  51.576  1.00  0.00     0.062 C 
HETATM    9  C14 UNL     1      25.188   0.427  52.915  1.00  0.00    -0.003 C 
HETATM   10  C15 UNL     1      24.226   1.226  53.202  1.00  0.00     0.002 C 
HETATM   11  C16 UNL     1      25.060   2.484  53.430  1.00  0.00     0.074 C 
HETATM   12  C17 UNL     1      26.415   2.466  53.348  1.00  0.00     0.011 C 
HETATM   13  C18 UNL     1      26.870   1.796  52.052  1.00  0.00     0.044 C 
HETATM   14  O2  UNL     1      24.117   3.618  53.688  1.00  0.00    -0.347 OA
HETATM   15  C19 UNL     1      23.592   4.304  52.404  1.00  0.00     0.213 C 
ENDROOT
BRANCH   7  16
HETATM   16  N2  UNL     1      24.967   2.825  49.986  1.00  0.00    -0.359 N 
HETATM   17  H9  UNL     1      24.774   2.368  49.078  1.00  0.00     0.166 HD
BRANCH  16  18
HETATM   18  C7  UNL     1      25.577   3.992  49.466  1.00  0.00     0.032 A 
HETATM   19  C8  UNL     1      25.031   5.210  49.137  1.00  0.00     0.032 A 
HETATM   20  C9  UNL     1      25.733   6.275  48.624  1.00  0.00     0.044 A 
HETATM   21  C10 UNL     1      27.086   6.095  48.432  1.00  0.00     0.116 A 
HETATM   22  F1  UNL     1      27.743   7.174  47.924  1.00  0.00    -0.206 F 
HETATM   23  C11 UNL     1      27.704   4.892  48.743  1.00  0.00     0.044 A 
HETATM   24  C12 UNL     1      26.954   3.862  49.252  1.00  0.00     0.032 A 
ENDBRANCH  16  18
ENDBRANCH   7  16
BRANCH   1  25
HETATM   25  O1  UNL     1      22.777  -0.593  52.873  1.00  0.00    -0.385 OA
HETATM   26  C1  UNL     1      21.948  -1.353  53.698  1.00  0.00     0.202 C 
ENDBRANCH   1  25
TORSDOF 3
ENDMDL
MODEL 2
REMARK VINA RESULT:      -7.8      3.246      5.261
REMARK  3 active torsions:
REMARK  status: ('A' for Active; 'I' for Inactive)
REMARK    1  A    between atoms: O1_2  and  C2_3 
REMARK    2  A    between atoms: C6_9  and  N2_10 
REMARK    3  A    between atoms: N2_10  and  C7_11 
ROOT
HETATM    1  C2  UNL     1      22.504   3.198  49.293  1.00  0.00     0.170 C 
HETATM    2  C3  UNL     1      23.273   4.421  49.474  1.00  0.00     0.145 C 
HETATM    3  N1  UNL     1      24.701   4.336  49.654  1.00  0.00    -0.221 NA
HETATM    4 CL1  UNL     1      25.420   5.839  50.062  1.00  0.00    -0.021 Cl
HETATM    5  C4  UNL     1      24.925   3.309  50.708  1.00  0.00     0.146 C 
HETATM    6  C5  UNL     1      24.085   3.577  51.854  1.00  0.00    -0.018 C 
HETATM    7  C6  UNL     1      23.857   2.195  51.968  1.00  0.00     0.023 C 
HETATM    8  C13 UNL     1      23.025   0.983  51.580  1.00  0.00     0.062 C 
HETATM    9  C14 UNL     1      21.876   1.312  50.610  1.00  0.00    -0.003 C 
HETATM   10  C15 UNL     1      22.091   2.576  50.585  1.00  0.00     0.002 C 
HETATM   11  C16 UNL     1      21.690   2.886  52.025  1.00  0.00     0.074 C 
HETATM   12  C17 UNL     1      21.218   1.922  52.857  1.00  0.00     0.011 C 
HETATM   13  C18 UNL     1      22.138   0.701  52.848  1.00  0.00     0.044 C 
HETATM   14  O2  UNL     1      21.962   4.337  52.275  1.00  0.00    -0.347 OA
HETATM   15  C19 UNL     1      23.417   4.639  52.707  1.00  0.00     0.213 C 
ENDROOT
BRANCH   7  16
HETATM   16  N2  UNL     1      24.896   1.860  52.837  1.00  0.00    -0.359 N 
HETATM   17  H9  UNL     1      25.044   2.337  53.743  1.00  0.00     0.166 HD
BRANCH  16  18
HETATM   18  C7  UNL     1      25.986   0.961  52.934  1.00  0.00     0.032 A 
HETATM   19  C8  UNL     1      26.043  -0.394  52.708  1.00  0.00     0.032 A 
HETATM   20  C9  UNL     1      27.170  -1.168  52.846  1.00  0.00     0.044 A 
HETATM   21  C10 UNL     1      28.324  -0.525  53.242  1.00  0.00     0.116 A 
HETATM   22  F1  UNL     1      29.416  -1.328  53.366  1.00  0.00    -0.206 F 
HETATM   23  C11 UNL     1      28.338   0.841  53.487  1.00  0.00     0.044 A 
HETATM   24  C12 UNL     1      27.183   1.565  53.332  1.00  0.00     0.032 A 
ENDBRANCH  16  18
ENDBRANCH   7  16
BRANCH   1  25
HETATM   25  O1  UNL     1      22.769   2.295  48.354  1.00  0.00    -0.385 OA
HETATM   26  C1  UNL     1      22.292   2.708  47.110  1.00  0.00     0.202 C 
ENDBRANCH   1  25
TORSDOF 3
ENDMDL
MODEL 3
REMARK VINA RESULT:      -7.3      3.148      5.490
REMARK  3 active torsions:
REMARK  status: ('A' for Active; 'I' for Inactive)
REMARK    1  A    between atoms: O1_2  and  C2_3 
REMARK    2  A    between atoms: C6_9  and  N2_10 
REMARK    3  A    between atoms: N2_10  and  C7_11 
ROOT
HETATM    1  C2  UNL     1      21.447   5.284  50.220  1.00  0.00     0.170 C 
HETATM    2  C3  UNL     1      20.503   4.227  50.553  1.00  0.00     0.145 C 
HETATM    3  N1  UNL     1      20.437   3.741  51.909  1.00  0.00    -0.221 NA
HETATM    4 CL1  UNL     1      19.433   2.362  52.084  1.00  0.00    -0.021 Cl
HETATM    5  C4  UNL     1      21.841   3.460  52.317  1.00  0.00     0.146 C 
HETATM    6  C5  UNL     1      22.502   2.658  51.312  1.00  0.00    -0.018 C 
HETATM    7  C6  UNL     1      23.661   3.430  51.505  1.00  0.00     0.023 C 
HETATM    8  C13 UNL     1      24.477   4.658  51.132  1.00  0.00     0.062 C 
HETATM    9  C14 UNL     1      23.813   5.532  50.054  1.00  0.00    -0.003 C 
HETATM   10  C15 UNL     1      22.802   4.763  49.874  1.00  0.00     0.002 C 
HETATM   11  C16 UNL     1      23.542   3.589  49.239  1.00  0.00     0.074 C 
HETATM   12  C17 UNL     1      24.877   3.636  48.993  1.00  0.00     0.011 C 
HETATM   13  C18 UNL     1      25.640   4.091  50.237  1.00  0.00     0.044 C 
HETATM   14  O2  UNL     1      22.553   2.486  49.025  1.00  0.00    -0.347 OA
HETATM   15  C19 UNL     1      22.348   1.575  50.260  1.00  0.00     0.213 C 
ENDROOT
BRANCH   7  16
HETATM   16  N2  UNL     1      24.285   2.666  52.492  1.00  0.00    -0.359 N 
HETATM   17  H9  UNL     1      24.434   3.012  53.456  1.00  0.00     0.166 HD
BRANCH  16  18
HETATM   18  C7  UNL     1      24.875   1.392  52.671  1.00  0.00     0.032 A 
HETATM   19  C8  UNL     1      24.491   0.338  53.466  1.00  0.00     0.032 A 
HETATM   20  C9  UNL     1      25.160  -0.860  53.563  1.00  0.00     0.044 A 
HETATM   21  C10 UNL     1      26.299  -1.001  52.800  1.00  0.00     0.116 A 
HETATM   22  F1  UNL     1      26.930  -2.201  52.926  1.00  0.00    -0.206 F 
HETATM   23  C11 UNL     1      26.745   0.023  51.976  1.00  0.00     0.044 A 
HETATM   24  C12 UNL     1      26.037   1.197  51.917  1.00  0.00     0.032 A 
ENDBRANCH  16  18
ENDBRANCH   7  16
BRANCH   1  25
HETATM   25  O1  UNL     1      21.495   6.453  50.851  1.00  0.00    -0.385 OA
HETATM   26  C1  UNL     1      20.827   7.443  50.131  1.00  0.00     0.202 C 
ENDBRANCH   1  25
TORSDOF 3
ENDMDL
MODEL 4
REMARK VINA RESULT:      -7.1      2.664      3.322
REMARK  3 active torsions:
REMARK  status: ('A' for Active; 'I' for Inactive)
REMARK    1  A    between atoms: O1_2  and  C2_3 
REMARK    2  A    between atoms: C6_9  and  N2_10 
REMARK    3  A    between atoms: N2_10  and  C7_11 
ROOT
HETATM    1  C2  UNL     1      21.894   0.602  53.300  1.00  0.00     0.170 C 
HETATM    2  C3  UNL     1      20.512   0.658  52.844  1.00  0.00     0.145 C 
HETATM    3  N1  UNL     1      20.174   0.121  51.550  1.00  0.00    -0.221 NA
HETATM    4 CL1  UNL     1      18.558   0.455  51.082  1.00  0.00    -0.021 Cl
HETATM    5  C4  UNL     1      21.159   0.696  50.593  1.00  0.00     0.146 C 
HETATM    6  C5  UNL     1      21.241   2.130  50.762  1.00  0.00    -0.018 C 
HETATM    7  C6  UNL     1      22.632   2.037  50.582  1.00  0.00     0.023 C 
HETATM    8  C13 UNL     1      24.008   1.836  51.198  1.00  0.00     0.062 C 
HETATM    9  C14 UNL     1      23.972   1.619  52.722  1.00  0.00    -0.003 C 
HETATM   10  C15 UNL     1      22.703   1.769  52.840  1.00  0.00     0.002 C 
HETATM   11  C16 UNL     1      22.635   3.256  52.503  1.00  0.00     0.074 C 
HETATM   12  C17 UNL     1      23.754   3.982  52.251  1.00  0.00     0.011 C 
HETATM   13  C18 UNL     1      24.635   3.278  51.220  1.00  0.00     0.044 C 
HETATM   14  O2  UNL     1      21.192   3.653  52.475  1.00  0.00    -0.347 OA
HETATM   15  C19 UNL     1      20.496   3.403  51.116  1.00  0.00     0.213 C 
ENDROOT
BRANCH   7  16
HETATM   16  N2  UNL     1      22.699   2.219  49.200  1.00  0.00    -0.359 N 
HETATM   17  H9  UNL     1      22.915   1.449  48.544  1.00  0.00     0.166 HD
BRANCH  16  18
HETATM   18  C7  UNL     1      22.553   3.238  48.229  1.00  0.00     0.032 A 
HETATM   19  C8  UNL     1      22.794   4.590  48.315  1.00  0.00     0.032 A 
HETATM   20  C9  UNL     1      22.602   5.490  47.294  1.00  0.00     0.044 A 
HETATM   21  C10 UNL     1      22.134   4.987  46.099  1.00  0.00     0.116 A 
HETATM   22  F1  UNL     1      21.959   5.912  45.116  1.00  0.00    -0.206 F 
HETATM   23  C11 UNL     1      21.870   3.634  45.942  1.00  0.00     0.044 A 
HETATM   24  C12 UNL     1      22.080   2.780  46.995  1.00  0.00     0.032 A 
ENDBRANCH  16  18
ENDBRANCH   7  16
BRANCH   1  25
HETATM   25  O1  UNL     1      22.604  -0.520  53.360  1.00  0.00    -0.385 OA
HETATM   26  C1  UNL     1      22.272  -1.267  54.489  1.00  0.00     0.202 C 
ENDBRANCH   1  25
TORSDOF 3
ENDMDL
MODEL 5
REMARK VINA RESULT:      -6.9      3.397      5.787
REMARK  3 active torsions:
REMARK  status: ('A' for Active; 'I' for Inactive)
REMARK    1  A    between atoms: O1_2  and  C2_3 
REMARK    2  A    between atoms: C6_9  and  N2_10 
REMARK    3  A    between atoms: N2_10  and  C7_11 
ROOT
HETATM    1  C2  UNL     1      21.304   6.813  49.608  1.00  0.00     0.170 C 
HETATM    2  C3  UNL     1      20.515   5.589  49.609  1.00  0.00     0.145 C 
HETATM    3  N1  UNL     1      20.353   4.855  50.839  1.00  0.00    -0.221 NA
HETATM    4 CL1  UNL     1      19.580   3.340  50.624  1.00  0.00    -0.021 Cl
HETATM    5  C4  UNL     1      21.717   4.705  51.415  1.00  0.00     0.146 C 
HETATM    6  C5  UNL     1      22.631   4.206  50.412  1.00  0.00    -0.018 C 
HETATM    7  C6  UNL     1      23.607   5.084  50.912  1.00  0.00     0.023 C 
HETATM    8  C13 UNL     1      24.248   6.463  50.880  1.00  0.00     0.062 C 
HETATM    9  C14 UNL     1      23.595   7.420  49.866  1.00  0.00    -0.003 C 
HETATM   10  C15 UNL     1      22.761   6.562  49.404  1.00  0.00     0.002 C 
HETATM   11  C16 UNL     1      23.765   5.644  48.712  1.00  0.00     0.074 C 
HETATM   12  C17 UNL     1      25.094   5.924  48.695  1.00  0.00     0.011 C 
HETATM   13  C18 UNL     1      25.598   6.243  50.102  1.00  0.00     0.044 C 
HETATM   14  O2  UNL     1      23.012   4.471  48.166  1.00  0.00    -0.347 OA
HETATM   15  C19 UNL     1      22.802   3.327  49.187  1.00  0.00     0.213 C 
ENDROOT
BRANCH   7  16
HETATM   16  N2  UNL     1      24.214   4.247  51.848  1.00  0.00    -0.359 N 
HETATM   17  H9  UNL     1      24.206   4.443  52.864  1.00  0.00     0.166 HD
BRANCH  16  18
HETATM   18  C7  UNL     1      24.949   3.038  51.912  1.00  0.00     0.032 A 
HETATM   19  C8  UNL     1      26.080   2.649  51.234  1.00  0.00     0.032 A 
HETATM   20  C9  UNL     1      26.703   1.431  51.376  1.00  0.00     0.044 A 
HETATM   21  C10 UNL     1      26.141   0.544  52.268  1.00  0.00     0.116 A 
HETATM   22  F1  UNL     1      26.788  -0.648  52.378  1.00  0.00    -0.206 F 
HETATM   23  C11 UNL     1      24.999   0.871  52.986  1.00  0.00     0.044 A 
HETATM   24  C12 UNL     1      24.419   2.101  52.805  1.00  0.00     0.032 A 
ENDBRANCH  16  18
ENDBRANCH   7  16
BRANCH   1  25
HETATM   25  O1  UNL     1      21.071   7.839  50.421  1.00  0.00    -0.385 OA
HETATM   26  C1  UNL     1      20.026   8.631  49.947  1.00  0.00     0.202 C 
ENDBRANCH   1  25
TORSDOF 3
ENDMDL
MODEL 6
REMARK VINA RESULT:      -6.9      3.804      6.563
REMARK  3 active torsions:
REMARK  status: ('A' for Active; 'I' for Inactive)
REMARK    1  A    between atoms: O1_2  and  C2_3 
REMARK    2  A    between atoms: C6_9  and  N2_10 
REMARK    3  A    between atoms: N2_10  and  C7_11 
ROOT
HETATM    1  C2  UNL     1      22.516   6.014  49.740  1.00  0.00     0.170 C 
HETATM    2  C3  UNL     1      21.711   5.359  48.718  1.00  0.00     0.145 C 
HETATM    3  N1  UNL     1      20.409   4.848  49.066  1.00  0.00    -0.221 NA
HETATM    4 CL1  UNL     1      19.689   3.927  47.811  1.00  0.00    -0.021 Cl
HETATM    5  C4  UNL     1      20.597   4.045  50.305  1.00  0.00     0.146 C 
HETATM    6  C5  UNL     1      21.696   3.120  50.140  1.00  0.00    -0.018 C 
HETATM    7  C6  UNL     1      22.085   3.398  51.461  1.00  0.00     0.023 C 
HETATM    8  C13 UNL     1      22.890   4.260  52.422  1.00  0.00     0.062 C 
HETATM    9  C14 UNL     1      23.678   5.384  51.724  1.00  0.00    -0.003 C 
HETATM   10  C15 UNL     1      23.339   5.053  50.532  1.00  0.00     0.002 C 
HETATM   11  C16 UNL     1      24.098   3.731  50.456  1.00  0.00     0.074 C 
HETATM   12  C17 UNL     1      24.881   3.299  51.478  1.00  0.00     0.011 C 
HETATM   13  C18 UNL     1      24.124   3.363  52.804  1.00  0.00     0.044 C 
HETATM   14  O2  UNL     1      23.764   3.086  49.148  1.00  0.00    -0.347 OA
HETATM   15  C19 UNL     1      22.469   2.239  49.177  1.00  0.00     0.213 C 
ENDROOT
BRANCH   7  16
HETATM   16  N2  UNL     1      21.374   2.398  52.126  1.00  0.00    -0.359 N 
HETATM   17  H9  UNL     1      20.353   2.448  52.283  1.00  0.00     0.166 HD
BRANCH  16  18
HETATM   18  C7  UNL     1      21.587   1.149  52.758  1.00  0.00     0.032 A 
HETATM   19  C8  UNL     1      22.422   0.112  52.417  1.00  0.00     0.032 A 
HETATM   20  C9  UNL     1      22.535  -1.069  53.112  1.00  0.00     0.044 A 
HETATM   21  C10 UNL     1      21.745  -1.211  54.233  1.00  0.00     0.116 A 
HETATM   22  F1  UNL     1      21.888  -2.394  54.891  1.00  0.00    -0.206 F 
HETATM   23  C11 UNL     1      20.879  -0.203  54.635  1.00  0.00     0.044 A 
HETATM   24  C12 UNL     1      20.808   0.955  53.903  1.00  0.00     0.032 A 
ENDBRANCH  16  18
ENDBRANCH   7  16
BRANCH   1  25
HETATM   25  O1  UNL     1      22.088   7.041  50.467  1.00  0.00    -0.385 OA
HETATM   26  C1  UNL     1      21.942   8.186  49.685  1.00  0.00     0.202 C 
ENDBRANCH   1  25
TORSDOF 3
ENDMDL
MODEL 7
REMARK VINA RESULT:      -6.8      3.056      4.709
REMARK  3 active torsions:
REMARK  status: ('A' for Active; 'I' for Inactive)
REMARK    1  A    between atoms: O1_2  and  C2_3 
REMARK    2  A    between atoms: C6_9  and  N2_10 
REMARK    3  A    between atoms: N2_10  and  C7_11 
ROOT
HETATM    1  C2  UNL     1      18.772   2.915  50.913  1.00  0.00     0.170 C 
HETATM    2  C3  UNL     1      19.335   1.916  51.811  1.00  0.00     0.145 C 
HETATM    3  N1  UNL     1      20.245   2.333  52.848  1.00  0.00    -0.221 NA
HETATM    4 CL1  UNL     1      20.976   1.019  53.673  1.00  0.00    -0.021 Cl
HETATM    5  C4  UNL     1      21.256   3.204  52.187  1.00  0.00     0.146 C 
HETATM    6  C5  UNL     1      21.782   2.552  51.007  1.00  0.00    -0.018 C 
HETATM    7  C6  UNL     1      21.756   3.794  50.350  1.00  0.00     0.023 C 
HETATM    8  C13 UNL     1      20.983   4.799  49.510  1.00  0.00     0.062 C 
HETATM    9  C14 UNL     1      19.552   4.345  49.171  1.00  0.00    -0.003 C 
HETATM   10  C15 UNL     1      19.647   3.197  49.738  1.00  0.00     0.002 C 
HETATM   11  C16 UNL     1      20.655   2.572  48.778  1.00  0.00     0.074 C 
HETATM   12  C17 UNL     1      21.108   3.239  47.685  1.00  0.00     0.011 C 
HETATM   13  C18 UNL     1      21.586   4.640  48.066  1.00  0.00     0.044 C 
HETATM   14  O2  UNL     1      21.013   1.219  49.307  1.00  0.00    -0.347 OA
HETATM   15  C19 UNL     1      22.153   1.234  50.354  1.00  0.00     0.213 C 
ENDROOT
BRANCH   7  16
HETATM   16  N2  UNL     1      23.043   4.241  50.649  1.00  0.00    -0.359 N 
HETATM   17  H9  UNL     1      23.264   4.781  51.503  1.00  0.00     0.166 HD
BRANCH  16  18
HETATM   18  C7  UNL     1      24.354   4.214  50.117  1.00  0.00     0.032 A 
HETATM   19  C8  UNL     1      25.283   3.200  50.092  1.00  0.00     0.032 A 
HETATM   20  C9  UNL     1      26.542   3.298  49.549  1.00  0.00     0.044 A 
HETATM   21  C10 UNL     1      26.886   4.511  48.990  1.00  0.00     0.116 A 
HETATM   22  F1  UNL     1      28.141   4.564  48.463  1.00  0.00    -0.206 F 
HETATM   23  C11 UNL     1      25.998   5.577  48.980  1.00  0.00     0.044 A 
HETATM   24  C12 UNL     1      24.754   5.422  49.536  1.00  0.00     0.032 A 
ENDBRANCH  16  18
ENDBRANCH   7  16
BRANCH   1  25
HETATM   25  O1  UNL     1      18.115   3.992  51.331  1.00  0.00    -0.385 OA
HETATM   26  C1  UNL     1      16.791   3.686  51.644  1.00  0.00     0.202 C 
ENDBRANCH   1  25
TORSDOF 3
ENDMDL
MODEL 8
REMARK VINA RESULT:      -6.7      3.779      6.550
REMARK  3 active torsions:
REMARK  status: ('A' for Active; 'I' for Inactive)
REMARK    1  A    between atoms: O1_2  and  C2_3 
REMARK    2  A    between atoms: C6_9  and  N2_10 
REMARK    3  A    between atoms: N2_10  and  C7_11 
ROOT
HETATM    1  C2  UNL     1      22.279   5.718  48.215  1.00  0.00     0.170 C 
HETATM    2  C3  UNL     1      22.665   6.404  49.440  1.00  0.00     0.145 C 
HETATM    3  N1  UNL     1      23.952   6.129  50.027  1.00  0.00    -0.221 NA
HETATM    4 CL1  UNL     1      24.159   6.855  51.567  1.00  0.00    -0.021 Cl
HETATM    5  C4  UNL     1      24.070   4.647  50.092  1.00  0.00     0.146 C 
HETATM    6  C5  UNL     1      22.884   4.077  50.694  1.00  0.00    -0.018 C 
HETATM    7  C6  UNL     1      22.947   3.037  49.751  1.00  0.00     0.023 C 
HETATM    8  C13 UNL     1      22.563   2.508  48.377  1.00  0.00     0.062 C 
HETATM    9  C14 UNL     1      21.719   3.496  47.553  1.00  0.00    -0.003 C 
HETATM   10  C15 UNL     1      21.644   4.392  48.469  1.00  0.00     0.002 C 
HETATM   11  C16 UNL     1      20.768   3.616  49.449  1.00  0.00     0.074 C 
HETATM   12  C17 UNL     1      20.293   2.378  49.156  1.00  0.00     0.011 C 
HETATM   13  C18 UNL     1      21.420   1.468  48.669  1.00  0.00     0.044 C 
HETATM   14  O2  UNL     1      20.621   4.445  50.687  1.00  0.00    -0.347 OA
HETATM   15  C19 UNL     1      21.770   4.263  51.707  1.00  0.00     0.213 C 
ENDROOT
BRANCH   7  16
HETATM   16  N2  UNL     1      23.721   2.123  50.466  1.00  0.00    -0.359 N 
HETATM   17  H9  UNL     1      24.688   1.875  50.195  1.00  0.00     0.166 HD
BRANCH  16  18
HETATM   18  C7  UNL     1      23.641   1.286  51.605  1.00  0.00     0.032 A 
HETATM   19  C8  UNL     1      24.599   0.958  52.536  1.00  0.00     0.032 A 
HETATM   20  C9  UNL     1      24.401   0.118  53.606  1.00  0.00     0.044 A 
HETATM   21  C10 UNL     1      23.144  -0.430  53.745  1.00  0.00     0.116 A 
HETATM   22  F1  UNL     1      22.992  -1.255  54.817  1.00  0.00    -0.206 F 
HETATM   23  C11 UNL     1      22.130  -0.142  52.842  1.00  0.00     0.044 A 
HETATM   24  C12 UNL     1      22.383   0.705  51.792  1.00  0.00     0.032 A 
ENDBRANCH  16  18
ENDBRANCH   7  16
BRANCH   1  25
HETATM   25  O1  UNL     1      23.010   5.729  47.104  1.00  0.00    -0.385 OA
HETATM   26  C1  UNL     1      23.085   7.012  46.563  1.00  0.00     0.202 C 
ENDBRANCH   1  25
TORSDOF 3
ENDMDL
MODEL 9
REMARK VINA RESULT:      -6.6      8.145     10.525
REMARK  3 active torsions:
REMARK  status: ('A' for Active; 'I' for Inactive)
REMARK    1  A    between atoms: O1_2  and  C2_3 
REMARK    2  A    between atoms: C6_9  and  N2_10 
REMARK    3  A    between atoms: N2_10  and  C7_11 
ROOT
HETATM    1  C2  UNL     1      29.447  10.020  45.937  1.00  0.00     0.170 C 
HETATM    2  C3  UNL     1      30.401  10.930  46.556  1.00  0.00     0.145 C 
HETATM    3  N1  UNL     1      31.793  10.561  46.612  1.00  0.00    -0.221 NA
HETATM    4 CL1  UNL     1      32.739  11.638  47.554  1.00  0.00    -0.021 Cl
HETATM    5  C4  UNL     1      31.833   9.173  47.148  1.00  0.00     0.146 C 
HETATM    6  C5  UNL     1      31.030   9.078  48.347  1.00  0.00    -0.018 C 
HETATM    7  C6  UNL     1      30.580   7.822  47.905  1.00  0.00     0.023 C 
HETATM    8  C13 UNL     1      29.569   7.016  47.105  1.00  0.00     0.062 C 
HETATM    9  C14 UNL     1      28.503   7.883  46.412  1.00  0.00    -0.003 C 
HETATM   10  C15 UNL     1      28.919   8.999  46.888  1.00  0.00     0.002 C 
HETATM   11  C16 UNL     1      28.552   8.753  48.349  1.00  0.00     0.074 C 
HETATM   12  C17 UNL     1      27.918   7.620  48.745  1.00  0.00     0.011 C 
HETATM   13  C18 UNL     1      28.629   6.383  48.196  1.00  0.00     0.044 C 
HETATM   14  O2  UNL     1      29.051   9.917  49.148  1.00  0.00    -0.347 OA
HETATM   15  C19 UNL     1      30.529   9.790  49.590  1.00  0.00     0.213 C 
ENDROOT
BRANCH   7  16
HETATM   16  N2  UNL     1      31.538   7.007  48.510  1.00  0.00    -0.359 N 
HETATM   17  H9  UNL     1      31.856   7.146  49.484  1.00  0.00     0.166 HD
BRANCH  16  18
HETATM   18  C7  UNL     1      32.353   5.887  48.218  1.00  0.00     0.032 A 
HETATM   19  C8  UNL     1      32.008   4.614  47.830  1.00  0.00     0.032 A 
HETATM   20  C9  UNL     1      32.900   3.597  47.583  1.00  0.00     0.044 A 
HETATM   21  C10 UNL     1      34.238   3.890  47.740  1.00  0.00     0.116 A 
HETATM   22  F1  UNL     1      35.086   2.857  47.485  1.00  0.00    -0.206 F 
HETATM   23  C11 UNL     1      34.657   5.155  48.130  1.00  0.00     0.044 A 
HETATM   24  C12 UNL     1      33.723   6.132  48.363  1.00  0.00     0.032 A 
ENDBRANCH  16  18
ENDBRANCH   7  16
BRANCH   1  25
HETATM   25  O1  UNL     1      29.576   9.548  44.701  1.00  0.00    -0.385 OA
HETATM   26  C1  UNL     1      29.474  10.571  43.758  1.00  0.00     0.202 C 
ENDBRANCH   1  25
TORSDOF 3
ENDMDL
