MODEL 1
REMARK VINA RESULT:      -6.8      0.000      0.000
REMARK  8 active torsions:
REMARK  status: ('A' for Active; 'I' for Inactive)
REMARK    1  A    between atoms: C2_2  and  C3_3 
REMARK    2  A    between atoms: C4_4  and  P1_5 
REMARK    3  A    between atoms: C7_10  and  N3_11 
REMARK    4  A    between atoms: N3_11  and  C8_12 
REMARK    5  A    between atoms: C8_12  and  C9_13 
REMARK    6  A    between atoms: C8_12  and  C10_15 
REMARK    7  A    between atoms: C9_13  and  O1_14 
REMARK    8  A    between atoms: C10_15  and  C11_16 
ROOT
HETATM    1  N3  UNL     1      24.836   3.192  52.758  1.00  0.00    -0.367 N 
HETATM    2  H11 UNL     1      25.278   3.920  53.392  1.00  0.00     0.161 HD
ENDROOT
BRANCH   1   3
HETATM    3  C7  UNL     1      23.529   3.472  52.284  1.00  0.00     0.133 A 
HETATM    4  P1  UNL     1      22.408   2.227  51.555  1.00  0.00    -0.001 P 
HETATM    5  C5  UNL     1      20.856   3.124  51.115  1.00  0.00     0.196 A 
HETATM    6  N1  UNL     1      20.975   4.507  51.463  1.00  0.00    -0.278 NA
HETATM    7  C6  UNL     1      21.906   5.164  51.986  1.00  0.00     0.229 A 
HETATM    8  N2  UNL     1      23.194   4.736  52.421  1.00  0.00    -0.224 NA
BRANCH   4   9
HETATM    9  C4  UNL     1      22.004   0.875  52.721  1.00  0.00     0.012 C 
HETATM   10  C3  UNL     1      22.556   0.245  53.779  1.00  0.00    -0.026 C 
BRANCH  10  11
HETATM   11  C2  UNL     1      22.199  -0.864  54.721  1.00  0.00     0.022 C 
HETATM   12  C1  UNL     1      20.907  -1.543  54.248  1.00  0.00     0.009 C 
ENDBRANCH  10  11
ENDBRANCH   4   9
ENDBRANCH   1   3
BRANCH   1  13
HETATM   13  C8  UNL     1      25.662   2.039  52.497  1.00  0.00     0.108 C 
BRANCH  13  14
HETATM   14  C9  UNL     1      26.429   2.096  51.209  1.00  0.00     0.189 C 
BRANCH  14  15
HETATM   15  O1  UNL     1      27.234   3.245  51.278  1.00  0.00    -0.399 OA
HETATM   16  H15 UNL     1      26.816   3.820  51.977  1.00  0.00     0.209 HD
ENDBRANCH  14  15
ENDBRANCH  13  14
BRANCH  13  17
HETATM   17  C10 UNL     1      26.461   1.548  53.647  1.00  0.00     0.050 C 
BRANCH  17  18
HETATM   18  C11 UNL     1      27.276   0.352  53.455  1.00  0.00     0.035 A 
HETATM   19  S1  UNL     1      28.890   0.516  53.797  1.00  0.00    -0.129 SA
HETATM   20  C12 UNL     1      29.893  -0.758  53.653  1.00  0.00     0.045 A 
HETATM   21  C13 UNL     1      29.258  -1.992  53.213  1.00  0.00     0.003 A 
HETATM   22  C14 UNL     1      27.960  -1.981  52.967  1.00  0.00    -0.025 A 
HETATM   23  C15 UNL     1      26.847  -0.998  53.008  1.00  0.00     0.049 A 
ENDBRANCH  17  18
ENDBRANCH  13  17
ENDBRANCH   1  13
TORSDOF 8
ENDMDL
MODEL 2
REMARK VINA RESULT:      -6.8      2.542      4.033
REMARK  8 active torsions:
REMARK  status: ('A' for Active; 'I' for Inactive)
REMARK    1  A    between atoms: C2_2  and  C3_3 
REMARK    2  A    between atoms: C4_4  and  P1_5 
REMARK    3  A    between atoms: C7_10  and  N3_11 
REMARK    4  A    between atoms: N3_11  and  C8_12 
REMARK    5  A    between atoms: C8_12  and  C9_13 
REMARK    6  A    between atoms: C8_12  and  C10_15 
REMARK    7  A    between atoms: C9_13  and  O1_14 
REMARK    8  A    between atoms: C10_15  and  C11_16 
ROOT
HETATM    1  N3  UNL     1      24.278   0.924  53.338  1.00  0.00    -0.367 N 
HETATM    2  H11 UNL     1      25.066   0.909  54.050  1.00  0.00     0.161 HD
ENDROOT
BRANCH   1   3
HETATM    3  C7  UNL     1      23.120   0.171  53.658  1.00  0.00     0.133 A 
HETATM    4  P1  UNL     1      21.448   0.524  53.008  1.00  0.00    -0.001 P 
HETATM    5  C5  UNL     1      20.331  -0.751  53.739  1.00  0.00     0.196 A 
HETATM    6  N1  UNL     1      21.078  -1.629  54.586  1.00  0.00    -0.278 NA
HETATM    7  C6  UNL     1      22.294  -1.667  54.892  1.00  0.00     0.229 A 
HETATM    8  N2  UNL     1      23.366  -0.823  54.482  1.00  0.00    -0.224 NA
BRANCH   4   9
HETATM    9  C4  UNL     1      21.366   0.412  51.183  1.00  0.00     0.012 C 
HETATM   10  C3  UNL     1      21.539   1.206  50.106  1.00  0.00    -0.026 C 
BRANCH  10  11
HETATM   11  C2  UNL     1      21.465   1.086  48.614  1.00  0.00     0.022 C 
HETATM   12  C1  UNL     1      22.424   2.095  47.970  1.00  0.00     0.009 C 
ENDBRANCH  10  11
ENDBRANCH   4   9
ENDBRANCH   1   3
BRANCH   1  13
HETATM   13  C8  UNL     1      24.540   1.719  52.164  1.00  0.00     0.108 C 
BRANCH  13  14
HETATM   14  C9  UNL     1      24.160   3.166  52.288  1.00  0.00     0.189 C 
BRANCH  14  15
HETATM   15  O1  UNL     1      24.596   3.582  53.557  1.00  0.00    -0.399 OA
HETATM   16  H15 UNL     1      25.206   2.862  53.877  1.00  0.00     0.209 HD
ENDBRANCH  14  15
ENDBRANCH  13  14
BRANCH  13  17
HETATM   17  C10 UNL     1      25.861   1.502  51.523  1.00  0.00     0.050 C 
BRANCH  17  18
HETATM   18  C11 UNL     1      26.905   0.850  52.308  1.00  0.00     0.035 A 
HETATM   19  S1  UNL     1      27.901   1.861  53.165  1.00  0.00    -0.129 SA
HETATM   20  C12 UNL     1      29.081   1.248  54.104  1.00  0.00     0.045 A 
HETATM   21  C13 UNL     1      29.168  -0.205  54.109  1.00  0.00     0.003 A 
HETATM   22  C14 UNL     1      28.313  -0.892  53.372  1.00  0.00    -0.025 A 
HETATM   23  C15 UNL     1      27.184  -0.602  52.451  1.00  0.00     0.049 A 
ENDBRANCH  17  18
ENDBRANCH  13  17
ENDBRANCH   1  13
TORSDOF 8
ENDMDL
MODEL 3
REMARK VINA RESULT:      -6.6      3.457      5.985
REMARK  8 active torsions:
REMARK  status: ('A' for Active; 'I' for Inactive)
REMARK    1  A    between atoms: C2_2  and  C3_3 
REMARK    2  A    between atoms: C4_4  and  P1_5 
REMARK    3  A    between atoms: C7_10  and  N3_11 
REMARK    4  A    between atoms: N3_11  and  C8_12 
REMARK    5  A    between atoms: C8_12  and  C9_13 
REMARK    6  A    between atoms: C8_12  and  C10_15 
REMARK    7  A    between atoms: C9_13  and  O1_14 
REMARK    8  A    between atoms: C10_15  and  C11_16 
ROOT
HETATM    1  N3  UNL     1      25.990   3.028  52.101  1.00  0.00    -0.367 N 
HETATM    2  H11 UNL     1      26.427   3.984  51.951  1.00  0.00     0.161 HD
ENDROOT
BRANCH   1   3
HETATM    3  C7  UNL     1      26.727   2.112  52.895  1.00  0.00     0.133 A 
HETATM    4  P1  UNL     1      26.000   1.074  54.211  1.00  0.00    -0.001 P 
HETATM    5  C5  UNL     1      27.390   0.081  54.911  1.00  0.00     0.196 A 
HETATM    6  N1  UNL     1      28.610   0.404  54.237  1.00  0.00    -0.278 NA
HETATM    7  C6  UNL     1      28.869   1.203  53.306  1.00  0.00     0.229 A 
HETATM    8  N2  UNL     1      28.005   2.080  52.589  1.00  0.00    -0.224 NA
BRANCH   4   9
HETATM    9  C4  UNL     1      24.715  -0.066  53.580  1.00  0.00     0.012 C 
HETATM   10  C3  UNL     1      23.392  -0.288  53.724  1.00  0.00    -0.026 C 
BRANCH  10  11
HETATM   11  C2  UNL     1      22.360  -1.234  53.190  1.00  0.00     0.022 C 
HETATM   12  C1  UNL     1      21.289  -1.482  54.260  1.00  0.00     0.009 C 
ENDBRANCH  10  11
ENDBRANCH   4   9
ENDBRANCH   1   3
BRANCH   1  13
HETATM   13  C8  UNL     1      24.712   2.841  51.460  1.00  0.00     0.108 C 
BRANCH  13  14
HETATM   14  C9  UNL     1      23.553   3.473  52.174  1.00  0.00     0.189 C 
BRANCH  14  15
HETATM   15  O1  UNL     1      24.090   4.500  52.968  1.00  0.00    -0.399 OA
HETATM   16  H15 UNL     1      24.380   4.058  53.813  1.00  0.00     0.209 HD
ENDBRANCH  14  15
ENDBRANCH  13  14
BRANCH  13  17
HETATM   17  C10 UNL     1      24.694   3.051  49.990  1.00  0.00     0.050 C 
BRANCH  17  18
HETATM   18  C11 UNL     1      25.548   4.097  49.436  1.00  0.00     0.035 A 
HETATM   19  S1  UNL     1      24.813   5.556  49.155  1.00  0.00    -0.129 SA
HETATM   20  C12 UNL     1      25.673   6.808  48.570  1.00  0.00     0.045 A 
HETATM   21  C13 UNL     1      27.080   6.526  48.329  1.00  0.00     0.003 A 
HETATM   22  C14 UNL     1      27.536   5.314  48.591  1.00  0.00    -0.025 A 
HETATM   23  C15 UNL     1      26.995   4.030  49.105  1.00  0.00     0.049 A 
ENDBRANCH  17  18
ENDBRANCH  13  17
ENDBRANCH   1  13
TORSDOF 8
ENDMDL
MODEL 4
REMARK VINA RESULT:      -6.5      2.006      4.053
REMARK  8 active torsions:
REMARK  status: ('A' for Active; 'I' for Inactive)
REMARK    1  A    between atoms: C2_2  and  C3_3 
REMARK    2  A    between atoms: C4_4  and  P1_5 
REMARK    3  A    between atoms: C7_10  and  N3_11 
REMARK    4  A    between atoms: N3_11  and  C8_12 
REMARK    5  A    between atoms: C8_12  and  C9_13 
REMARK    6  A    between atoms: C8_12  and  C10_15 
REMARK    7  A    between atoms: C9_13  and  O1_14 
REMARK    8  A    between atoms: C10_15  and  C11_16 
ROOT
HETATM    1  N3  UNL     1      25.106   2.908  53.081  1.00  0.00    -0.367 N 
HETATM    2  H11 UNL     1      25.452   3.549  53.855  1.00  0.00     0.161 HD
ENDROOT
BRANCH   1   3
HETATM    3  C7  UNL     1      23.749   3.056  52.696  1.00  0.00     0.133 A 
HETATM    4  P1  UNL     1      23.013   4.615  52.091  1.00  0.00    -0.001 P 
HETATM    5  C5  UNL     1      21.240   4.245  51.737  1.00  0.00     0.196 A 
HETATM    6  N1  UNL     1      20.958   2.874  52.032  1.00  0.00    -0.278 NA
HETATM    7  C6  UNL     1      21.677   1.943  52.465  1.00  0.00     0.229 A 
HETATM    8  N2  UNL     1      23.058   1.944  52.817  1.00  0.00    -0.224 NA
BRANCH   4   9
HETATM    9  C4  UNL     1      23.812   5.223  50.561  1.00  0.00     0.012 C 
HETATM   10  C3  UNL     1      25.044   5.545  50.114  1.00  0.00    -0.026 C 
BRANCH  10  11
HETATM   11  C2  UNL     1      25.672   6.042  48.847  1.00  0.00     0.022 C 
HETATM   12  C1  UNL     1      27.068   5.426  48.691  1.00  0.00     0.009 C 
ENDBRANCH  10  11
ENDBRANCH   4   9
ENDBRANCH   1   3
BRANCH   1  13
HETATM   13  C8  UNL     1      26.097   1.998  52.563  1.00  0.00     0.108 C 
BRANCH  13  14
HETATM   14  C9  UNL     1      26.527   2.274  51.152  1.00  0.00     0.189 C 
BRANCH  14  15
HETATM   15  O1  UNL     1      27.513   3.271  51.227  1.00  0.00    -0.399 OA
HETATM   16  H15 UNL     1      27.158   3.947  51.868  1.00  0.00     0.209 HD
ENDBRANCH  14  15
ENDBRANCH  13  14
BRANCH  13  17
HETATM   17  C10 UNL     1      27.222   1.684  53.480  1.00  0.00     0.050 C 
BRANCH  17  18
HETATM   18  C11 UNL     1      27.832   0.361  53.390  1.00  0.00     0.035 A 
HETATM   19  S1  UNL     1      26.834  -0.861  52.879  1.00  0.00    -0.129 SA
HETATM   20  C12 UNL     1      27.410  -2.373  52.707  1.00  0.00     0.045 A 
HETATM   21  C13 UNL     1      28.819  -2.533  53.034  1.00  0.00     0.003 A 
HETATM   22  C14 UNL     1      29.499  -1.474  53.437  1.00  0.00    -0.025 A 
HETATM   23  C15 UNL     1      29.234  -0.033  53.680  1.00  0.00     0.049 A 
ENDBRANCH  17  18
ENDBRANCH  13  17
ENDBRANCH   1  13
TORSDOF 8
ENDMDL
MODEL 5
REMARK VINA RESULT:      -6.3      3.405      5.864
REMARK  8 active torsions:
REMARK  status: ('A' for Active; 'I' for Inactive)
REMARK    1  A    between atoms: C2_2  and  C3_3 
REMARK    2  A    between atoms: C4_4  and  P1_5 
REMARK    3  A    between atoms: C7_10  and  N3_11 
REMARK    4  A    between atoms: N3_11  and  C8_12 
REMARK    5  A    between atoms: C8_12  and  C9_13 
REMARK    6  A    between atoms: C8_12  and  C10_15 
REMARK    7  A    between atoms: C9_13  and  O1_14 
REMARK    8  A    between atoms: C10_15  and  C11_16 
ROOT
HETATM    1  N3  UNL     1      25.029   3.678  52.109  1.00  0.00    -0.367 N 
HETATM    2  H11 UNL     1      25.609   4.468  52.518  1.00  0.00     0.161 HD
ENDROOT
BRANCH   1   3
HETATM    3  C7  UNL     1      25.416   2.359  52.459  1.00  0.00     0.133 A 
HETATM    4  P1  UNL     1      24.262   1.064  53.032  1.00  0.00    -0.001 P 
HETATM    5  C5  UNL     1      25.287  -0.439  53.343  1.00  0.00     0.196 A 
HETATM    6  N1  UNL     1      26.661  -0.164  53.053  1.00  0.00    -0.278 NA
HETATM    7  C6  UNL     1      27.242   0.871  52.647  1.00  0.00     0.229 A 
HETATM    8  N2  UNL     1      26.708   2.153  52.330  1.00  0.00    -0.224 NA
BRANCH   4   9
HETATM    9  C4  UNL     1      22.980   0.664  51.789  1.00  0.00     0.012 C 
HETATM   10  C3  UNL     1      21.865   1.212  51.264  1.00  0.00    -0.026 C 
BRANCH  10  11
HETATM   11  C2  UNL     1      20.829   0.859  50.240  1.00  0.00     0.022 C 
HETATM   12  C1  UNL     1      21.389   1.115  48.835  1.00  0.00     0.009 C 
ENDBRANCH  10  11
ENDBRANCH   4   9
ENDBRANCH   1   3
BRANCH   1  13
HETATM   13  C8  UNL     1      23.941   4.103  51.264  1.00  0.00     0.108 C 
BRANCH  13  14
HETATM   14  C9  UNL     1      23.253   5.360  51.710  1.00  0.00     0.189 C 
BRANCH  14  15
HETATM   15  O1  UNL     1      24.125   5.989  52.615  1.00  0.00    -0.399 OA
HETATM   16  H15 UNL     1      24.758   6.515  52.051  1.00  0.00     0.209 HD
ENDBRANCH  14  15
ENDBRANCH  13  14
BRANCH  13  17
HETATM   17  C10 UNL     1      24.205   4.054  49.803  1.00  0.00     0.050 C 
BRANCH  17  18
HETATM   18  C11 UNL     1      25.455   4.626  49.313  1.00  0.00     0.035 A 
HETATM   19  S1  UNL     1      25.390   6.220  48.862  1.00  0.00    -0.129 SA
HETATM   20  C12 UNL     1      26.730   6.977  48.330  1.00  0.00     0.045 A 
HETATM   21  C13 UNL     1      27.927   6.149  48.291  1.00  0.00     0.003 A 
HETATM   22  C14 UNL     1      27.835   4.888  48.673  1.00  0.00    -0.025 A 
HETATM   23  C15 UNL     1      26.781   3.972  49.177  1.00  0.00     0.049 A 
ENDBRANCH  17  18
ENDBRANCH  13  17
ENDBRANCH   1  13
TORSDOF 8
ENDMDL
MODEL 6
REMARK VINA RESULT:      -6.3      2.693      4.461
REMARK  8 active torsions:
REMARK  status: ('A' for Active; 'I' for Inactive)
REMARK    1  A    between atoms: C2_2  and  C3_3 
REMARK    2  A    between atoms: C4_4  and  P1_5 
REMARK    3  A    between atoms: C7_10  and  N3_11 
REMARK    4  A    between atoms: N3_11  and  C8_12 
REMARK    5  A    between atoms: C8_12  and  C9_13 
REMARK    6  A    between atoms: C8_12  and  C10_15 
REMARK    7  A    between atoms: C9_13  and  O1_14 
REMARK    8  A    between atoms: C10_15  and  C11_16 
ROOT
HETATM    1  N3  UNL     1      23.089   1.662  52.788  1.00  0.00    -0.367 N 
HETATM    2  H11 UNL     1      22.673   2.215  53.595  1.00  0.00     0.161 HD
ENDROOT
BRANCH   1   3
HETATM    3  C7  UNL     1      22.539   1.903  51.504  1.00  0.00     0.133 A 
HETATM    4  P1  UNL     1      22.668   3.491  50.608  1.00  0.00    -0.001 P 
HETATM    5  C5  UNL     1      21.787   3.251  49.004  1.00  0.00     0.196 A 
HETATM    6  N1  UNL     1      21.266   1.921  48.926  1.00  0.00    -0.278 NA
HETATM    7  C6  UNL     1      21.311   0.954  49.722  1.00  0.00     0.229 A 
HETATM    8  N2  UNL     1      21.915   0.857  51.009  1.00  0.00    -0.224 NA
BRANCH   4   9
HETATM    9  C4  UNL     1      24.403   3.967  50.269  1.00  0.00     0.012 C 
HETATM   10  C3  UNL     1      25.474   3.499  49.596  1.00  0.00    -0.026 C 
BRANCH  10  11
HETATM   11  C2  UNL     1      26.890   3.913  49.334  1.00  0.00     0.022 C 
HETATM   12  C1  UNL     1      26.910   5.336  48.762  1.00  0.00     0.009 C 
ENDBRANCH  10  11
ENDBRANCH   4   9
ENDBRANCH   1   3
BRANCH   1  13
HETATM   13  C8  UNL     1      24.150   0.759  53.160  1.00  0.00     0.108 C 
BRANCH  13  14
HETATM   14  C9  UNL     1      23.688  -0.555  53.719  1.00  0.00     0.189 C 
BRANCH  14  15
HETATM   15  O1  UNL     1      22.313  -0.417  53.972  1.00  0.00    -0.399 OA
HETATM   16  H15 UNL     1      21.967  -1.347  54.072  1.00  0.00     0.209 HD
ENDBRANCH  14  15
ENDBRANCH  13  14
BRANCH  13  17
HETATM   17  C10 UNL     1      25.260   0.635  52.182  1.00  0.00     0.050 C 
BRANCH  17  18
HETATM   18  C11 UNL     1      26.621   0.527  52.700  1.00  0.00     0.035 A 
HETATM   19  S1  UNL     1      27.353   1.957  53.107  1.00  0.00    -0.129 SA
HETATM   20  C12 UNL     1      28.859   1.961  53.726  1.00  0.00     0.045 A 
HETATM   21  C13 UNL     1      29.464   0.645  53.874  1.00  0.00     0.003 A 
HETATM   22  C14 UNL     1      28.769  -0.415  53.502  1.00  0.00    -0.025 A 
HETATM   23  C15 UNL     1      27.431  -0.698  52.923  1.00  0.00     0.049 A 
ENDBRANCH  17  18
ENDBRANCH  13  17
ENDBRANCH   1  13
TORSDOF 8
ENDMDL
MODEL 7
REMARK VINA RESULT:      -6.2      1.693      2.203
REMARK  8 active torsions:
REMARK  status: ('A' for Active; 'I' for Inactive)
REMARK    1  A    between atoms: C2_2  and  C3_3 
REMARK    2  A    between atoms: C4_4  and  P1_5 
REMARK    3  A    between atoms: C7_10  and  N3_11 
REMARK    4  A    between atoms: N3_11  and  C8_12 
REMARK    5  A    between atoms: C8_12  and  C9_13 
REMARK    6  A    between atoms: C8_12  and  C10_15 
REMARK    7  A    between atoms: C9_13  and  O1_14 
REMARK    8  A    between atoms: C10_15  and  C11_16 
ROOT
HETATM    1  N3  UNL     1      24.695   3.787  51.590  1.00  0.00    -0.367 N 
HETATM    2  H11 UNL     1      25.031   3.957  52.583  1.00  0.00     0.161 HD
ENDROOT
BRANCH   1   3
HETATM    3  C7  UNL     1      23.317   4.011  51.339  1.00  0.00     0.133 A 
HETATM    4  P1  UNL     1      22.136   2.708  50.844  1.00  0.00    -0.001 P 
HETATM    5  C5  UNL     1      20.499   3.541  50.653  1.00  0.00     0.196 A 
HETATM    6  N1  UNL     1      20.625   4.937  50.940  1.00  0.00    -0.278 NA
HETATM    7  C6  UNL     1      21.606   5.640  51.280  1.00  0.00     0.229 A 
HETATM    8  N2  UNL     1      22.964   5.267  51.498  1.00  0.00    -0.224 NA
BRANCH   4   9
HETATM    9  C4  UNL     1      21.986   1.382  52.096  1.00  0.00     0.012 C 
HETATM   10  C3  UNL     1      22.785   0.615  52.867  1.00  0.00    -0.026 C 
BRANCH  10  11
HETATM   11  C2  UNL     1      22.633  -0.469  53.891  1.00  0.00     0.022 C 
HETATM   12  C1  UNL     1      21.355  -0.231  54.704  1.00  0.00     0.009 C 
ENDBRANCH  10  11
ENDBRANCH   4   9
ENDBRANCH   1   3
BRANCH   1  13
HETATM   13  C8  UNL     1      25.720   3.356  50.672  1.00  0.00     0.108 C 
BRANCH  13  14
HETATM   14  C9  UNL     1      26.085   4.362  49.620  1.00  0.00     0.189 C 
BRANCH  14  15
HETATM   15  O1  UNL     1      25.989   5.624  50.228  1.00  0.00    -0.399 OA
HETATM   16  H15 UNL     1      26.579   6.222  49.692  1.00  0.00     0.209 HD
ENDBRANCH  14  15
ENDBRANCH  13  14
BRANCH  13  17
HETATM   17  C10 UNL     1      26.892   2.684  51.288  1.00  0.00     0.050 C 
BRANCH  17  18
HETATM   18  C11 UNL     1      26.649   1.737  52.372  1.00  0.00     0.035 A 
HETATM   19  S1  UNL     1      26.536   0.144  51.927  1.00  0.00    -0.129 SA
HETATM   20  C12 UNL     1      26.300  -1.007  53.053  1.00  0.00     0.045 A 
HETATM   21  C13 UNL     1      26.200  -0.517  54.420  1.00  0.00     0.003 A 
HETATM   22  C14 UNL     1      26.301   0.783  54.633  1.00  0.00    -0.025 A 
HETATM   23  C15 UNL     1      26.504   2.012  53.825  1.00  0.00     0.049 A 
ENDBRANCH  17  18
ENDBRANCH  13  17
ENDBRANCH   1  13
TORSDOF 8
ENDMDL
MODEL 8
REMARK VINA RESULT:      -6.1      8.584     11.239
REMARK  8 active torsions:
REMARK  status: ('A' for Active; 'I' for Inactive)
REMARK    1  A    between atoms: C2_2  and  C3_3 
REMARK    2  A    between atoms: C4_4  and  P1_5 
REMARK    3  A    between atoms: C7_10  and  N3_11 
REMARK    4  A    between atoms: N3_11  and  C8_12 
REMARK    5  A    between atoms: C8_12  and  C9_13 
REMARK    6  A    between atoms: C8_12  and  C10_15 
REMARK    7  A    between atoms: C9_13  and  O1_14 
REMARK    8  A    between atoms: C10_15  and  C11_16 
ROOT
HETATM    1  N3  UNL     1      32.115   8.577  47.620  1.00  0.00    -0.367 N 
HETATM    2  H11 UNL     1      32.202   9.136  46.720  1.00  0.00     0.161 HD
ENDROOT
BRANCH   1   3
HETATM    3  C7  UNL     1      33.265   7.858  48.034  1.00  0.00     0.133 A 
HETATM    4  P1  UNL     1      33.229   6.171  48.735  1.00  0.00    -0.001 P 
HETATM    5  C5  UNL     1      34.983   5.724  49.094  1.00  0.00     0.196 A 
HETATM    6  N1  UNL     1      35.848   6.804  48.729  1.00  0.00    -0.278 NA
HETATM    7  C6  UNL     1      35.618   7.934  48.235  1.00  0.00     0.229 A 
HETATM    8  N2  UNL     1      34.381   8.533  47.863  1.00  0.00    -0.224 NA
BRANCH   4   9
HETATM    9  C4  UNL     1      32.527   4.942  47.574  1.00  0.00     0.012 C 
HETATM   10  C3  UNL     1      32.512   3.605  47.394  1.00  0.00    -0.026 C 
BRANCH  10  11
HETATM   11  C2  UNL     1      31.924   2.621  46.429  1.00  0.00     0.022 C 
HETATM   12  C1  UNL     1      32.303   1.197  46.855  1.00  0.00     0.009 C 
ENDBRANCH  10  11
ENDBRANCH   4   9
ENDBRANCH   1   3
BRANCH   1  13
HETATM   13  C8  UNL     1      30.824   8.658  48.257  1.00  0.00     0.108 C 
BRANCH  13  14
HETATM   14  C9  UNL     1      30.590   9.913  49.045  1.00  0.00     0.189 C 
BRANCH  14  15
HETATM   15  O1  UNL     1      29.814   9.545  50.156  1.00  0.00    -0.399 OA
HETATM   16  H15 UNL     1      28.985  10.096  50.095  1.00  0.00     0.209 HD
ENDBRANCH  14  15
ENDBRANCH  13  14
BRANCH  13  17
HETATM   17  C10 UNL     1      29.667   8.254  47.419  1.00  0.00     0.050 C 
BRANCH  17  18
HETATM   18  C11 UNL     1      28.806   7.182  47.908  1.00  0.00     0.035 A 
HETATM   19  S1  UNL     1      27.251   7.619  48.281  1.00  0.00    -0.129 SA
HETATM   20  C12 UNL     1      26.188   6.502  48.804  1.00  0.00     0.045 A 
HETATM   21  C13 UNL     1      26.720   5.151  48.907  1.00  0.00     0.003 A 
HETATM   22  C14 UNL     1      27.983   4.943  48.583  1.00  0.00    -0.025 A 
HETATM   23  C15 UNL     1      29.135   5.747  48.101  1.00  0.00     0.049 A 
ENDBRANCH  17  18
ENDBRANCH  13  17
ENDBRANCH   1  13
TORSDOF 8
ENDMDL
MODEL 9
REMARK VINA RESULT:      -6.1      2.256      2.749
REMARK  8 active torsions:
REMARK  status: ('A' for Active; 'I' for Inactive)
REMARK    1  A    between atoms: C2_2  and  C3_3 
REMARK    2  A    between atoms: C4_4  and  P1_5 
REMARK    3  A    between atoms: C7_10  and  N3_11 
REMARK    4  A    between atoms: N3_11  and  C8_12 
REMARK    5  A    between atoms: C8_12  and  C9_13 
REMARK    6  A    between atoms: C8_12  and  C10_15 
REMARK    7  A    between atoms: C9_13  and  O1_14 
REMARK    8  A    between atoms: C10_15  and  C11_16 
ROOT
HETATM    1  N3  UNL     1      25.645   3.775  51.099  1.00  0.00    -0.367 N 
HETATM    2  H11 UNL     1      26.671   3.931  50.869  1.00  0.00     0.161 HD
ENDROOT
BRANCH   1   3
HETATM    3  C7  UNL     1      24.705   4.517  50.340  1.00  0.00     0.133 A 
HETATM    4  P1  UNL     1      23.511   3.776  49.171  1.00  0.00    -0.001 P 
HETATM    5  C5  UNL     1      22.541   5.180  48.467  1.00  0.00     0.196 A 
HETATM    6  N1  UNL     1      22.995   6.417  49.025  1.00  0.00    -0.278 NA
HETATM    7  C6  UNL     1      23.889   6.682  49.863  1.00  0.00     0.229 A 
HETATM    8  N2  UNL     1      24.776   5.811  50.559  1.00  0.00    -0.224 NA
BRANCH   4   9
HETATM    9  C4  UNL     1      22.361   2.609  49.987  1.00  0.00     0.012 C 
HETATM   10  C3  UNL     1      22.062   1.294  49.966  1.00  0.00    -0.026 C 
BRANCH  10  11
HETATM   11  C2  UNL     1      21.110   0.360  50.649  1.00  0.00     0.022 C 
HETATM   12  C1  UNL     1      21.561   0.137  52.098  1.00  0.00     0.009 C 
ENDBRANCH  10  11
ENDBRANCH   4   9
ENDBRANCH   1   3
BRANCH   1  13
HETATM   13  C8  UNL     1      25.402   2.824  52.156  1.00  0.00     0.108 C 
BRANCH  13  14
HETATM   14  C9  UNL     1      24.168   3.090  52.968  1.00  0.00     0.189 C 
BRANCH  14  15
HETATM   15  O1  UNL     1      24.313   4.383  53.498  1.00  0.00    -0.399 OA
HETATM   16  H15 UNL     1      25.046   4.312  54.171  1.00  0.00     0.209 HD
ENDBRANCH  14  15
ENDBRANCH  13  14
BRANCH  13  17
HETATM   17  C10 UNL     1      25.579   1.397  51.789  1.00  0.00     0.050 C 
BRANCH  17  18
HETATM   18  C11 UNL     1      26.697   0.670  52.383  1.00  0.00     0.035 A 
HETATM   19  S1  UNL     1      27.869   1.603  53.093  1.00  0.00    -0.129 SA
HETATM   20  C12 UNL     1      29.148   0.903  53.818  1.00  0.00     0.045 A 
HETATM   21  C13 UNL     1      29.155  -0.553  53.777  1.00  0.00     0.003 A 
HETATM   22  C14 UNL     1      28.158  -1.172  53.170  1.00  0.00    -0.025 A 
HETATM   23  C15 UNL     1      26.915  -0.798  52.448  1.00  0.00     0.049 A 
ENDBRANCH  17  18
ENDBRANCH  13  17
ENDBRANCH   1  13
TORSDOF 8
ENDMDL
