MODEL 1
REMARK VINA RESULT:      -6.6      0.000      0.000
REMARK  8 active torsions:
REMARK  status: ('A' for Active; 'I' for Inactive)
REMARK    1  A    between atoms: C5_7  and  C6_8 
REMARK    2  A    between atoms: C6_8  and  C7_9 
REMARK    3  A    between atoms: C7_9  and  N3_10 
REMARK    4  A    between atoms: N3_10  and  C8_11 
REMARK    5  A    between atoms: C8_11  and  N4_13 
REMARK    6  A    between atoms: N4_13  and  C9_14 
REMARK    7  A    between atoms: C9_14  and  C10_15 
REMARK    8  A    between atoms: C10_15  and  N5_16 
ROOT
HETATM    1  C8  UNL     1      24.535   4.322  50.852  1.00  0.00     0.171 C 
HETATM    2  S1  UNL     1      23.961   5.868  50.719  1.00  0.00    -0.041 SA
ENDROOT
BRANCH   1   3
HETATM    3  N3  UNL     1      25.945   4.112  50.669  1.00  0.00    -0.343 N 
HETATM    4  H8  UNL     1      26.471   4.887  50.265  1.00  0.00     0.167 HD
BRANCH   3   5
HETATM    5  C7  UNL     1      26.560   2.933  51.013  1.00  0.00     0.091 C 
BRANCH   5   6
HETATM    6  C6  UNL     1      27.006   1.958  51.727  1.00  0.00     0.032 C 
BRANCH   6   7
HETATM    7  C5  UNL     1      27.622   1.324  52.862  1.00  0.00     0.007 A 
HETATM    8  C2  UNL     1      27.410  -0.011  53.087  1.00  0.00     0.043 A 
HETATM    9  C1  UNL     1      26.595  -0.932  52.278  1.00  0.00     0.071 C 
HETATM   10  N1  UNL     1      28.036  -0.495  54.189  1.00  0.00    -0.246 NA
HETATM   11  C3  UNL     1      28.785   0.312  54.954  1.00  0.00     0.232 A 
HETATM   12  N2  UNL     1      28.971   1.625  54.698  1.00  0.00    -0.253 NA
HETATM   13  C4  UNL     1      28.392   2.203  53.629  1.00  0.00     0.131 A 
ENDBRANCH   6   7
ENDBRANCH   5   6
ENDBRANCH   3   5
ENDBRANCH   1   3
BRANCH   1  14
HETATM   14  N4  UNL     1      23.648   3.263  51.137  1.00  0.00    -0.365 N 
HETATM   15  H9  UNL     1      23.490   2.619  50.298  1.00  0.00     0.161 HD
BRANCH  14  16
HETATM   16  C9  UNL     1      22.926   2.909  52.357  1.00  0.00     0.152 C 
BRANCH  16  17
HETATM   17  C10 UNL     1      23.554   1.720  52.990  1.00  0.00     0.292 C 
BRANCH  17  18
HETATM   18  N5  UNL     1      22.755   0.510  52.962  1.00  0.00     0.094 N 
HETATM   19  C11 UNL     1      23.346  -0.463  53.836  1.00  0.00     0.298 C 
HETATM   20  C12 UNL     1      22.461  -1.120  54.821  1.00  0.00     0.198 C 
HETATM   21  O1  UNL     1      21.114  -1.079  54.580  1.00  0.00    -0.388 OA
HETATM   22  C13 UNL     1      20.797   0.293  54.460  1.00  0.00     0.198 C 
HETATM   23  C14 UNL     1      21.361   0.683  53.106  1.00  0.00     0.298 C 
ENDBRANCH  17  18
ENDBRANCH  16  17
ENDBRANCH  14  16
ENDBRANCH   1  14
TORSDOF 8
ENDMDL
MODEL 2
REMARK VINA RESULT:      -6.3      4.832      7.438
REMARK  8 active torsions:
REMARK  status: ('A' for Active; 'I' for Inactive)
REMARK    1  A    between atoms: C5_7  and  C6_8 
REMARK    2  A    between atoms: C6_8  and  C7_9 
REMARK    3  A    between atoms: C7_9  and  N3_10 
REMARK    4  A    between atoms: N3_10  and  C8_11 
REMARK    5  A    between atoms: C8_11  and  N4_13 
REMARK    6  A    between atoms: N4_13  and  C9_14 
REMARK    7  A    between atoms: C9_14  and  C10_15 
REMARK    8  A    between atoms: C10_15  and  N5_16 
ROOT
HETATM    1  C8  UNL     1      26.169   4.704  49.518  1.00  0.00     0.171 C 
HETATM    2  S1  UNL     1      24.538   4.976  49.555  1.00  0.00    -0.041 SA
ENDROOT
BRANCH   1   3
HETATM    3  N3  UNL     1      26.625   3.343  49.595  1.00  0.00    -0.343 N 
HETATM    4  H8  UNL     1      27.088   2.970  48.766  1.00  0.00     0.167 HD
BRANCH   3   5
HETATM    5  C7  UNL     1      26.446   2.573  50.719  1.00  0.00     0.091 C 
BRANCH   5   6
HETATM    6  C6  UNL     1      26.704   1.787  51.707  1.00  0.00     0.032 C 
BRANCH   6   7
HETATM    7  C5  UNL     1      27.450   1.263  52.819  1.00  0.00     0.007 A 
HETATM    8  C2  UNL     1      27.362  -0.071  53.122  1.00  0.00     0.043 A 
HETATM    9  C1  UNL     1      26.566  -1.092  52.422  1.00  0.00     0.071 C 
HETATM   10  N1  UNL     1      28.104  -0.448  54.193  1.00  0.00    -0.246 NA
HETATM   11  C3  UNL     1      28.842   0.453  54.859  1.00  0.00     0.232 A 
HETATM   12  N2  UNL     1      28.903   1.761  54.529  1.00  0.00    -0.253 NA
HETATM   13  C4  UNL     1      28.203   2.236  53.482  1.00  0.00     0.131 A 
ENDBRANCH   6   7
ENDBRANCH   5   6
ENDBRANCH   3   5
ENDBRANCH   1   3
BRANCH   1  14
HETATM   14  N4  UNL     1      27.063   5.789  49.409  1.00  0.00    -0.365 N 
HETATM   15  H9  UNL     1      27.177   6.324  50.329  1.00  0.00     0.161 HD
BRANCH  14  16
HETATM   16  C9  UNL     1      27.838   6.295  48.279  1.00  0.00     0.152 C 
BRANCH  16  17
HETATM   17  C10 UNL     1      29.082   5.497  48.121  1.00  0.00     0.292 C 
BRANCH  17  18
HETATM   18  N5  UNL     1      30.293   6.270  47.928  1.00  0.00     0.094 N 
HETATM   19  C11 UNL     1      30.066   7.618  48.365  1.00  0.00     0.298 C 
HETATM   20  C12 UNL     1      31.054   8.209  49.292  1.00  0.00     0.198 C 
HETATM   21  O1  UNL     1      32.290   7.622  49.349  1.00  0.00    -0.388 OA
HETATM   22  C13 UNL     1      32.047   6.269  49.674  1.00  0.00     0.198 C 
HETATM   23  C14 UNL     1      31.489   5.678  48.392  1.00  0.00     0.298 C 
ENDBRANCH  17  18
ENDBRANCH  16  17
ENDBRANCH  14  16
ENDBRANCH   1  14
TORSDOF 8
ENDMDL
MODEL 3
REMARK VINA RESULT:      -6.2      4.378      6.847
REMARK  8 active torsions:
REMARK  status: ('A' for Active; 'I' for Inactive)
REMARK    1  A    between atoms: C5_7  and  C6_8 
REMARK    2  A    between atoms: C6_8  and  C7_9 
REMARK    3  A    between atoms: C7_9  and  N3_10 
REMARK    4  A    between atoms: N3_10  and  C8_11 
REMARK    5  A    between atoms: C8_11  and  N4_13 
REMARK    6  A    between atoms: N4_13  and  C9_14 
REMARK    7  A    between atoms: C9_14  and  C10_15 
REMARK    8  A    between atoms: C10_15  and  N5_16 
ROOT
HETATM    1  C8  UNL     1      25.491   4.915  50.124  1.00  0.00     0.171 C 
HETATM    2  S1  UNL     1      24.107   4.271  49.485  1.00  0.00    -0.041 SA
ENDROOT
BRANCH   1   3
HETATM    3  N3  UNL     1      26.639   4.057  50.239  1.00  0.00    -0.343 N 
HETATM    4  H8  UNL     1      27.496   4.383  49.790  1.00  0.00     0.167 HD
BRANCH   3   5
HETATM    5  C7  UNL     1      26.595   2.860  50.909  1.00  0.00     0.091 C 
BRANCH   5   6
HETATM    6  C6  UNL     1      26.906   1.910  51.723  1.00  0.00     0.032 C 
BRANCH   6   7
HETATM    7  C5  UNL     1      27.545   1.296  52.856  1.00  0.00     0.007 A 
HETATM    8  C2  UNL     1      27.340  -0.035  53.107  1.00  0.00     0.043 A 
HETATM    9  C1  UNL     1      26.513  -0.971  52.328  1.00  0.00     0.071 C 
HETATM   10  N1  UNL     1      27.988  -0.500  54.205  1.00  0.00    -0.246 NA
HETATM   11  C3  UNL     1      28.749   0.321  54.943  1.00  0.00     0.232 A 
HETATM   12  N2  UNL     1      28.927   1.631  54.662  1.00  0.00    -0.253 NA
HETATM   13  C4  UNL     1      28.327   2.190  53.594  1.00  0.00     0.131 A 
ENDBRANCH   6   7
ENDBRANCH   5   6
ENDBRANCH   3   5
ENDBRANCH   1   3
BRANCH   1  14
HETATM   14  N4  UNL     1      25.518   6.264  50.533  1.00  0.00    -0.365 N 
HETATM   15  H9  UNL     1      25.582   6.373  51.595  1.00  0.00     0.161 HD
BRANCH  14  16
HETATM   16  C9  UNL     1      25.472   7.508  49.768  1.00  0.00     0.152 C 
BRANCH  16  17
HETATM   17  C10 UNL     1      26.743   8.257  49.944  1.00  0.00     0.292 C 
BRANCH  17  18
HETATM   18  N5  UNL     1      27.585   8.332  48.766  1.00  0.00     0.094 N 
HETATM   19  C11 UNL     1      28.865   8.866  49.136  1.00  0.00     0.298 C 
HETATM   20  C12 UNL     1      30.066   8.124  48.696  1.00  0.00     0.198 C 
HETATM   21  O1  UNL     1      29.915   7.247  47.656  1.00  0.00    -0.388 OA
HETATM   22  C13 UNL     1      28.898   6.355  48.064  1.00  0.00     0.198 C 
HETATM   23  C14 UNL     1      27.625   7.175  47.957  1.00  0.00     0.298 C 
ENDBRANCH  17  18
ENDBRANCH  16  17
ENDBRANCH  14  16
ENDBRANCH   1  14
TORSDOF 8
ENDMDL
MODEL 4
REMARK VINA RESULT:      -6.1      2.203      5.719
REMARK  8 active torsions:
REMARK  status: ('A' for Active; 'I' for Inactive)
REMARK    1  A    between atoms: C5_7  and  C6_8 
REMARK    2  A    between atoms: C6_8  and  C7_9 
REMARK    3  A    between atoms: C7_9  and  N3_10 
REMARK    4  A    between atoms: N3_10  and  C8_11 
REMARK    5  A    between atoms: C8_11  and  N4_13 
REMARK    6  A    between atoms: N4_13  and  C9_14 
REMARK    7  A    between atoms: C9_14  and  C10_15 
REMARK    8  A    between atoms: C10_15  and  N5_16 
ROOT
HETATM    1  C8  UNL     1      25.166   3.286  51.408  1.00  0.00     0.171 C 
HETATM    2  S1  UNL     1      24.524   3.417  49.889  1.00  0.00    -0.041 SA
ENDROOT
BRANCH   1   3
HETATM    3  N3  UNL     1      24.263   3.333  52.525  1.00  0.00    -0.343 N 
HETATM    4  H8  UNL     1      24.096   4.253  52.935  1.00  0.00     0.167 HD
BRANCH   3   5
HETATM    5  C7  UNL     1      23.655   2.208  53.023  1.00  0.00     0.091 C 
BRANCH   5   6
HETATM    6  C6  UNL     1      23.042   1.074  53.066  1.00  0.00     0.032 C 
BRANCH   6   7
HETATM    7  C5  UNL     1      22.040   0.128  53.477  1.00  0.00     0.007 A 
HETATM    8  C2  UNL     1      22.356  -0.830  54.404  1.00  0.00     0.043 A 
HETATM    9  C1  UNL     1      23.652  -1.028  55.073  1.00  0.00     0.071 C 
HETATM   10  N1  UNL     1      21.333  -1.668  54.708  1.00  0.00    -0.246 NA
HETATM   11  C3  UNL     1      20.138  -1.522  54.119  1.00  0.00     0.232 A 
HETATM   12  N2  UNL     1      19.864  -0.563  53.208  1.00  0.00    -0.253 NA
HETATM   13  C4  UNL     1      20.812   0.319  52.837  1.00  0.00     0.131 A 
ENDBRANCH   6   7
ENDBRANCH   5   6
ENDBRANCH   3   5
ENDBRANCH   1   3
BRANCH   1  14
HETATM   14  N4  UNL     1      26.558   3.131  51.574  1.00  0.00    -0.365 N 
HETATM   15  H9  UNL     1      27.104   4.020  51.338  1.00  0.00     0.161 HD
BRANCH  14  16
HETATM   16  C9  UNL     1      27.360   1.988  52.003  1.00  0.00     0.152 C 
BRANCH  16  17
HETATM   17  C10 UNL     1      27.391   1.919  53.487  1.00  0.00     0.292 C 
BRANCH  17  18
HETATM   18  N5  UNL     1      27.360   0.582  54.046  1.00  0.00     0.094 N 
HETATM   19  C11 UNL     1      26.602  -0.273  53.178  1.00  0.00     0.298 C 
HETATM   20  C12 UNL     1      27.217  -1.556  52.779  1.00  0.00     0.198 C 
HETATM   21  O1  UNL     1      28.243  -2.028  53.553  1.00  0.00    -0.388 OA
HETATM   22  C13 UNL     1      29.206  -0.995  53.568  1.00  0.00     0.198 C 
HETATM   23  C14 UNL     1      28.600   0.060  54.475  1.00  0.00     0.298 C 
ENDBRANCH  17  18
ENDBRANCH  16  17
ENDBRANCH  14  16
ENDBRANCH   1  14
TORSDOF 8
ENDMDL
MODEL 5
REMARK VINA RESULT:      -6.1      1.604      2.239
REMARK  8 active torsions:
REMARK  status: ('A' for Active; 'I' for Inactive)
REMARK    1  A    between atoms: C5_7  and  C6_8 
REMARK    2  A    between atoms: C6_8  and  C7_9 
REMARK    3  A    between atoms: C7_9  and  N3_10 
REMARK    4  A    between atoms: N3_10  and  C8_11 
REMARK    5  A    between atoms: C8_11  and  N4_13 
REMARK    6  A    between atoms: N4_13  and  C9_14 
REMARK    7  A    between atoms: C9_14  and  C10_15 
REMARK    8  A    between atoms: C10_15  and  N5_16 
ROOT
HETATM    1  C8  UNL     1      24.106   3.287  51.772  1.00  0.00     0.171 C 
HETATM    2  S1  UNL     1      24.943   4.047  50.565  1.00  0.00    -0.041 SA
ENDROOT
BRANCH   1   3
HETATM    3  N3  UNL     1      24.701   3.248  53.080  1.00  0.00    -0.343 N 
HETATM    4  H8  UNL     1      24.505   4.041  53.692  1.00  0.00     0.167 HD
BRANCH   3   5
HETATM    5  C7  UNL     1      25.495   2.207  53.493  1.00  0.00     0.091 C 
BRANCH   5   6
HETATM    6  C6  UNL     1      26.546   1.531  53.810  1.00  0.00     0.032 C 
BRANCH   6   7
HETATM    7  C5  UNL     1      27.548   0.507  53.681  1.00  0.00     0.007 A 
HETATM    8  C2  UNL     1      28.864   0.820  53.901  1.00  0.00     0.043 A 
HETATM    9  C1  UNL     1      29.417   2.132  54.275  1.00  0.00     0.071 C 
HETATM   10  N1  UNL     1      29.717  -0.223  53.744  1.00  0.00    -0.246 NA
HETATM   11  C3  UNL     1      29.252  -1.434  53.402  1.00  0.00     0.232 A 
HETATM   12  N2  UNL     1      27.945  -1.703  53.193  1.00  0.00    -0.253 NA
HETATM   13  C4  UNL     1      27.018  -0.735  53.323  1.00  0.00     0.131 A 
ENDBRANCH   6   7
ENDBRANCH   5   6
ENDBRANCH   3   5
ENDBRANCH   1   3
BRANCH   1  14
HETATM   14  N4  UNL     1      22.849   2.708  51.502  1.00  0.00    -0.365 N 
HETATM   15  H9  UNL     1      22.515   2.893  50.503  1.00  0.00     0.161 HD
BRANCH  14  16
HETATM   16  C9  UNL     1      21.948   1.917  52.337  1.00  0.00     0.152 C 
BRANCH  16  17
HETATM   17  C10 UNL     1      21.696   0.597  51.702  1.00  0.00     0.292 C 
BRANCH  17  18
HETATM   18  N5  UNL     1      21.806  -0.546  52.586  1.00  0.00     0.094 N 
HETATM   19  C11 UNL     1      23.159  -0.650  53.056  1.00  0.00     0.298 C 
HETATM   20  C12 UNL     1      23.365  -0.793  54.512  1.00  0.00     0.198 C 
HETATM   21  O1  UNL     1      22.299  -1.222  55.257  1.00  0.00    -0.388 OA
HETATM   22  C13 UNL     1      21.260  -0.303  54.987  1.00  0.00     0.198 C 
HETATM   23  C14 UNL     1      20.811  -0.659  53.582  1.00  0.00     0.298 C 
ENDBRANCH  17  18
ENDBRANCH  16  17
ENDBRANCH  14  16
ENDBRANCH   1  14
TORSDOF 8
ENDMDL
MODEL 6
REMARK VINA RESULT:      -6.0      2.161      5.567
REMARK  8 active torsions:
REMARK  status: ('A' for Active; 'I' for Inactive)
REMARK    1  A    between atoms: C5_7  and  C6_8 
REMARK    2  A    between atoms: C6_8  and  C7_9 
REMARK    3  A    between atoms: C7_9  and  N3_10 
REMARK    4  A    between atoms: N3_10  and  C8_11 
REMARK    5  A    between atoms: C8_11  and  N4_13 
REMARK    6  A    between atoms: N4_13  and  C9_14 
REMARK    7  A    between atoms: C9_14  and  C10_15 
REMARK    8  A    between atoms: C10_15  and  N5_16 
ROOT
HETATM    1  C8  UNL     1      25.335   3.652  50.473  1.00  0.00     0.171 C 
HETATM    2  S1  UNL     1      25.641   4.995  49.556  1.00  0.00    -0.041 SA
ENDROOT
BRANCH   1   3
HETATM    3  N3  UNL     1      24.169   2.875  50.155  1.00  0.00    -0.343 N 
HETATM    4  H8  UNL     1      23.820   2.949  49.198  1.00  0.00     0.167 HD
BRANCH   3   5
HETATM    5  C7  UNL     1      23.547   2.075  51.081  1.00  0.00     0.091 C 
BRANCH   5   6
HETATM    6  C6  UNL     1      23.310   1.446  52.181  1.00  0.00     0.032 C 
BRANCH   6   7
HETATM    7  C5  UNL     1      22.577   0.611  53.095  1.00  0.00     0.007 A 
HETATM    8  C2  UNL     1      21.255   0.876  53.339  1.00  0.00     0.043 A 
HETATM    9  C1  UNL     1      20.441   1.955  52.756  1.00  0.00     0.071 C 
HETATM   10  N1  UNL     1      20.671   0.027  54.221  1.00  0.00    -0.246 NA
HETATM   11  C3  UNL     1      21.380  -0.968  54.776  1.00  0.00     0.232 A 
HETATM   12  N2  UNL     1      22.684  -1.196  54.510  1.00  0.00    -0.253 NA
HETATM   13  C4  UNL     1      23.355  -0.410  53.648  1.00  0.00     0.131 A 
ENDBRANCH   6   7
ENDBRANCH   5   6
ENDBRANCH   3   5
ENDBRANCH   1   3
BRANCH   1  14
HETATM   14  N4  UNL     1      26.207   3.302  51.524  1.00  0.00    -0.365 N 
HETATM   15  H9  UNL     1      26.263   4.055  52.282  1.00  0.00     0.161 HD
BRANCH  14  16
HETATM   16  C9  UNL     1      27.029   2.115  51.744  1.00  0.00     0.152 C 
BRANCH  16  17
HETATM   17  C10 UNL     1      27.728   2.219  53.052  1.00  0.00     0.292 C 
BRANCH  17  18
HETATM   18  N5  UNL     1      27.767   0.997  53.831  1.00  0.00     0.094 N 
HETATM   19  C11 UNL     1      27.038  -0.027  53.138  1.00  0.00     0.298 C 
HETATM   20  C12 UNL     1      27.708  -1.331  52.952  1.00  0.00     0.198 C 
HETATM   21  O1  UNL     1      28.764  -1.618  53.774  1.00  0.00    -0.388 OA
HETATM   22  C13 UNL     1      29.679  -0.556  53.591  1.00  0.00     0.198 C 
HETATM   23  C14 UNL     1      29.036   0.611  54.317  1.00  0.00     0.298 C 
ENDBRANCH  17  18
ENDBRANCH  16  17
ENDBRANCH  14  16
ENDBRANCH   1  14
TORSDOF 8
ENDMDL
MODEL 7
REMARK VINA RESULT:      -5.7      3.278      5.456
REMARK  8 active torsions:
REMARK  status: ('A' for Active; 'I' for Inactive)
REMARK    1  A    between atoms: C5_7  and  C6_8 
REMARK    2  A    between atoms: C6_8  and  C7_9 
REMARK    3  A    between atoms: C7_9  and  N3_10 
REMARK    4  A    between atoms: N3_10  and  C8_11 
REMARK    5  A    between atoms: C8_11  and  N4_13 
REMARK    6  A    between atoms: N4_13  and  C9_14 
REMARK    7  A    between atoms: C9_14  and  C10_15 
REMARK    8  A    between atoms: C10_15  and  N5_16 
ROOT
HETATM    1  C8  UNL     1      23.733   5.326  51.797  1.00  0.00     0.171 C 
HETATM    2  S1  UNL     1      22.123   5.208  51.434  1.00  0.00    -0.041 SA
ENDROOT
BRANCH   1   3
HETATM    3  N3  UNL     1      24.353   6.618  51.684  1.00  0.00    -0.343 N 
HETATM    4  H8  UNL     1      24.244   7.246  52.482  1.00  0.00     0.167 HD
BRANCH   3   5
HETATM    5  C7  UNL     1      25.052   7.000  50.566  1.00  0.00     0.091 C 
BRANCH   5   6
HETATM    6  C6  UNL     1      25.988   7.069  49.682  1.00  0.00     0.032 C 
BRANCH   6   7
HETATM    7  C5  UNL     1      27.195   6.683  49.002  1.00  0.00     0.007 A 
HETATM    8  C2  UNL     1      27.487   5.354  48.847  1.00  0.00     0.043 A 
HETATM    9  C1  UNL     1      26.685   4.207  49.305  1.00  0.00     0.071 C 
HETATM   10  N1  UNL     1      28.653   5.112  48.198  1.00  0.00    -0.246 NA
HETATM   11  C3  UNL     1      29.414   6.130  47.767  1.00  0.00     0.232 A 
HETATM   12  N2  UNL     1      29.091   7.430  47.940  1.00  0.00    -0.253 NA
HETATM   13  C4  UNL     1      27.954   7.775  48.573  1.00  0.00     0.131 A 
ENDBRANCH   6   7
ENDBRANCH   5   6
ENDBRANCH   3   5
ENDBRANCH   1   3
BRANCH   1  14
HETATM   14  N4  UNL     1      24.450   4.183  52.205  1.00  0.00    -0.365 N 
HETATM   15  H9  UNL     1      25.209   4.406  52.925  1.00  0.00     0.161 HD
BRANCH  14  16
HETATM   16  C9  UNL     1      24.335   2.779  51.816  1.00  0.00     0.152 C 
BRANCH  16  17
HETATM   17  C10 UNL     1      25.645   2.098  51.986  1.00  0.00     0.292 C 
BRANCH  17  18
HETATM   18  N5  UNL     1      25.573   0.724  52.443  1.00  0.00     0.094 N 
HETATM   19  C11 UNL     1      26.740   0.017  51.995  1.00  0.00     0.298 C 
HETATM   20  C12 UNL     1      27.493  -0.760  53.001  1.00  0.00     0.198 C 
HETATM   21  O1  UNL     1      26.838  -1.093  54.156  1.00  0.00    -0.388 OA
HETATM   22  C13 UNL     1      26.395   0.133  54.701  1.00  0.00     0.198 C 
HETATM   23  C14 UNL     1      25.241   0.538  53.803  1.00  0.00     0.298 C 
ENDBRANCH  17  18
ENDBRANCH  16  17
ENDBRANCH  14  16
ENDBRANCH   1  14
TORSDOF 8
ENDMDL
MODEL 8
REMARK VINA RESULT:      -5.6      3.048      4.328
REMARK  8 active torsions:
REMARK  status: ('A' for Active; 'I' for Inactive)
REMARK    1  A    between atoms: C5_7  and  C6_8 
REMARK    2  A    between atoms: C6_8  and  C7_9 
REMARK    3  A    between atoms: C7_9  and  N3_10 
REMARK    4  A    between atoms: N3_10  and  C8_11 
REMARK    5  A    between atoms: C8_11  and  N4_13 
REMARK    6  A    between atoms: N4_13  and  C9_14 
REMARK    7  A    between atoms: C9_14  and  C10_15 
REMARK    8  A    between atoms: C10_15  and  N5_16 
ROOT
HETATM    1  C8  UNL     1      21.562   0.227  53.197  1.00  0.00     0.171 C 
HETATM    2  S1  UNL     1      21.575  -1.173  54.077  1.00  0.00    -0.041 SA
ENDROOT
BRANCH   1   3
HETATM    3  N3  UNL     1      22.731   1.062  53.248  1.00  0.00    -0.343 N 
HETATM    4  H8  UNL     1      22.584   2.033  53.528  1.00  0.00     0.167 HD
BRANCH   3   5
HETATM    5  C7  UNL     1      23.982   0.591  52.933  1.00  0.00     0.091 C 
BRANCH   5   6
HETATM    6  C6  UNL     1      25.147   0.055  53.061  1.00  0.00     0.032 C 
BRANCH   6   7
HETATM    7  C5  UNL     1      26.499  -0.072  53.535  1.00  0.00     0.007 A 
HETATM    8  C2  UNL     1      27.254  -1.145  53.139  1.00  0.00     0.043 A 
HETATM    9  C1  UNL     1      26.846  -2.240  52.244  1.00  0.00     0.071 C 
HETATM   10  N1  UNL     1      28.509  -1.161  53.654  1.00  0.00    -0.246 NA
HETATM   11  C3  UNL     1      28.919  -0.183  54.476  1.00  0.00     0.232 A 
HETATM   12  N2  UNL     1      28.142   0.860  54.843  1.00  0.00    -0.253 NA
HETATM   13  C4  UNL     1      26.880   0.968  54.386  1.00  0.00     0.131 A 
ENDBRANCH   6   7
ENDBRANCH   5   6
ENDBRANCH   3   5
ENDBRANCH   1   3
BRANCH   1  14
HETATM   14  N4  UNL     1      20.430   0.567  52.429  1.00  0.00    -0.365 N 
HETATM   15  H9  UNL     1      19.930  -0.289  52.029  1.00  0.00     0.161 HD
BRANCH  14  16
HETATM   16  C9  UNL     1      19.841   1.862  52.094  1.00  0.00     0.152 C 
BRANCH  16  17
HETATM   17  C10 UNL     1      20.208   2.240  50.704  1.00  0.00     0.292 C 
BRANCH  17  18
HETATM   18  N5  UNL     1      20.960   3.472  50.577  1.00  0.00     0.094 N 
HETATM   19  C11 UNL     1      21.126   4.059  51.876  1.00  0.00     0.298 C 
HETATM   20  C12 UNL     1      22.492   4.462  52.272  1.00  0.00     0.198 C 
HETATM   21  O1  UNL     1      23.410   4.636  51.271  1.00  0.00    -0.388 OA
HETATM   22  C13 UNL     1      23.434   3.410  50.570  1.00  0.00     0.198 C 
HETATM   23  C14 UNL     1      22.132   3.406  49.791  1.00  0.00     0.298 C 
ENDBRANCH  17  18
ENDBRANCH  16  17
ENDBRANCH  14  16
ENDBRANCH   1  14
TORSDOF 8
ENDMDL
MODEL 9
REMARK VINA RESULT:      -5.6      4.645      6.754
REMARK  8 active torsions:
REMARK  status: ('A' for Active; 'I' for Inactive)
REMARK    1  A    between atoms: C5_7  and  C6_8 
REMARK    2  A    between atoms: C6_8  and  C7_9 
REMARK    3  A    between atoms: C7_9  and  N3_10 
REMARK    4  A    between atoms: N3_10  and  C8_11 
REMARK    5  A    between atoms: C8_11  and  N4_13 
REMARK    6  A    between atoms: N4_13  and  C9_14 
REMARK    7  A    between atoms: C9_14  and  C10_15 
REMARK    8  A    between atoms: C10_15  and  N5_16 
ROOT
HETATM    1  C8  UNL     1      26.204   4.759  49.651  1.00  0.00     0.171 C 
HETATM    2  S1  UNL     1      25.255   5.947  49.001  1.00  0.00    -0.041 SA
ENDROOT
BRANCH   1   3
HETATM    3  N3  UNL     1      27.422   4.424  48.967  1.00  0.00    -0.343 N 
HETATM    4  H8  UNL     1      27.685   3.437  48.963  1.00  0.00     0.167 HD
BRANCH   3   5
HETATM    5  C7  UNL     1      28.202   5.371  48.351  1.00  0.00     0.091 C 
BRANCH   5   6
HETATM    6  C6  UNL     1      28.974   6.390  48.185  1.00  0.00     0.032 C 
BRANCH   6   7
HETATM    7  C5  UNL     1      29.673   7.592  48.552  1.00  0.00     0.007 A 
HETATM    8  C2  UNL     1      30.941   7.506  49.065  1.00  0.00     0.043 A 
HETATM    9  C1  UNL     1      31.725   6.282  49.299  1.00  0.00     0.071 C 
HETATM   10  N1  UNL     1      31.496   8.703  49.379  1.00  0.00    -0.246 NA
HETATM   11  C3  UNL     1      30.814   9.840  49.183  1.00  0.00     0.232 A 
HETATM   12  N2  UNL     1      29.563   9.884  48.674  1.00  0.00    -0.253 NA
HETATM   13  C4  UNL     1      28.924   8.751  48.330  1.00  0.00     0.131 A 
ENDBRANCH   6   7
ENDBRANCH   5   6
ENDBRANCH   3   5
ENDBRANCH   1   3
BRANCH   1  14
HETATM   14  N4  UNL     1      25.810   4.114  50.842  1.00  0.00    -0.365 N 
HETATM   15  H9  UNL     1      25.541   4.802  51.615  1.00  0.00     0.161 HD
BRANCH  14  16
HETATM   16  C9  UNL     1      25.711   2.698  51.188  1.00  0.00     0.152 C 
BRANCH  16  17
HETATM   17  C10 UNL     1      26.969   2.248  51.841  1.00  0.00     0.292 C 
BRANCH  17  18
HETATM   18  N5  UNL     1      26.801   1.274  52.901  1.00  0.00     0.094 N 
HETATM   19  C11 UNL     1      26.298   0.052  52.342  1.00  0.00     0.298 C 
HETATM   20  C12 UNL     1      27.003  -1.199  52.695  1.00  0.00     0.198 C 
HETATM   21  O1  UNL     1      27.795  -1.179  53.811  1.00  0.00    -0.388 OA
HETATM   22  C13 UNL     1      28.716  -0.130  53.597  1.00  0.00     0.198 C 
HETATM   23  C14 UNL     1      27.890   1.129  53.788  1.00  0.00     0.298 C 
ENDBRANCH  17  18
ENDBRANCH  16  17
ENDBRANCH  14  16
ENDBRANCH   1  14
TORSDOF 8
ENDMDL
