MODEL 1
REMARK VINA RESULT:      -7.0      0.000      0.000
REMARK  2 active torsions:
REMARK  status: ('A' for Active; 'I' for Inactive)
REMARK    1  A    between atoms: C2_2  and  O1_3 
REMARK    2  A    between atoms: O1_3  and  C3_4 
ROOT
HETATM    1  C3  UNL     1      25.694   2.471  51.181  1.00  0.00     0.228 C 
HETATM    2  C4  UNL     1      26.694   2.114  52.254  1.00  0.00     0.052 C 
HETATM    3  N1  UNL     1      27.909   2.365  52.378  1.00  0.00    -0.248 NA
HETATM    4  C5  UNL     1      28.633   1.921  53.526  1.00  0.00     0.233 C 
HETATM    5  N2  UNL     1      28.116   1.237  54.517  1.00  0.00    -0.244 NA
HETATM    6  C6  UNL     1      26.792   0.720  54.420  1.00  0.00     0.063 C 
HETATM    7  C7  UNL     1      26.111  -0.174  55.096  1.00  0.00     0.162 C 
HETATM    8  O2  UNL     1      24.854  -0.726  55.076  1.00  0.00    -0.361 OA
HETATM    9  C8  UNL     1      23.971  -0.554  54.105  1.00  0.00     0.176 C 
HETATM   10  C9  UNL     1      22.771  -0.570  53.382  1.00  0.00     0.057 C 
HETATM   11  C10 UNL     1      23.104   0.143  52.007  1.00  0.00     0.278 C 
HETATM   12  N3  UNL     1      23.578   1.431  52.274  1.00  0.00     0.122 N 
HETATM   13  C11 UNL     1      22.367   2.206  52.609  1.00  0.00     0.302 C 
HETATM   14  C12 UNL     1      22.312   3.117  51.372  1.00  0.00     0.201 C 
HETATM   15  O3  UNL     1      23.402   2.735  50.587  1.00  0.00    -0.353 OA
HETATM   16  C13 UNL     1      24.272   2.353  51.604  1.00  0.00     0.393 C 
HETATM   17  C14 UNL     1      26.063   1.308  53.346  1.00  0.00     0.118 C 
ENDROOT
BRANCH   1  18
HETATM   18  O1  UNL     1      25.913   3.696  50.658  1.00  0.00    -0.376 OA
BRANCH  18  19
HETATM   19  C2  UNL     1      26.442   3.620  49.384  1.00  0.00     0.164 C 
HETATM   20  C1  UNL     1      27.191   4.843  48.928  1.00  0.00     0.033 C 
ENDBRANCH  18  19
ENDBRANCH   1  18
TORSDOF 2
ENDMDL
MODEL 2
REMARK VINA RESULT:      -6.9      2.369      4.261
REMARK  2 active torsions:
REMARK  status: ('A' for Active; 'I' for Inactive)
REMARK    1  A    between atoms: C2_2  and  O1_3 
REMARK    2  A    between atoms: O1_3  and  C3_4 
ROOT
HETATM    1  C3  UNL     1      24.859   0.626  52.590  1.00  0.00     0.228 C 
HETATM    2  C4  UNL     1      24.132  -0.148  53.663  1.00  0.00     0.052 C 
HETATM    3  N1  UNL     1      24.542  -0.843  54.614  1.00  0.00    -0.248 NA
HETATM    4  C5  UNL     1      23.625  -1.461  55.517  1.00  0.00     0.233 C 
HETATM    5  N2  UNL     1      22.321  -1.363  55.439  1.00  0.00    -0.244 NA
HETATM    6  C6  UNL     1      21.711  -0.761  54.301  1.00  0.00     0.063 C 
HETATM    7  C7  UNL     1      20.488  -0.739  53.827  1.00  0.00     0.162 C 
HETATM    8  O2  UNL     1      19.819  -0.195  52.758  1.00  0.00    -0.361 OA
HETATM    9  C8  UNL     1      20.403   0.389  51.723  1.00  0.00     0.176 C 
HETATM   10  C9  UNL     1      20.592   1.123  50.545  1.00  0.00     0.057 C 
HETATM   11  C10 UNL     1      22.156   1.111  50.295  1.00  0.00     0.278 C 
HETATM   12  N3  UNL     1      22.793   1.668  51.409  1.00  0.00     0.122 N 
HETATM   13  C11 UNL     1      22.582   3.122  51.263  1.00  0.00     0.302 C 
HETATM   14  C12 UNL     1      24.028   3.547  50.958  1.00  0.00     0.201 C 
HETATM   15  O3  UNL     1      24.767   2.363  50.962  1.00  0.00    -0.353 OA
HETATM   16  C13 UNL     1      24.030   1.657  51.909  1.00  0.00     0.393 C 
HETATM   17  C14 UNL     1      22.647  -0.031  53.513  1.00  0.00     0.118 C 
ENDROOT
BRANCH   1  18
HETATM   18  O1  UNL     1      26.001   1.187  53.043  1.00  0.00    -0.376 OA
BRANCH  18  19
HETATM   19  C2  UNL     1      27.116   0.527  52.567  1.00  0.00     0.164 C 
HETATM   20  C1  UNL     1      28.007  -0.070  53.624  1.00  0.00     0.033 C 
ENDBRANCH  18  19
ENDBRANCH   1  18
TORSDOF 2
ENDMDL
MODEL 3
REMARK VINA RESULT:      -6.7      2.042      2.779
REMARK  2 active torsions:
REMARK  status: ('A' for Active; 'I' for Inactive)
REMARK    1  A    between atoms: C2_2  and  O1_3 
REMARK    2  A    between atoms: O1_3  and  C3_4 
ROOT
HETATM    1  C3  UNL     1      23.772   1.672  51.774  1.00  0.00     0.228 C 
HETATM    2  C4  UNL     1      24.417   0.784  52.811  1.00  0.00     0.052 C 
HETATM    3  N1  UNL     1      25.610   0.534  53.069  1.00  0.00    -0.248 NA
HETATM    4  C5  UNL     1      25.959  -0.343  54.140  1.00  0.00     0.233 C 
HETATM    5  N2  UNL     1      25.097  -0.944  54.923  1.00  0.00    -0.244 NA
HETATM    6  C6  UNL     1      23.703  -0.900  54.627  1.00  0.00     0.063 C 
HETATM    7  C7  UNL     1      22.661  -1.576  55.047  1.00  0.00     0.162 C 
HETATM    8  O2  UNL     1      21.306  -1.602  54.823  1.00  0.00    -0.361 OA
HETATM    9  C8  UNL     1      20.690  -0.944  53.854  1.00  0.00     0.176 C 
HETATM   10  C9  UNL     1      19.679  -0.381  53.065  1.00  0.00     0.057 C 
HETATM   11  C10 UNL     1      20.436   0.383  51.902  1.00  0.00     0.278 C 
HETATM   12  N3  UNL     1      21.292   1.330  52.472  1.00  0.00     0.122 N 
HETATM   13  C11 UNL     1      20.400   2.432  52.882  1.00  0.00     0.302 C 
HETATM   14  C12 UNL     1      20.849   3.498  51.869  1.00  0.00     0.201 C 
HETATM   15  O3  UNL     1      21.832   2.878  51.096  1.00  0.00    -0.353 OA
HETATM   16  C13 UNL     1      22.356   2.026  52.065  1.00  0.00     0.393 C 
HETATM   17  C14 UNL     1      23.392   0.097  53.658  1.00  0.00     0.118 C 
ENDROOT
BRANCH   1  18
HETATM   18  O1  UNL     1      24.483   2.796  51.544  1.00  0.00    -0.376 OA
BRANCH  18  19
HETATM   19  C2  UNL     1      25.001   2.819  50.263  1.00  0.00     0.164 C 
HETATM   20  C1  UNL     1      26.468   3.139  50.171  1.00  0.00     0.033 C 
ENDBRANCH  18  19
ENDBRANCH   1  18
TORSDOF 2
ENDMDL
MODEL 4
REMARK VINA RESULT:      -6.6      1.569      4.249
REMARK  2 active torsions:
REMARK  status: ('A' for Active; 'I' for Inactive)
REMARK    1  A    between atoms: C2_2  and  O1_3 
REMARK    2  A    between atoms: O1_3  and  C3_4 
ROOT
HETATM    1  C3  UNL     1      23.248   2.519  52.224  1.00  0.00     0.228 C 
HETATM    2  C4  UNL     1      22.462   1.394  52.854  1.00  0.00     0.052 C 
HETATM    3  N1  UNL     1      21.238   1.172  52.929  1.00  0.00    -0.248 NA
HETATM    4  C5  UNL     1      20.747  -0.004  53.574  1.00  0.00     0.233 C 
HETATM    5  N2  UNL     1      21.500  -0.923  54.125  1.00  0.00    -0.244 NA
HETATM    6  C6  UNL     1      22.901  -0.709  54.279  1.00  0.00     0.063 C 
HETATM    7  C7  UNL     1      23.840  -1.294  54.983  1.00  0.00     0.162 C 
HETATM    8  O2  UNL     1      25.191  -1.159  55.189  1.00  0.00    -0.361 OA
HETATM    9  C8  UNL     1      25.919  -0.135  54.770  1.00  0.00     0.176 C 
HETATM   10  C9  UNL     1      27.020   0.671  54.457  1.00  0.00     0.057 C 
HETATM   11  C10 UNL     1      26.405   1.985  53.821  1.00  0.00     0.278 C 
HETATM   12  N3  UNL     1      25.640   1.628  52.706  1.00  0.00     0.122 N 
HETATM   13  C11 UNL     1      26.634   1.347  51.653  1.00  0.00     0.302 C 
HETATM   14  C12 UNL     1      26.354   2.542  50.728  1.00  0.00     0.201 C 
HETATM   15  O3  UNL     1      25.339   3.264  51.360  1.00  0.00    -0.353 OA
HETATM   16  C13 UNL     1      24.681   2.204  51.979  1.00  0.00     0.393 C 
HETATM   17  C14 UNL     1      23.365   0.388  53.496  1.00  0.00     0.118 C 
ENDROOT
BRANCH   1  18
HETATM   18  O1  UNL     1      22.679   2.969  51.085  1.00  0.00    -0.376 OA
BRANCH  18  19
HETATM   19  C2  UNL     1      22.688   2.005  50.095  1.00  0.00     0.164 C 
HETATM   20  C1  UNL     1      22.778   2.533  48.689  1.00  0.00     0.033 C 
ENDBRANCH  18  19
ENDBRANCH   1  18
TORSDOF 2
ENDMDL
MODEL 5
REMARK VINA RESULT:      -6.6      1.951      4.693
REMARK  2 active torsions:
REMARK  status: ('A' for Active; 'I' for Inactive)
REMARK    1  A    between atoms: C2_2  and  O1_3 
REMARK    2  A    between atoms: O1_3  and  C3_4 
ROOT
HETATM    1  C3  UNL     1      22.779   0.308  52.727  1.00  0.00     0.228 C 
HETATM    2  C4  UNL     1      24.266   0.192  52.962  1.00  0.00     0.052 C 
HETATM    3  N1  UNL     1      24.934  -0.513  53.743  1.00  0.00    -0.248 NA
HETATM    4  C5  UNL     1      26.360  -0.447  53.749  1.00  0.00     0.233 C 
HETATM    5  N2  UNL     1      27.075   0.326  52.969  1.00  0.00    -0.244 NA
HETATM    6  C6  UNL     1      26.443   1.316  52.162  1.00  0.00     0.063 C 
HETATM    7  C7  UNL     1      26.874   2.363  51.501  1.00  0.00     0.162 C 
HETATM    8  O2  UNL     1      26.348   3.356  50.710  1.00  0.00    -0.361 OA
HETATM    9  C8  UNL     1      25.054   3.591  50.557  1.00  0.00     0.176 C 
HETATM   10  C9  UNL     1      23.847   4.107  50.070  1.00  0.00     0.057 C 
HETATM   11  C10 UNL     1      22.717   3.400  50.926  1.00  0.00     0.278 C 
HETATM   12  N3  UNL     1      22.836   2.016  50.770  1.00  0.00     0.122 N 
HETATM   13  C11 UNL     1      22.267   1.747  49.434  1.00  0.00     0.302 C 
HETATM   14  C12 UNL     1      20.993   0.999  49.859  1.00  0.00     0.201 C 
HETATM   15  O3  UNL     1      21.029   0.977  51.255  1.00  0.00    -0.353 OA
HETATM   16  C13 UNL     1      22.410   0.937  51.430  1.00  0.00     0.393 C 
HETATM   17  C14 UNL     1      25.035   1.115  52.070  1.00  0.00     0.118 C 
ENDROOT
BRANCH   1  18
HETATM   18  O1  UNL     1      22.142  -0.876  52.855  1.00  0.00    -0.376 OA
BRANCH  18  19
HETATM   19  C2  UNL     1      21.609  -1.034  54.119  1.00  0.00     0.164 C 
HETATM   20  C1  UNL     1      20.964   0.196  54.700  1.00  0.00     0.033 C 
ENDBRANCH  18  19
ENDBRANCH   1  18
TORSDOF 2
ENDMDL
MODEL 6
REMARK VINA RESULT:      -6.4      1.786      2.578
REMARK  2 active torsions:
REMARK  status: ('A' for Active; 'I' for Inactive)
REMARK    1  A    between atoms: C2_2  and  O1_3 
REMARK    2  A    between atoms: O1_3  and  C3_4 
ROOT
HETATM    1  C3  UNL     1      23.454   1.374  51.460  1.00  0.00     0.228 C 
HETATM    2  C4  UNL     1      24.851   1.539  52.011  1.00  0.00     0.052 C 
HETATM    3  N1  UNL     1      25.866   2.099  51.554  1.00  0.00    -0.248 NA
HETATM    4  C5  UNL     1      27.082   2.132  52.304  1.00  0.00     0.233 C 
HETATM    5  N2  UNL     1      27.241   1.602  53.491  1.00  0.00    -0.244 NA
HETATM    6  C6  UNL     1      26.227   0.772  54.051  1.00  0.00     0.063 C 
HETATM    7  C7  UNL     1      26.191  -0.071  55.055  1.00  0.00     0.162 C 
HETATM    8  O2  UNL     1      25.275  -0.899  55.657  1.00  0.00    -0.361 OA
HETATM    9  C8  UNL     1      24.079  -1.184  55.165  1.00  0.00     0.176 C 
HETATM   10  C9  UNL     1      22.768  -1.662  55.057  1.00  0.00     0.057 C 
HETATM   11  C10 UNL     1      22.290  -1.242  53.606  1.00  0.00     0.278 C 
HETATM   12  N3  UNL     1      22.389   0.148  53.488  1.00  0.00     0.122 N 
HETATM   13  C11 UNL     1      21.225   0.664  54.235  1.00  0.00     0.302 C 
HETATM   14  C12 UNL     1      20.403   1.210  53.057  1.00  0.00     0.201 C 
HETATM   15  O3  UNL     1      21.160   0.926  51.919  1.00  0.00    -0.353 OA
HETATM   16  C13 UNL     1      22.430   1.022  52.480  1.00  0.00     0.393 C 
HETATM   17  C14 UNL     1      24.991   0.890  53.352  1.00  0.00     0.118 C 
ENDROOT
BRANCH   1  18
HETATM   18  O1  UNL     1      23.046   2.454  50.760  1.00  0.00    -0.376 OA
BRANCH  18  19
HETATM   19  C2  UNL     1      22.954   3.576  51.560  1.00  0.00     0.164 C 
HETATM   20  C1  UNL     1      21.755   4.449  51.304  1.00  0.00     0.033 C 
ENDBRANCH  18  19
ENDBRANCH   1  18
TORSDOF 2
ENDMDL
MODEL 7
REMARK VINA RESULT:      -6.2      1.771      6.066
REMARK  2 active torsions:
REMARK  status: ('A' for Active; 'I' for Inactive)
REMARK    1  A    between atoms: C2_2  and  O1_3 
REMARK    2  A    between atoms: O1_3  and  C3_4 
ROOT
HETATM    1  C3  UNL     1      23.281   0.620  52.890  1.00  0.00     0.228 C 
HETATM    2  C4  UNL     1      22.341   1.754  52.556  1.00  0.00     0.052 C 
HETATM    3  N1  UNL     1      21.102   1.862  52.640  1.00  0.00    -0.248 NA
HETATM    4  C5  UNL     1      20.449   3.078  52.271  1.00  0.00     0.233 C 
HETATM    5  N2  UNL     1      21.060   4.149  51.829  1.00  0.00    -0.244 NA
HETATM    6  C6  UNL     1      22.446   4.105  51.505  1.00  0.00     0.063 C 
HETATM    7  C7  UNL     1      23.251   4.894  50.834  1.00  0.00     0.162 C 
HETATM    8  O2  UNL     1      24.577   4.932  50.478  1.00  0.00    -0.361 OA
HETATM    9  C8  UNL     1      25.427   3.929  50.631  1.00  0.00     0.176 C 
HETATM   10  C9  UNL     1      26.618   3.194  50.684  1.00  0.00     0.057 C 
HETATM   11  C10 UNL     1      26.186   1.735  51.124  1.00  0.00     0.278 C 
HETATM   12  N3  UNL     1      25.524   1.815  52.353  1.00  0.00     0.122 N 
HETATM   13  C11 UNL     1      26.604   2.006  53.341  1.00  0.00     0.302 C 
HETATM   14  C12 UNL     1      26.526   0.646  54.053  1.00  0.00     0.201 C 
HETATM   15  O3  UNL     1      25.509  -0.052  53.399  1.00  0.00    -0.353 OA
HETATM   16  C13 UNL     1      24.702   1.028  53.051  1.00  0.00     0.393 C 
HETATM   17  C14 UNL     1      23.082   2.941  52.026  1.00  0.00     0.118 C 
ENDROOT
BRANCH   1  18
HETATM   18  O1  UNL     1      22.882  -0.076  53.977  1.00  0.00    -0.376 OA
BRANCH  18  19
HETATM   19  C2  UNL     1      22.272  -1.264  53.626  1.00  0.00     0.164 C 
HETATM   20  C1  UNL     1      21.117  -1.674  54.500  1.00  0.00     0.033 C 
ENDBRANCH  18  19
ENDBRANCH   1  18
TORSDOF 2
ENDMDL
MODEL 8
REMARK VINA RESULT:      -6.1      2.658      5.158
REMARK  2 active torsions:
REMARK  status: ('A' for Active; 'I' for Inactive)
REMARK    1  A    between atoms: C2_2  and  O1_3 
REMARK    2  A    between atoms: O1_3  and  C3_4 
ROOT
HETATM    1  C3  UNL     1      20.920   1.969  52.578  1.00  0.00     0.228 C 
HETATM    2  C4  UNL     1      21.539   0.856  53.390  1.00  0.00     0.052 C 
HETATM    3  N1  UNL     1      21.091   0.151  54.315  1.00  0.00    -0.248 NA
HETATM    4  C5  UNL     1      21.894  -0.871  54.910  1.00  0.00     0.233 C 
HETATM    5  N2  UNL     1      23.123  -1.154  54.556  1.00  0.00    -0.244 NA
HETATM    6  C6  UNL     1      23.823  -0.309  53.647  1.00  0.00     0.063 C 
HETATM    7  C7  UNL     1      25.084  -0.182  53.309  1.00  0.00     0.162 C 
HETATM    8  O2  UNL     1      25.837   0.589  52.457  1.00  0.00    -0.361 OA
HETATM    9  C8  UNL     1      25.389   1.652  51.809  1.00  0.00     0.176 C 
HETATM   10  C9  UNL     1      25.312   2.728  50.915  1.00  0.00     0.057 C 
HETATM   11  C10 UNL     1      23.893   3.382  51.173  1.00  0.00     0.278 C 
HETATM   12  N3  UNL     1      22.908   2.411  50.965  1.00  0.00     0.122 N 
HETATM   13  C11 UNL     1      22.808   2.299  49.496  1.00  0.00     0.302 C 
HETATM   14  C12 UNL     1      21.413   2.914  49.299  1.00  0.00     0.201 C 
HETATM   15  O3  UNL     1      20.984   3.265  50.581  1.00  0.00    -0.353 OA
HETATM   16  C13 UNL     1      21.625   2.261  51.302  1.00  0.00     0.393 C 
HETATM   17  C14 UNL     1      22.951   0.592  52.971  1.00  0.00     0.118 C 
ENDROOT
BRANCH   1  18
HETATM   18  O1  UNL     1      19.608   1.762  52.337  1.00  0.00    -0.376 OA
BRANCH  18  19
HETATM   19  C2  UNL     1      19.406   0.666  51.521  1.00  0.00     0.164 C 
HETATM   20  C1  UNL     1      18.293  -0.253  51.946  1.00  0.00     0.033 C 
ENDBRANCH  18  19
ENDBRANCH   1  18
TORSDOF 2
ENDMDL
MODEL 9
REMARK VINA RESULT:      -6.0      7.507     10.821
REMARK  2 active torsions:
REMARK  status: ('A' for Active; 'I' for Inactive)
REMARK    1  A    between atoms: C2_2  and  O1_3 
REMARK    2  A    between atoms: O1_3  and  C3_4 
ROOT
HETATM    1  C3  UNL     1      31.981   5.240  47.602  1.00  0.00     0.228 C 
HETATM    2  C4  UNL     1      30.569   5.680  47.903  1.00  0.00     0.052 C 
HETATM    3  N1  UNL     1      29.515   5.037  48.078  1.00  0.00    -0.248 NA
HETATM    4  C5  UNL     1      28.291   5.709  48.379  1.00  0.00     0.233 C 
HETATM    5  N2  UNL     1      28.161   7.007  48.496  1.00  0.00    -0.244 NA
HETATM    6  C6  UNL     1      29.235   7.873  48.138  1.00  0.00     0.063 C 
HETATM    7  C7  UNL     1      29.330   9.161  47.910  1.00  0.00     0.162 C 
HETATM    8  O2  UNL     1      30.305  10.065  47.568  1.00  0.00    -0.361 OA
HETATM    9  C8  UNL     1      31.528   9.743  47.175  1.00  0.00     0.176 C 
HETATM   10  C9  UNL     1      32.877   9.845  46.815  1.00  0.00     0.057 C 
HETATM   11  C10 UNL     1      33.337   8.363  46.499  1.00  0.00     0.278 C 
HETATM   12  N3  UNL     1      33.120   7.575  47.634  1.00  0.00     0.122 N 
HETATM   13  C11 UNL     1      34.225   7.933  48.546  1.00  0.00     0.302 C 
HETATM   14  C12 UNL     1      35.013   6.614  48.501  1.00  0.00     0.201 C 
HETATM   15  O3  UNL     1      34.299   5.789  47.629  1.00  0.00    -0.353 OA
HETATM   16  C13 UNL     1      33.018   6.269  47.887  1.00  0.00     0.393 C 
HETATM   17  C14 UNL     1      30.466   7.170  47.996  1.00  0.00     0.118 C 
ENDROOT
BRANCH   1  18
HETATM   18  O1  UNL     1      32.305   4.085  48.222  1.00  0.00    -0.376 OA
BRANCH  18  19
HETATM   19  C2  UNL     1      32.520   3.064  47.317  1.00  0.00     0.164 C 
HETATM   20  C1  UNL     1      33.121   1.811  47.896  1.00  0.00     0.033 C 
ENDBRANCH  18  19
ENDBRANCH   1  18
TORSDOF 2
ENDMDL
