MODEL 1
REMARK VINA RESULT:      -9.8      0.000      0.000
REMARK  5 active torsions:
REMARK  status: ('A' for Active; 'I' for Inactive)
REMARK    1  A    between atoms: C4_5  and  C5_6 
REMARK    2  A    between atoms: C5_6  and  C6_7 
REMARK    3  A    between atoms: C6_7  and  N1_8 
REMARK    4  A    between atoms: N1_8  and  C7_9 
REMARK    5  A    between atoms: N4_17  and  C13_18 
ROOT
HETATM    1  C7  UNL     1      23.809   2.149  50.893  1.00  0.00     0.031 A 
HETATM    2  C8  UNL     1      22.639   1.719  51.398  1.00  0.00     0.044 A 
HETATM    3  C9  UNL     1      22.789   0.885  52.584  1.00  0.00     0.011 A 
HETATM    4  C10 UNL     1      21.676   0.428  53.132  1.00  0.00     0.131 C 
HETATM    5  N2  UNL     1      21.529  -0.405  54.289  1.00  0.00    -0.253 NA
HETATM    6  C11 UNL     1      22.301  -1.056  55.092  1.00  0.00     0.233 C 
HETATM    7  N3  UNL     1      23.694  -1.290  55.254  1.00  0.00    -0.237 NA
HETATM    8  C12 UNL     1      24.782  -0.819  54.746  1.00  0.00     0.216 C 
HETATM    9  N4  UNL     1      25.060   0.191  53.754  1.00  0.00    -0.305 N 
HETATM   10  C19 UNL     1      24.233   0.836  52.776  1.00  0.00     0.054 A 
HETATM   11  C20 UNL     1      24.796   1.552  51.819  1.00  0.00     0.060 A 
ENDROOT
BRANCH   1  12
HETATM   12  N1  UNL     1      24.082   2.971  49.762  1.00  0.00    -0.390 N 
HETATM   13  H7  UNL     1      23.555   2.736  48.897  1.00  0.00     0.159 HD
BRANCH  12  14
HETATM   14  C6  UNL     1      25.053   4.001  50.011  1.00  0.00     0.124 C 
BRANCH  14  15
HETATM   15  C5  UNL     1      26.408   3.656  49.466  1.00  0.00     0.058 C 
BRANCH  15  16
HETATM   16  C4  UNL     1      27.021   4.865  48.881  1.00  0.00    -0.057 A 
HETATM   17  C3  UNL     1      28.313   5.111  48.471  1.00  0.00     0.009 A 
HETATM   18  C2  UNL     1      28.660   6.331  47.939  1.00  0.00     0.024 A 
HETATM   19  C1  UNL     1      27.766   7.369  47.780  1.00  0.00     0.034 A 
HETATM   20 CL1  UNL     1      28.217   8.904  47.106  1.00  0.00    -0.084 Cl
HETATM   21  C22 UNL     1      26.469   7.141  48.184  1.00  0.00     0.024 A 
HETATM   22  C21 UNL     1      26.117   5.921  48.717  1.00  0.00     0.009 A 
ENDBRANCH  15  16
ENDBRANCH  14  15
ENDBRANCH  12  14
ENDBRANCH   1  12
BRANCH   9  23
HETATM   23  C13 UNL     1      26.398   0.662  53.704  1.00  0.00     0.042 A 
HETATM   24  C14 UNL     1      26.862   1.961  53.752  1.00  0.00     0.030 A 
HETATM   25  C15 UNL     1      28.203   2.235  53.692  1.00  0.00     0.004 A 
HETATM   26  C16 UNL     1      29.094   1.174  53.583  1.00  0.00     0.024 A 
HETATM   27  C17 UNL     1      28.666  -0.131  53.533  1.00  0.00     0.036 A 
HETATM   28 CL2  UNL     1      29.834  -1.444  53.394  1.00  0.00    -0.084 Cl
HETATM   29  C18 UNL     1      27.296  -0.406  53.594  1.00  0.00     0.053 A 
ENDBRANCH   9  23
TORSDOF 5
ENDMDL
MODEL 2
REMARK VINA RESULT:      -9.4      3.662      7.655
REMARK  5 active torsions:
REMARK  status: ('A' for Active; 'I' for Inactive)
REMARK    1  A    between atoms: C4_5  and  C5_6 
REMARK    2  A    between atoms: C5_6  and  C6_7 
REMARK    3  A    between atoms: C6_7  and  N1_8 
REMARK    4  A    between atoms: N1_8  and  C7_9 
REMARK    5  A    between atoms: N4_17  and  C13_18 
ROOT
HETATM    1  C7  UNL     1      23.892  -0.642  53.560  1.00  0.00     0.031 A 
HETATM    2  C8  UNL     1      24.940  -0.771  54.393  1.00  0.00     0.044 A 
HETATM    3  C9  UNL     1      26.023   0.164  54.114  1.00  0.00     0.011 A 
HETATM    4  C10 UNL     1      27.087   0.090  54.897  1.00  0.00     0.131 C 
HETATM    5  N2  UNL     1      28.283   0.878  54.850  1.00  0.00    -0.253 NA
HETATM    6  C11 UNL     1      28.800   1.771  54.076  1.00  0.00     0.233 C 
HETATM    7  N3  UNL     1      28.461   2.442  52.870  1.00  0.00    -0.237 NA
HETATM    8  C12 UNL     1      27.413   2.544  52.125  1.00  0.00     0.216 C 
HETATM    9  N4  UNL     1      26.081   1.994  52.203  1.00  0.00    -0.305 N 
HETATM   10  C19 UNL     1      25.523   0.922  52.975  1.00  0.00     0.054 A 
HETATM   11  C20 UNL     1      24.322   0.460  52.673  1.00  0.00     0.060 A 
ENDROOT
BRANCH   1  12
HETATM   12  N1  UNL     1      22.660  -1.355  53.507  1.00  0.00    -0.390 N 
HETATM   13  H7  UNL     1      22.521  -1.949  52.664  1.00  0.00     0.159 HD
BRANCH  12  14
HETATM   14  C6  UNL     1      21.807  -1.130  54.641  1.00  0.00     0.124 C 
BRANCH  14  15
HETATM   15  C5  UNL     1      21.128   0.206  54.593  1.00  0.00     0.058 C 
BRANCH  15  16
HETATM   16  C4  UNL     1      20.288   0.284  53.381  1.00  0.00    -0.057 A 
HETATM   17  C3  UNL     1      20.386   1.090  52.268  1.00  0.00     0.009 A 
HETATM   18  C2  UNL     1      19.479   0.981  51.239  1.00  0.00     0.024 A 
HETATM   19  C1  UNL     1      18.435   0.080  51.244  1.00  0.00     0.034 A 
HETATM   20 CL1  UNL     1      17.298  -0.050  49.939  1.00  0.00    -0.084 Cl
HETATM   21  C22 UNL     1      18.322  -0.736  52.349  1.00  0.00     0.024 A 
HETATM   22  C21 UNL     1      19.227  -0.628  53.382  1.00  0.00     0.009 A 
ENDBRANCH  15  16
ENDBRANCH  14  15
ENDBRANCH  12  14
ENDBRANCH   1  12
BRANCH   9  23
HETATM   23  C13 UNL     1      25.107   2.606  51.371  1.00  0.00     0.042 A 
HETATM   24  C14 UNL     1      25.056   2.665  49.993  1.00  0.00     0.030 A 
HETATM   25  C15 UNL     1      24.029   3.304  49.350  1.00  0.00     0.004 A 
HETATM   26  C16 UNL     1      23.031   3.895  50.115  1.00  0.00     0.024 A 
HETATM   27  C17 UNL     1      23.049   3.855  51.489  1.00  0.00     0.036 A 
HETATM   28 CL2  UNL     1      21.762   4.619  52.418  1.00  0.00    -0.084 Cl
HETATM   29  C18 UNL     1      24.101   3.201  52.141  1.00  0.00     0.053 A 
ENDBRANCH   9  23
TORSDOF 5
ENDMDL
MODEL 3
REMARK VINA RESULT:      -9.3      3.784      7.861
REMARK  5 active torsions:
REMARK  status: ('A' for Active; 'I' for Inactive)
REMARK    1  A    between atoms: C4_5  and  C5_6 
REMARK    2  A    between atoms: C5_6  and  C6_7 
REMARK    3  A    between atoms: C6_7  and  N1_8 
REMARK    4  A    between atoms: N1_8  and  C7_9 
REMARK    5  A    between atoms: N4_17  and  C13_18 
ROOT
HETATM    1  C7  UNL     1      23.864  -0.728  54.585  1.00  0.00     0.031 A 
HETATM    2  C8  UNL     1      25.125  -0.792  55.048  1.00  0.00     0.044 A 
HETATM    3  C9  UNL     1      26.030   0.151  54.404  1.00  0.00     0.011 A 
HETATM    4  C10 UNL     1      27.288   0.141  54.813  1.00  0.00     0.131 C 
HETATM    5  N2  UNL     1      28.379   0.951  54.358  1.00  0.00    -0.253 NA
HETATM    6  C11 UNL     1      28.593   1.815  53.424  1.00  0.00     0.233 C 
HETATM    7  N3  UNL     1      27.867   2.417  52.361  1.00  0.00    -0.237 NA
HETATM    8  C12 UNL     1      26.635   2.458  51.982  1.00  0.00     0.216 C 
HETATM    9  N4  UNL     1      25.416   1.884  52.499  1.00  0.00    -0.305 N 
HETATM   10  C19 UNL     1      25.169   0.840  53.450  1.00  0.00     0.054 A 
HETATM   11  C20 UNL     1      23.953   0.337  53.563  1.00  0.00     0.060 A 
ENDROOT
BRANCH   1  12
HETATM   12  N1  UNL     1      22.705  -1.471  54.952  1.00  0.00    -0.390 N 
HETATM   13  H7  UNL     1      22.751  -1.948  55.875  1.00  0.00     0.159 HD
BRANCH  12  14
HETATM   14  C6  UNL     1      21.656  -1.435  53.971  1.00  0.00     0.124 C 
BRANCH  14  15
HETATM   15  C5  UNL     1      20.716  -0.284  54.176  1.00  0.00     0.058 C 
BRANCH  15  16
HETATM   16  C4  UNL     1      19.859  -0.134  52.984  1.00  0.00    -0.057 A 
HETATM   17  C3  UNL     1      20.074   0.533  51.798  1.00  0.00     0.009 A 
HETATM   18  C2  UNL     1      19.120   0.530  50.807  1.00  0.00     0.024 A 
HETATM   19  C1  UNL     1      17.911  -0.125  50.923  1.00  0.00     0.034 A 
HETATM   20 CL1  UNL     1      16.715  -0.122  49.665  1.00  0.00    -0.084 Cl
HETATM   21  C22 UNL     1      17.679  -0.799  52.103  1.00  0.00     0.024 A 
HETATM   22  C21 UNL     1      18.631  -0.797  53.097  1.00  0.00     0.009 A 
ENDBRANCH  15  16
ENDBRANCH  14  15
ENDBRANCH  12  14
ENDBRANCH   1  12
BRANCH   9  23
HETATM   23  C13 UNL     1      24.208   2.431  51.993  1.00  0.00     0.042 A 
HETATM   24  C14 UNL     1      23.283   3.231  52.633  1.00  0.00     0.030 A 
HETATM   25  C15 UNL     1      22.161   3.673  51.982  1.00  0.00     0.004 A 
HETATM   26  C16 UNL     1      21.970   3.299  50.658  1.00  0.00     0.024 A 
HETATM   27  C17 UNL     1      22.870   2.503  49.990  1.00  0.00     0.036 A 
HETATM   28 CL2  UNL     1      22.585   2.055  48.310  1.00  0.00    -0.084 Cl
HETATM   29  C18 UNL     1      24.014   2.055  50.659  1.00  0.00     0.053 A 
ENDBRANCH   9  23
TORSDOF 5
ENDMDL
MODEL 4
REMARK VINA RESULT:      -9.2      3.483      7.587
REMARK  5 active torsions:
REMARK  status: ('A' for Active; 'I' for Inactive)
REMARK    1  A    between atoms: C4_5  and  C5_6 
REMARK    2  A    between atoms: C5_6  and  C6_7 
REMARK    3  A    between atoms: C6_7  and  N1_8 
REMARK    4  A    between atoms: N1_8  and  C7_9 
REMARK    5  A    between atoms: N4_17  and  C13_18 
ROOT
HETATM    1  C7  UNL     1      23.240   0.310  53.352  1.00  0.00     0.031 A 
HETATM    2  C8  UNL     1      22.672   0.902  52.286  1.00  0.00     0.044 A 
HETATM    3  C9  UNL     1      23.614   1.652  51.466  1.00  0.00     0.011 A 
HETATM    4  C10 UNL     1      23.120   2.261  50.401  1.00  0.00     0.131 C 
HETATM    5  N2  UNL     1      23.810   3.059  49.430  1.00  0.00    -0.253 NA
HETATM    6  C11 UNL     1      24.995   3.544  49.272  1.00  0.00     0.233 C 
HETATM    7  N3  UNL     1      26.234   3.543  49.968  1.00  0.00    -0.237 NA
HETATM    8  C12 UNL     1      26.729   2.924  50.985  1.00  0.00     0.216 C 
HETATM    9  N4  UNL     1      26.213   1.923  51.888  1.00  0.00    -0.305 N 
HETATM   10  C19 UNL     1      24.883   1.460  52.157  1.00  0.00     0.054 A 
HETATM   11  C20 UNL     1      24.660   0.702  53.216  1.00  0.00     0.060 A 
ENDROOT
BRANCH   1  12
HETATM   12  N1  UNL     1      22.668  -0.499  54.375  1.00  0.00    -0.390 N 
HETATM   13  H7  UNL     1      23.337  -1.092  54.907  1.00  0.00     0.159 HD
BRANCH  12  14
HETATM   14  C6  UNL     1      21.243  -0.357  54.501  1.00  0.00     0.124 C 
BRANCH  14  15
HETATM   15  C5  UNL     1      20.514  -1.644  54.254  1.00  0.00     0.058 C 
BRANCH  15  16
HETATM   16  C4  UNL     1      19.268  -1.365  53.512  1.00  0.00    -0.057 A 
HETATM   17  C3  UNL     1      18.036  -1.978  53.559  1.00  0.00     0.009 A 
HETATM   18  C2  UNL     1      17.000  -1.535  52.769  1.00  0.00     0.024 A 
HETATM   19  C1  UNL     1      17.115  -0.473  51.897  1.00  0.00     0.034 A 
HETATM   20 CL1  UNL     1      15.800   0.077  50.907  1.00  0.00    -0.084 Cl
HETATM   21  C22 UNL     1      18.341   0.154  51.838  1.00  0.00     0.024 A 
HETATM   22  C21 UNL     1      19.380  -0.287  52.626  1.00  0.00     0.009 A 
ENDBRANCH  15  16
ENDBRANCH  14  15
ENDBRANCH  12  14
ENDBRANCH   1  12
BRANCH   9  23
HETATM   23  C13 UNL     1      27.176   1.244  52.680  1.00  0.00     0.042 A 
HETATM   24  C14 UNL     1      28.053   1.760  53.613  1.00  0.00     0.030 A 
HETATM   25  C15 UNL     1      28.922   0.948  54.291  1.00  0.00     0.004 A 
HETATM   26  C16 UNL     1      28.906  -0.415  54.022  1.00  0.00     0.024 A 
HETATM   27  C17 UNL     1      28.046  -0.964  53.100  1.00  0.00     0.036 A 
HETATM   28 CL2  UNL     1      28.062  -2.698  52.792  1.00  0.00    -0.084 Cl
HETATM   29  C18 UNL     1      27.160  -0.129  52.409  1.00  0.00     0.053 A 
ENDBRANCH   9  23
TORSDOF 5
ENDMDL
MODEL 5
REMARK VINA RESULT:      -9.1      2.791      5.859
REMARK  5 active torsions:
REMARK  status: ('A' for Active; 'I' for Inactive)
REMARK    1  A    between atoms: C4_5  and  C5_6 
REMARK    2  A    between atoms: C5_6  and  C6_7 
REMARK    3  A    between atoms: C6_7  and  N1_8 
REMARK    4  A    between atoms: N1_8  and  C7_9 
REMARK    5  A    between atoms: N4_17  and  C13_18 
ROOT
HETATM    1  C7  UNL     1      22.744  -0.045  52.844  1.00  0.00     0.031 A 
HETATM    2  C8  UNL     1      23.477  -0.575  53.840  1.00  0.00     0.044 A 
HETATM    3  C9  UNL     1      24.849  -0.086  53.876  1.00  0.00     0.011 A 
HETATM    4  C10 UNL     1      25.625  -0.568  54.832  1.00  0.00     0.131 C 
HETATM    5  N2  UNL     1      27.001  -0.266  55.100  1.00  0.00    -0.253 NA
HETATM    6  C11 UNL     1      27.949   0.407  54.542  1.00  0.00     0.233 C 
HETATM    7  N3  UNL     1      28.133   1.199  53.376  1.00  0.00    -0.237 NA
HETATM    8  C12 UNL     1      27.372   1.699  52.463  1.00  0.00     0.216 C 
HETATM    9  N4  UNL     1      25.949   1.667  52.226  1.00  0.00    -0.305 N 
HETATM   10  C19 UNL     1      24.902   0.843  52.754  1.00  0.00     0.054 A 
HETATM   11  C20 UNL     1      23.711   0.858  52.182  1.00  0.00     0.060 A 
ENDROOT
BRANCH   1  12
HETATM   12  N1  UNL     1      21.385  -0.262  52.479  1.00  0.00    -0.390 N 
HETATM   13  H7  UNL     1      21.039  -1.237  52.589  1.00  0.00     0.159 HD
BRANCH  12  14
HETATM   14  C6  UNL     1      20.711   0.919  52.014  1.00  0.00     0.124 C 
BRANCH  14  15
HETATM   15  C5  UNL     1      19.816   0.645  50.841  1.00  0.00     0.058 C 
BRANCH  15  16
HETATM   16  C4  UNL     1      20.235   1.484  49.701  1.00  0.00    -0.057 A 
HETATM   17  C3  UNL     1      19.670   2.618  49.161  1.00  0.00     0.009 A 
HETATM   18  C2  UNL     1      20.249   3.248  48.084  1.00  0.00     0.024 A 
HETATM   19  C1  UNL     1      21.408   2.804  47.482  1.00  0.00     0.034 A 
HETATM   20 CL1  UNL     1      22.130   3.608  46.124  1.00  0.00    -0.084 Cl
HETATM   21  C22 UNL     1      21.989   1.671  48.009  1.00  0.00     0.024 A 
HETATM   22  C21 UNL     1      21.411   1.037  49.087  1.00  0.00     0.009 A 
ENDBRANCH  15  16
ENDBRANCH  14  15
ENDBRANCH  12  14
ENDBRANCH   1  12
BRANCH   9  23
HETATM   23  C13 UNL     1      25.451   2.619  51.298  1.00  0.00     0.042 A 
HETATM   24  C14 UNL     1      24.151   3.037  51.096  1.00  0.00     0.030 A 
HETATM   25  C15 UNL     1      23.851   3.976  50.146  1.00  0.00     0.004 A 
HETATM   26  C16 UNL     1      24.884   4.506  49.384  1.00  0.00     0.024 A 
HETATM   27  C17 UNL     1      26.191   4.114  49.558  1.00  0.00     0.036 A 
HETATM   28 CL2  UNL     1      27.469   4.814  48.568  1.00  0.00    -0.084 Cl
HETATM   29  C18 UNL     1      26.493   3.154  50.530  1.00  0.00     0.053 A 
ENDBRANCH   9  23
TORSDOF 5
ENDMDL
MODEL 6
REMARK VINA RESULT:      -9.0      2.852      4.713
REMARK  5 active torsions:
REMARK  status: ('A' for Active; 'I' for Inactive)
REMARK    1  A    between atoms: C4_5  and  C5_6 
REMARK    2  A    between atoms: C5_6  and  C6_7 
REMARK    3  A    between atoms: C6_7  and  N1_8 
REMARK    4  A    between atoms: N1_8  and  C7_9 
REMARK    5  A    between atoms: N4_17  and  C13_18 
ROOT
HETATM    1  C7  UNL     1      25.509   0.846  52.518  1.00  0.00     0.031 A 
HETATM    2  C8  UNL     1      25.166  -0.052  53.458  1.00  0.00     0.044 A 
HETATM    3  C9  UNL     1      23.726  -0.245  53.581  1.00  0.00     0.011 A 
HETATM    4  C10 UNL     1      23.319  -1.115  54.489  1.00  0.00     0.131 C 
HETATM    5  N2  UNL     1      21.978  -1.496  54.820  1.00  0.00    -0.253 NA
HETATM    6  C11 UNL     1      20.783  -1.126  54.505  1.00  0.00     0.233 C 
HETATM    7  N3  UNL     1      20.167  -0.154  53.671  1.00  0.00    -0.237 NA
HETATM    8  C12 UNL     1      20.558   0.670  52.759  1.00  0.00     0.216 C 
HETATM    9  N4  UNL     1      21.842   0.968  52.172  1.00  0.00    -0.305 N 
HETATM   10  C19 UNL     1      23.183   0.663  52.578  1.00  0.00     0.054 A 
HETATM   11  C20 UNL     1      24.196   1.270  51.986  1.00  0.00     0.060 A 
ENDROOT
BRANCH   1  12
HETATM   12  N1  UNL     1      26.792   1.304  52.101  1.00  0.00    -0.390 N 
HETATM   13  H7  UNL     1      27.585   0.660  52.296  1.00  0.00     0.159 HD
BRANCH  12  14
HETATM   14  C6  UNL     1      26.773   2.597  51.474  1.00  0.00     0.124 C 
BRANCH  14  15
HETATM   15  C5  UNL     1      26.508   2.517  50.000  1.00  0.00     0.058 C 
BRANCH  15  16
HETATM   16  C4  UNL     1      26.473   3.881  49.435  1.00  0.00    -0.057 A 
HETATM   17  C3  UNL     1      27.474   4.657  48.895  1.00  0.00     0.009 A 
HETATM   18  C2  UNL     1      27.204   5.918  48.415  1.00  0.00     0.024 A 
HETATM   19  C1  UNL     1      25.945   6.481  48.437  1.00  0.00     0.034 A 
HETATM   20 CL1  UNL     1      25.616   8.073  47.827  1.00  0.00    -0.084 Cl
HETATM   21  C22 UNL     1      24.931   5.718  48.973  1.00  0.00     0.024 A 
HETATM   22  C21 UNL     1      25.197   4.457  49.456  1.00  0.00     0.009 A 
ENDBRANCH  15  16
ENDBRANCH  14  15
ENDBRANCH  12  14
ENDBRANCH   1  12
BRANCH   9  23
HETATM   23  C13 UNL     1      21.815   1.704  50.958  1.00  0.00     0.042 A 
HETATM   24  C14 UNL     1      21.965   1.249  49.664  1.00  0.00     0.030 A 
HETATM   25  C15 UNL     1      21.909   2.111  48.600  1.00  0.00     0.004 A 
HETATM   26  C16 UNL     1      21.697   3.461  48.849  1.00  0.00     0.024 A 
HETATM   27  C17 UNL     1      21.544   3.949  50.125  1.00  0.00     0.036 A 
HETATM   28 CL2  UNL     1      21.277   5.670  50.393  1.00  0.00    -0.084 Cl
HETATM   29  C18 UNL     1      21.602   3.065  51.208  1.00  0.00     0.053 A 
ENDBRANCH   9  23
TORSDOF 5
ENDMDL
MODEL 7
REMARK VINA RESULT:      -8.9      3.261      5.165
REMARK  5 active torsions:
REMARK  status: ('A' for Active; 'I' for Inactive)
REMARK    1  A    between atoms: C4_5  and  C5_6 
REMARK    2  A    between atoms: C5_6  and  C6_7 
REMARK    3  A    between atoms: C6_7  and  N1_8 
REMARK    4  A    between atoms: N1_8  and  C7_9 
REMARK    5  A    between atoms: N4_17  and  C13_18 
ROOT
HETATM    1  C7  UNL     1      25.988   2.101  52.250  1.00  0.00     0.031 A 
HETATM    2  C8  UNL     1      26.391   1.284  53.239  1.00  0.00     0.044 A 
HETATM    3  C9  UNL     1      25.313   0.486  53.810  1.00  0.00     0.011 A 
HETATM    4  C10 UNL     1      25.641  -0.340  54.790  1.00  0.00     0.131 C 
HETATM    5  N2  UNL     1      24.792  -1.231  55.525  1.00  0.00    -0.253 NA
HETATM    6  C11 UNL     1      23.530  -1.483  55.610  1.00  0.00     0.233 C 
HETATM    7  N3  UNL     1      22.322  -1.015  55.027  1.00  0.00    -0.237 NA
HETATM    8  C12 UNL     1      22.001  -0.238  54.048  1.00  0.00     0.216 C 
HETATM    9  N4  UNL     1      22.767   0.519  53.088  1.00  0.00    -0.305 N 
HETATM   10  C19 UNL     1      24.147   0.906  53.043  1.00  0.00     0.054 A 
HETATM   11  C20 UNL     1      24.540   1.814  52.168  1.00  0.00     0.060 A 
ENDROOT
BRANCH   1  12
HETATM   12  N1  UNL     1      26.727   3.022  51.453  1.00  0.00    -0.390 N 
HETATM   13  H7  UNL     1      27.334   3.684  51.977  1.00  0.00     0.159 HD
BRANCH  12  14
HETATM   14  C6  UNL     1      26.504   2.879  50.040  1.00  0.00     0.124 C 
BRANCH  14  15
HETATM   15  C5  UNL     1      26.411   4.201  49.337  1.00  0.00     0.058 C 
BRANCH  15  16
HETATM   16  C4  UNL     1      25.115   4.833  49.655  1.00  0.00    -0.057 A 
HETATM   17  C3  UNL     1      23.829   4.351  49.550  1.00  0.00     0.009 A 
HETATM   18  C2  UNL     1      22.756   5.129  49.918  1.00  0.00     0.024 A 
HETATM   19  C1  UNL     1      22.884   6.413  50.408  1.00  0.00     0.034 A 
HETATM   20 CL1  UNL     1      21.522   7.384  50.870  1.00  0.00    -0.084 Cl
HETATM   21  C22 UNL     1      24.164   6.911  50.520  1.00  0.00     0.024 A 
HETATM   22  C21 UNL     1      25.241   6.136  50.152  1.00  0.00     0.009 A 
ENDBRANCH  15  16
ENDBRANCH  14  15
ENDBRANCH  12  14
ENDBRANCH   1  12
BRANCH   9  23
HETATM   23  C13 UNL     1      22.052   0.989  51.955  1.00  0.00     0.042 A 
HETATM   24  C14 UNL     1      22.140   0.576  50.641  1.00  0.00     0.030 A 
HETATM   25  C15 UNL     1      21.365   1.148  49.667  1.00  0.00     0.004 A 
HETATM   26  C16 UNL     1      20.481   2.157  50.028  1.00  0.00     0.024 A 
HETATM   27  C17 UNL     1      20.368   2.594  51.327  1.00  0.00     0.036 A 
HETATM   28 CL2  UNL     1      19.234   3.879  51.737  1.00  0.00    -0.084 Cl
HETATM   29  C18 UNL     1      21.162   2.007  52.318  1.00  0.00     0.053 A 
ENDBRANCH   9  23
TORSDOF 5
ENDMDL
MODEL 8
REMARK VINA RESULT:      -8.9      1.865      2.457
REMARK  5 active torsions:
REMARK  status: ('A' for Active; 'I' for Inactive)
REMARK    1  A    between atoms: C4_5  and  C5_6 
REMARK    2  A    between atoms: C5_6  and  C6_7 
REMARK    3  A    between atoms: C6_7  and  N1_8 
REMARK    4  A    between atoms: N1_8  and  C7_9 
REMARK    5  A    between atoms: N4_17  and  C13_18 
ROOT
HETATM    1  C7  UNL     1      23.877   4.961  51.610  1.00  0.00     0.031 A 
HETATM    2  C8  UNL     1      22.535   4.933  51.696  1.00  0.00     0.044 A 
HETATM    3  C9  UNL     1      22.008   3.654  52.154  1.00  0.00     0.011 A 
HETATM    4  C10 UNL     1      20.693   3.558  52.260  1.00  0.00     0.131 C 
HETATM    5  N2  UNL     1      19.914   2.431  52.681  1.00  0.00    -0.253 NA
HETATM    6  C11 UNL     1      20.121   1.192  52.975  1.00  0.00     0.233 C 
HETATM    7  N3  UNL     1      21.221   0.295  53.038  1.00  0.00    -0.237 NA
HETATM    8  C12 UNL     1      22.506   0.393  52.970  1.00  0.00     0.216 C 
HETATM    9  N4  UNL     1      23.411   1.503  52.794  1.00  0.00    -0.305 N 
HETATM   10  C19 UNL     1      23.208   2.852  52.354  1.00  0.00     0.054 A 
HETATM   11  C20 UNL     1      24.254   3.599  52.045  1.00  0.00     0.060 A 
ENDROOT
BRANCH   1  12
HETATM   12  N1  UNL     1      24.756   6.008  51.210  1.00  0.00    -0.390 N 
HETATM   13  H7  UNL     1      25.223   6.524  51.984  1.00  0.00     0.159 HD
BRANCH  12  14
HETATM   14  C6  UNL     1      24.850   6.178  49.786  1.00  0.00     0.124 C 
BRANCH  14  15
HETATM   15  C5  UNL     1      25.614   5.070  49.125  1.00  0.00     0.058 C 
BRANCH  15  16
HETATM   16  C4  UNL     1      26.899   5.595  48.620  1.00  0.00    -0.057 A 
HETATM   17  C3  UNL     1      28.152   5.025  48.581  1.00  0.00     0.009 A 
HETATM   18  C2  UNL     1      29.219   5.710  48.048  1.00  0.00     0.024 A 
HETATM   19  C1  UNL     1      29.117   6.983  47.528  1.00  0.00     0.034 A 
HETATM   20 CL1  UNL     1      30.471   7.838  46.858  1.00  0.00    -0.084 Cl
HETATM   21  C22 UNL     1      27.870   7.570  47.558  1.00  0.00     0.024 A 
HETATM   22  C21 UNL     1      26.799   6.887  48.091  1.00  0.00     0.009 A 
ENDBRANCH  15  16
ENDBRANCH  14  15
ENDBRANCH  12  14
ENDBRANCH   1  12
BRANCH   9  23
HETATM   23  C13 UNL     1      24.772   1.250  53.107  1.00  0.00     0.042 A 
HETATM   24  C14 UNL     1      25.688   2.078  53.724  1.00  0.00     0.030 A 
HETATM   25  C15 UNL     1      26.975   1.664  53.949  1.00  0.00     0.004 A 
HETATM   26  C16 UNL     1      27.343   0.387  53.544  1.00  0.00     0.024 A 
HETATM   27  C17 UNL     1      26.457  -0.463  52.926  1.00  0.00     0.036 A 
HETATM   28 CL2  UNL     1      26.970  -2.074  52.429  1.00  0.00    -0.084 Cl
HETATM   29  C18 UNL     1      25.144  -0.036  52.699  1.00  0.00     0.053 A 
ENDBRANCH   9  23
TORSDOF 5
ENDMDL
MODEL 9
REMARK VINA RESULT:      -8.8      2.444      3.173
REMARK  5 active torsions:
REMARK  status: ('A' for Active; 'I' for Inactive)
REMARK    1  A    between atoms: C4_5  and  C5_6 
REMARK    2  A    between atoms: C5_6  and  C6_7 
REMARK    3  A    between atoms: C6_7  and  N1_8 
REMARK    4  A    between atoms: N1_8  and  C7_9 
REMARK    5  A    between atoms: N4_17  and  C13_18 
ROOT
HETATM    1  C7  UNL     1      26.147   3.123  50.942  1.00  0.00     0.031 A 
HETATM    2  C8  UNL     1      24.826   3.261  51.159  1.00  0.00     0.044 A 
HETATM    3  C9  UNL     1      24.255   2.193  51.970  1.00  0.00     0.011 A 
HETATM    4  C10 UNL     1      22.959   2.267  52.221  1.00  0.00     0.131 C 
HETATM    5  N2  UNL     1      22.145   1.365  52.981  1.00  0.00    -0.253 NA
HETATM    6  C11 UNL     1      22.284   0.217  53.554  1.00  0.00     0.233 C 
HETATM    7  N3  UNL     1      23.308  -0.752  53.734  1.00  0.00    -0.237 NA
HETATM    8  C12 UNL     1      24.579  -0.812  53.523  1.00  0.00     0.216 C 
HETATM    9  N4  UNL     1      25.544   0.119  52.991  1.00  0.00    -0.305 N 
HETATM   10  C19 UNL     1      25.402   1.337  52.249  1.00  0.00     0.054 A 
HETATM   11  C20 UNL     1      26.460   1.872  51.666  1.00  0.00     0.060 A 
ENDROOT
BRANCH   1  12
HETATM   12  N1  UNL     1      27.055   3.943  50.213  1.00  0.00    -0.390 N 
HETATM   13  H7  UNL     1      27.984   4.090  50.656  1.00  0.00     0.159 HD
BRANCH  12  14
HETATM   14  C6  UNL     1      26.525   4.437  48.971  1.00  0.00     0.124 C 
BRANCH  14  15
HETATM   15  C5  UNL     1      26.570   5.933  48.883  1.00  0.00     0.058 C 
BRANCH  15  16
HETATM   16  C4  UNL     1      25.312   6.492  49.415  1.00  0.00    -0.057 A 
HETATM   17  C3  UNL     1      25.083   7.365  50.455  1.00  0.00     0.009 A 
HETATM   18  C2  UNL     1      23.804   7.761  50.773  1.00  0.00     0.024 A 
HETATM   19  C1  UNL     1      22.687   7.326  50.091  1.00  0.00     0.034 A 
HETATM   20 CL1  UNL     1      21.078   7.833  50.501  1.00  0.00    -0.084 Cl
HETATM   21  C22 UNL     1      22.897   6.452  49.046  1.00  0.00     0.024 A 
HETATM   22  C21 UNL     1      24.175   6.053  48.726  1.00  0.00     0.009 A 
ENDBRANCH  15  16
ENDBRANCH  14  15
ENDBRANCH  12  14
ENDBRANCH   1  12
BRANCH   9  23
HETATM   23  C13 UNL     1      26.908  -0.196  53.227  1.00  0.00     0.042 A 
HETATM   24  C14 UNL     1      27.601  -1.346  52.907  1.00  0.00     0.030 A 
HETATM   25  C15 UNL     1      28.929  -1.479  53.213  1.00  0.00     0.004 A 
HETATM   26  C16 UNL     1      29.572  -0.429  53.855  1.00  0.00     0.024 A 
HETATM   27  C17 UNL     1      28.913   0.731  54.189  1.00  0.00     0.036 A 
HETATM   28 CL2  UNL     1      29.770   2.037  55.004  1.00  0.00    -0.084 Cl
HETATM   29  C18 UNL     1      27.556   0.862  53.874  1.00  0.00     0.053 A 
ENDBRANCH   9  23
TORSDOF 5
ENDMDL
