MODEL 1
REMARK VINA RESULT:      -7.8      0.000      0.000
REMARK  3 active torsions:
REMARK  status: ('A' for Active; 'I' for Inactive)
REMARK    1  A    between atoms: S1_2  and  C2_3 
REMARK    2  A    between atoms: C3_4  and  C4_5 
REMARK       I    between atoms: C4_5  and  N1_7 
REMARK    3  A    between atoms: N1_7  and  C5_8 
ROOT
HETATM    1  C2  UNL     1      23.572   1.759  52.694  1.00  0.00     0.088 A 
HETATM    2  C3  UNL     1      23.852   0.521  53.281  1.00  0.00     0.078 A 
HETATM    3  C10 UNL     1      22.620  -0.028  53.506  1.00  0.00     0.009 A 
HETATM    4  C11 UNL     1      22.353  -1.247  54.071  1.00  0.00     0.015 A 
HETATM    5  C12 UNL     1      21.039  -1.633  54.217  1.00  0.00     0.001 A 
HETATM    6  C13 UNL     1      19.969  -0.856  53.826  1.00  0.00     0.002 A 
HETATM    7  C14 UNL     1      20.280   0.364  53.263  1.00  0.00     0.030 A 
HETATM    8  C15 UNL     1      21.582   0.779  53.101  1.00  0.00     0.046 A 
HETATM    9  N2  UNL     1      22.211   1.858  52.612  1.00  0.00    -0.344 N 
HETATM   10  C16 UNL     1      21.396   2.950  52.080  1.00  0.00     0.157 C 
ENDROOT
BRANCH   2  11
HETATM   11  C4  UNL     1      25.239   0.199  53.468  1.00  0.00     0.259 C 
HETATM   12  O1  UNL     1      25.661   0.013  54.642  1.00  0.00    -0.267 OA
HETATM   13  N1  UNL     1      26.342   0.021  52.621  1.00  0.00    -0.323 N 
HETATM   14  H4  UNL     1      26.113   0.151  51.618  1.00  0.00     0.169 HD
BRANCH  13  15
HETATM   15  C5  UNL     1      27.671  -0.302  52.978  1.00  0.00     0.035 C 
HETATM   16  C6  UNL     1      28.369  -1.415  53.113  1.00  0.00     0.030 C 
HETATM   17  C7  UNL     1      29.771  -1.182  53.521  1.00  0.00     0.014 C 
HETATM   18  C8  UNL     1      29.710   0.104  53.830  1.00  0.00    -0.024 C 
HETATM   19  C9  UNL     1      28.684   0.721  53.318  1.00  0.00     0.042 C 
ENDBRANCH  13  15
ENDBRANCH   2  11
BRANCH   1  20
HETATM   20  S1  UNL     1      24.550   3.126  52.078  1.00  0.00    -0.116 SA
HETATM   21  C1  UNL     1      24.664   3.008  50.263  1.00  0.00     0.097 C 
ENDBRANCH   1  20
TORSDOF 3
ENDMDL
MODEL 2
REMARK VINA RESULT:      -7.2      1.570      3.461
REMARK  3 active torsions:
REMARK  status: ('A' for Active; 'I' for Inactive)
REMARK    1  A    between atoms: S1_2  and  C2_3 
REMARK    2  A    between atoms: C3_4  and  C4_5 
REMARK       I    between atoms: C4_5  and  N1_7 
REMARK    3  A    between atoms: N1_7  and  C5_8 
ROOT
HETATM    1  C2  UNL     1      22.785   0.659  52.901  1.00  0.00     0.088 A 
HETATM    2  C3  UNL     1      23.903   1.499  52.847  1.00  0.00     0.078 A 
HETATM    3  C10 UNL     1      23.386   2.722  52.528  1.00  0.00     0.009 A 
HETATM    4  C11 UNL     1      24.081   3.890  52.356  1.00  0.00     0.015 A 
HETATM    5  C12 UNL     1      23.384   5.033  52.033  1.00  0.00     0.001 A 
HETATM    6  C13 UNL     1      22.014   5.069  51.871  1.00  0.00     0.002 A 
HETATM    7  C14 UNL     1      21.352   3.873  52.052  1.00  0.00     0.030 A 
HETATM    8  C15 UNL     1      22.019   2.714  52.376  1.00  0.00     0.046 A 
HETATM    9  N2  UNL     1      21.697   1.434  52.613  1.00  0.00    -0.344 N 
HETATM   10  C16 UNL     1      20.287   1.051  52.537  1.00  0.00     0.157 C 
ENDROOT
BRANCH   2  11
HETATM   11  C4  UNL     1      25.175   0.890  53.121  1.00  0.00     0.259 C 
HETATM   12  O1  UNL     1      25.466   0.618  54.318  1.00  0.00    -0.267 OA
HETATM   13  N1  UNL     1      26.270   0.483  52.348  1.00  0.00    -0.323 N 
HETATM   14  H4  UNL     1      26.144   0.659  51.333  1.00  0.00     0.169 HD
BRANCH  13  15
HETATM   15  C5  UNL     1      27.474  -0.114  52.787  1.00  0.00     0.035 C 
HETATM   16  C6  UNL     1      27.918  -1.350  52.928  1.00  0.00     0.030 C 
HETATM   17  C7  UNL     1      29.301  -1.420  53.447  1.00  0.00     0.014 C 
HETATM   18  C8  UNL     1      29.478  -0.158  53.802  1.00  0.00    -0.024 C 
HETATM   19  C9  UNL     1      28.643   0.669  53.242  1.00  0.00     0.042 C 
ENDBRANCH  13  15
ENDBRANCH   2  11
BRANCH   1  20
HETATM   20  S1  UNL     1      22.512  -1.077  53.243  1.00  0.00    -0.116 SA
HETATM   21  C1  UNL     1      22.270  -1.301  55.035  1.00  0.00     0.097 C 
ENDBRANCH   1  20
TORSDOF 3
ENDMDL
MODEL 3
REMARK VINA RESULT:      -7.1      3.995      7.095
REMARK  3 active torsions:
REMARK  status: ('A' for Active; 'I' for Inactive)
REMARK    1  A    between atoms: S1_2  and  C2_3 
REMARK    2  A    between atoms: C3_4  and  C4_5 
REMARK       I    between atoms: C4_5  and  N1_7 
REMARK    3  A    between atoms: N1_7  and  C5_8 
ROOT
HETATM    1  C2  UNL     1      24.785   5.164  49.481  1.00  0.00     0.088 A 
HETATM    2  C3  UNL     1      26.132   4.787  49.464  1.00  0.00     0.078 A 
HETATM    3  C10 UNL     1      26.738   5.750  48.706  1.00  0.00     0.009 A 
HETATM    4  C11 UNL     1      28.068   5.831  48.388  1.00  0.00     0.015 A 
HETATM    5  C12 UNL     1      28.497   6.881  47.608  1.00  0.00     0.001 A 
HETATM    6  C13 UNL     1      27.658   7.862  47.123  1.00  0.00     0.002 A 
HETATM    7  C14 UNL     1      26.327   7.744  47.464  1.00  0.00     0.030 A 
HETATM    8  C15 UNL     1      25.866   6.708  48.243  1.00  0.00     0.046 A 
HETATM    9  N2  UNL     1      24.686   6.308  48.741  1.00  0.00    -0.344 N 
HETATM   10  C16 UNL     1      23.502   7.113  48.442  1.00  0.00     0.157 C 
ENDROOT
BRANCH   2  11
HETATM   11  C4  UNL     1      26.473   3.594  50.188  1.00  0.00     0.259 C 
HETATM   12  O1  UNL     1      26.913   2.604  49.542  1.00  0.00    -0.267 OA
HETATM   13  N1  UNL     1      26.446   3.205  51.534  1.00  0.00    -0.323 N 
HETATM   14  H4  UNL     1      26.098   3.948  52.169  1.00  0.00     0.169 HD
BRANCH  13  15
HETATM   15  C5  UNL     1      26.827   1.963  52.090  1.00  0.00     0.035 C 
HETATM   16  C6  UNL     1      27.830   1.527  52.830  1.00  0.00     0.030 C 
HETATM   17  C7  UNL     1      27.744   0.084  53.143  1.00  0.00     0.014 C 
HETATM   18  C8  UNL     1      26.766  -0.271  52.325  1.00  0.00    -0.024 C 
HETATM   19  C9  UNL     1      26.037   0.725  51.911  1.00  0.00     0.042 C 
ENDBRANCH  13  15
ENDBRANCH   2  11
BRANCH   1  20
HETATM   20  S1  UNL     1      23.289   4.507  50.213  1.00  0.00    -0.116 SA
HETATM   21  C1  UNL     1      23.170   5.078  51.940  1.00  0.00     0.097 C 
ENDBRANCH   1  20
TORSDOF 3
ENDMDL
MODEL 4
REMARK VINA RESULT:      -7.1      2.952      6.350
REMARK  3 active torsions:
REMARK  status: ('A' for Active; 'I' for Inactive)
REMARK    1  A    between atoms: S1_2  and  C2_3 
REMARK    2  A    between atoms: C3_4  and  C4_5 
REMARK       I    between atoms: C4_5  and  N1_7 
REMARK    3  A    between atoms: N1_7  and  C5_8 
ROOT
HETATM    1  C2  UNL     1      24.683   1.645  51.816  1.00  0.00     0.088 A 
HETATM    2  C3  UNL     1      25.899   2.325  51.698  1.00  0.00     0.078 A 
HETATM    3  C10 UNL     1      26.700   1.741  52.639  1.00  0.00     0.009 A 
HETATM    4  C11 UNL     1      28.004   2.057  52.920  1.00  0.00     0.015 A 
HETATM    5  C12 UNL     1      28.654   1.355  53.910  1.00  0.00     0.001 A 
HETATM    6  C13 UNL     1      28.063   0.345  54.641  1.00  0.00     0.002 A 
HETATM    7  C14 UNL     1      26.751   0.058  54.328  1.00  0.00     0.030 A 
HETATM    8  C15 UNL     1      26.073   0.740  53.344  1.00  0.00     0.046 A 
HETATM    9  N2  UNL     1      24.844   0.718  52.807  1.00  0.00    -0.344 N 
HETATM   10  C16 UNL     1      23.881  -0.252  53.328  1.00  0.00     0.157 C 
ENDROOT
BRANCH   2  11
HETATM   11  C4  UNL     1      25.961   3.359  50.702  1.00  0.00     0.259 C 
HETATM   12  O1  UNL     1      26.411   3.068  49.561  1.00  0.00    -0.267 OA
HETATM   13  N1  UNL     1      25.626   4.718  50.658  1.00  0.00    -0.323 N 
HETATM   14  H4  UNL     1      25.239   5.075  51.553  1.00  0.00     0.169 HD
BRANCH  13  15
HETATM   15  C5  UNL     1      25.753   5.613  49.571  1.00  0.00     0.035 C 
HETATM   16  C6  UNL     1      26.735   6.315  49.036  1.00  0.00     0.030 C 
HETATM   17  C7  UNL     1      26.314   7.118  47.868  1.00  0.00     0.014 C 
HETATM   18  C8  UNL     1      25.000   6.987  47.961  1.00  0.00    -0.024 C 
HETATM   19  C9  UNL     1      24.621   5.979  48.693  1.00  0.00     0.042 C 
ENDBRANCH  13  15
ENDBRANCH   2  11
BRANCH   1  20
HETATM   20  S1  UNL     1      23.090   1.734  51.003  1.00  0.00    -0.116 SA
HETATM   21  C1  UNL     1      22.134   3.114  51.712  1.00  0.00     0.097 C 
ENDBRANCH   1  20
TORSDOF 3
ENDMDL
MODEL 5
REMARK VINA RESULT:      -7.1      2.092      4.500
REMARK  3 active torsions:
REMARK  status: ('A' for Active; 'I' for Inactive)
REMARK    1  A    between atoms: S1_2  and  C2_3 
REMARK    2  A    between atoms: C3_4  and  C4_5 
REMARK       I    between atoms: C4_5  and  N1_7 
REMARK    3  A    between atoms: N1_7  and  C5_8 
ROOT
HETATM    1  C2  UNL     1      24.645   0.510  53.604  1.00  0.00     0.088 A 
HETATM    2  C3  UNL     1      23.754   1.185  52.763  1.00  0.00     0.078 A 
HETATM    3  C10 UNL     1      22.552   0.579  52.995  1.00  0.00     0.009 A 
HETATM    4  C11 UNL     1      21.351   0.881  52.409  1.00  0.00     0.015 A 
HETATM    5  C12 UNL     1      20.238   0.155  52.772  1.00  0.00     0.001 A 
HETATM    6  C13 UNL     1      20.264  -0.866  53.698  1.00  0.00     0.002 A 
HETATM    7  C14 UNL     1      21.491  -1.139  54.264  1.00  0.00     0.030 A 
HETATM    8  C15 UNL     1      22.622  -0.433  53.925  1.00  0.00     0.046 A 
HETATM    9  N2  UNL     1      23.919  -0.438  54.268  1.00  0.00    -0.344 N 
HETATM   10  C16 UNL     1      24.366  -1.413  55.263  1.00  0.00     0.157 C 
ENDROOT
BRANCH   2  11
HETATM   11  C4  UNL     1      24.306   2.240  51.958  1.00  0.00     0.259 C 
HETATM   12  O1  UNL     1      24.497   3.366  52.492  1.00  0.00    -0.267 OA
HETATM   13  N1  UNL     1      24.726   2.360  50.627  1.00  0.00    -0.323 N 
HETATM   14  H4  UNL     1      24.616   1.484  50.082  1.00  0.00     0.169 HD
BRANCH  13  15
HETATM   15  C5  UNL     1      25.259   3.498  49.980  1.00  0.00     0.035 C 
HETATM   16  C6  UNL     1      24.761   4.582  49.414  1.00  0.00     0.030 C 
HETATM   17  C7  UNL     1      25.796   5.487  48.869  1.00  0.00     0.014 C 
HETATM   18  C8  UNL     1      26.860   4.704  48.965  1.00  0.00    -0.024 C 
HETATM   19  C9  UNL     1      26.711   3.712  49.794  1.00  0.00     0.042 C 
ENDBRANCH  13  15
ENDBRANCH   2  11
BRANCH   1  20
HETATM   20  S1  UNL     1      26.396   0.625  53.959  1.00  0.00    -0.116 SA
HETATM   21  C1  UNL     1      27.291  -0.598  52.948  1.00  0.00     0.097 C 
ENDBRANCH   1  20
TORSDOF 3
ENDMDL
MODEL 6
REMARK VINA RESULT:      -7.0      3.346      4.422
REMARK  3 active torsions:
REMARK  status: ('A' for Active; 'I' for Inactive)
REMARK    1  A    between atoms: S1_2  and  C2_3 
REMARK    2  A    between atoms: C3_4  and  C4_5 
REMARK       I    between atoms: C4_5  and  N1_7 
REMARK    3  A    between atoms: N1_7  and  C5_8 
ROOT
HETATM    1  C2  UNL     1      21.291   1.940  51.399  1.00  0.00     0.088 A 
HETATM    2  C3  UNL     1      22.608   1.763  51.836  1.00  0.00     0.078 A 
HETATM    3  C10 UNL     1      22.527   0.729  52.726  1.00  0.00     0.009 A 
HETATM    4  C11 UNL     1      23.558   0.172  53.436  1.00  0.00     0.015 A 
HETATM    5  C12 UNL     1      23.283  -0.871  54.292  1.00  0.00     0.001 A 
HETATM    6  C13 UNL     1      22.018  -1.390  54.478  1.00  0.00     0.002 A 
HETATM    7  C14 UNL     1      21.008  -0.801  53.745  1.00  0.00     0.030 A 
HETATM    8  C15 UNL     1      21.250   0.242  52.881  1.00  0.00     0.046 A 
HETATM    9  N2  UNL     1      20.531   1.011  52.051  1.00  0.00    -0.344 N 
HETATM   10  C16 UNL     1      19.091   0.767  51.957  1.00  0.00     0.157 C 
ENDROOT
BRANCH   2  11
HETATM   11  C4  UNL     1      23.594   2.644  51.274  1.00  0.00     0.259 C 
HETATM   12  O1  UNL     1      24.154   3.481  52.032  1.00  0.00    -0.267 OA
HETATM   13  N1  UNL     1      24.145   2.836  50.000  1.00  0.00    -0.323 N 
HETATM   14  H4  UNL     1      23.756   2.194  49.284  1.00  0.00     0.169 HD
BRANCH  13  15
HETATM   15  C5  UNL     1      25.132   3.770  49.610  1.00  0.00     0.035 C 
HETATM   16  C6  UNL     1      25.131   5.014  49.167  1.00  0.00     0.030 C 
HETATM   17  C7  UNL     1      26.486   5.541  48.898  1.00  0.00     0.014 C 
HETATM   18  C8  UNL     1      27.191   4.425  48.994  1.00  0.00    -0.024 C 
HETATM   19  C9  UNL     1      26.580   3.470  49.633  1.00  0.00     0.042 C 
ENDBRANCH  13  15
ENDBRANCH   2  11
BRANCH   1  20
HETATM   20  S1  UNL     1      20.467   3.043  50.254  1.00  0.00    -0.116 SA
HETATM   21  C1  UNL     1      20.637   4.757  50.849  1.00  0.00     0.097 C 
ENDBRANCH   1  20
TORSDOF 3
ENDMDL
MODEL 7
REMARK VINA RESULT:      -7.0      7.395      9.071
REMARK  3 active torsions:
REMARK  status: ('A' for Active; 'I' for Inactive)
REMARK    1  A    between atoms: S1_2  and  C2_3 
REMARK    2  A    between atoms: C3_4  and  C4_5 
REMARK       I    between atoms: C4_5  and  N1_7 
REMARK    3  A    between atoms: N1_7  and  C5_8 
ROOT
HETATM    1  C2  UNL     1      29.019   7.373  47.886  1.00  0.00     0.088 A 
HETATM    2  C3  UNL     1      29.107   6.027  48.259  1.00  0.00     0.078 A 
HETATM    3  C10 UNL     1      27.815   5.672  48.529  1.00  0.00     0.009 A 
HETATM    4  C11 UNL     1      27.369   4.443  48.939  1.00  0.00     0.015 A 
HETATM    5  C12 UNL     1      26.021   4.271  49.164  1.00  0.00     0.001 A 
HETATM    6  C13 UNL     1      25.088   5.274  49.000  1.00  0.00     0.002 A 
HETATM    7  C14 UNL     1      25.578   6.495  48.587  1.00  0.00     0.030 A 
HETATM    8  C15 UNL     1      26.918   6.699  48.353  1.00  0.00     0.046 A 
HETATM    9  N2  UNL     1      27.699   7.717  47.960  1.00  0.00    -0.344 N 
HETATM   10  C16 UNL     1      27.064   9.004  47.675  1.00  0.00     0.157 C 
ENDROOT
BRANCH   2  11
HETATM   11  C4  UNL     1      30.420   5.445  48.253  1.00  0.00     0.259 C 
HETATM   12  O1  UNL     1      31.097   5.480  49.316  1.00  0.00    -0.267 OA
HETATM   13  N1  UNL     1      31.215   4.794  47.301  1.00  0.00    -0.323 N 
HETATM   14  H4  UNL     1      30.757   4.706  46.374  1.00  0.00     0.169 HD
BRANCH  13  15
HETATM   15  C5  UNL     1      32.518   4.270  47.465  1.00  0.00     0.035 C 
HETATM   16  C6  UNL     1      33.031   3.084  47.735  1.00  0.00     0.030 C 
HETATM   17  C7  UNL     1      34.508   3.084  47.797  1.00  0.00     0.014 C 
HETATM   18  C8  UNL     1      34.739   4.388  47.784  1.00  0.00    -0.024 C 
HETATM   19  C9  UNL     1      33.739   5.095  47.341  1.00  0.00     0.042 C 
ENDBRANCH  13  15
ENDBRANCH   2  11
BRANCH   1  20
HETATM   20  S1  UNL     1      30.185   8.631  47.373  1.00  0.00    -0.116 SA
HETATM   21  C1  UNL     1      30.829   9.485  48.849  1.00  0.00     0.097 C 
ENDBRANCH   1  20
TORSDOF 3
ENDMDL
MODEL 8
REMARK VINA RESULT:      -6.9      3.139      6.597
REMARK  3 active torsions:
REMARK  status: ('A' for Active; 'I' for Inactive)
REMARK    1  A    between atoms: S1_2  and  C2_3 
REMARK    2  A    between atoms: C3_4  and  C4_5 
REMARK       I    between atoms: C4_5  and  N1_7 
REMARK    3  A    between atoms: N1_7  and  C5_8 
ROOT
HETATM    1  C2  UNL     1      23.410   5.273  50.648  1.00  0.00     0.088 A 
HETATM    2  C3  UNL     1      24.280   4.179  50.582  1.00  0.00     0.078 A 
HETATM    3  C10 UNL     1      25.355   4.651  49.883  1.00  0.00     0.009 A 
HETATM    4  C11 UNL     1      26.488   3.956  49.549  1.00  0.00     0.015 A 
HETATM    5  C12 UNL     1      27.473   4.603  48.837  1.00  0.00     0.001 A 
HETATM    6  C13 UNL     1      27.383   5.920  48.437  1.00  0.00     0.002 A 
HETATM    7  C14 UNL     1      26.228   6.584  48.792  1.00  0.00     0.030 A 
HETATM    8  C15 UNL     1      25.225   5.967  49.504  1.00  0.00     0.046 A 
HETATM    9  N2  UNL     1      24.022   6.304  49.993  1.00  0.00    -0.344 N 
HETATM   10  C16 UNL     1      23.545   7.669  49.771  1.00  0.00     0.157 C 
ENDROOT
BRANCH   2  11
HETATM   11  C4  UNL     1      23.835   2.968  51.214  1.00  0.00     0.259 C 
HETATM   12  O1  UNL     1      23.459   2.012  50.483  1.00  0.00    -0.267 OA
HETATM   13  N1  UNL     1      23.698   2.530  52.538  1.00  0.00    -0.323 N 
HETATM   14  H4  UNL     1      23.982   3.241  53.237  1.00  0.00     0.169 HD
BRANCH  13  15
HETATM   15  C5  UNL     1      23.235   1.275  52.996  1.00  0.00     0.035 C 
HETATM   16  C6  UNL     1      22.053   0.730  53.221  1.00  0.00     0.030 C 
HETATM   17  C7  UNL     1      22.134  -0.661  53.716  1.00  0.00     0.014 C 
HETATM   18  C8  UNL     1      23.431  -0.740  53.971  1.00  0.00    -0.024 C 
HETATM   19  C9  UNL     1      24.142   0.168  53.368  1.00  0.00     0.042 C 
ENDBRANCH  13  15
ENDBRANCH   2  11
BRANCH   1  20
HETATM   20  S1  UNL     1      21.794   5.574  51.358  1.00  0.00    -0.116 SA
HETATM   21  C1  UNL     1      20.527   5.372  50.064  1.00  0.00     0.097 C 
ENDBRANCH   1  20
TORSDOF 3
ENDMDL
MODEL 9
REMARK VINA RESULT:      -6.3      7.980     11.570
REMARK  3 active torsions:
REMARK  status: ('A' for Active; 'I' for Inactive)
REMARK    1  A    between atoms: S1_2  and  C2_3 
REMARK    2  A    between atoms: C3_4  and  C4_5 
REMARK       I    between atoms: C4_5  and  N1_7 
REMARK    3  A    between atoms: N1_7  and  C5_8 
ROOT
HETATM    1  C2  UNL     1      32.099   6.855  48.395  1.00  0.00     0.088 A 
HETATM    2  C3  UNL     1      31.307   5.806  47.917  1.00  0.00     0.078 A 
HETATM    3  C10 UNL     1      32.210   4.866  47.508  1.00  0.00     0.009 A 
HETATM    4  C11 UNL     1      31.933   3.642  46.958  1.00  0.00     0.015 A 
HETATM    5  C12 UNL     1      32.982   2.824  46.605  1.00  0.00     0.001 A 
HETATM    6  C13 UNL     1      34.307   3.169  46.773  1.00  0.00     0.002 A 
HETATM    7  C14 UNL     1      34.544   4.409  47.329  1.00  0.00     0.030 A 
HETATM    8  C15 UNL     1      33.518   5.250  47.694  1.00  0.00     0.046 A 
HETATM    9  N2  UNL     1      33.400   6.470  48.237  1.00  0.00    -0.344 N 
HETATM   10  C16 UNL     1      34.625   7.197  48.576  1.00  0.00     0.157 C 
ENDROOT
BRANCH   2  11
HETATM   11  C4  UNL     1      29.884   5.995  47.986  1.00  0.00     0.259 C 
HETATM   12  O1  UNL     1      29.329   6.703  47.102  1.00  0.00    -0.267 OA
HETATM   13  N1  UNL     1      28.864   5.565  48.844  1.00  0.00    -0.323 N 
HETATM   14  H4  UNL     1      29.206   4.967  49.620  1.00  0.00     0.169 HD
BRANCH  13  15
HETATM   15  C5  UNL     1      27.481   5.849  48.766  1.00  0.00     0.035 C 
HETATM   16  C6  UNL     1      26.366   5.151  48.881  1.00  0.00     0.030 C 
HETATM   17  C7  UNL     1      25.145   5.965  48.702  1.00  0.00     0.014 C 
HETATM   18  C8  UNL     1      25.680   7.086  48.246  1.00  0.00    -0.024 C 
HETATM   19  C9  UNL     1      26.951   7.203  48.496  1.00  0.00     0.042 C 
ENDBRANCH  13  15
ENDBRANCH   2  11
BRANCH   1  20
HETATM   20  S1  UNL     1      31.782   8.466  49.111  1.00  0.00    -0.116 SA
HETATM   21  C1  UNL     1      31.538   9.677  47.771  1.00  0.00     0.097 C 
ENDBRANCH   1  20
TORSDOF 3
ENDMDL
