MODEL 1
REMARK VINA RESULT:      -8.5      0.000      0.000
REMARK  6 active torsions:
REMARK  status: ('A' for Active; 'I' for Inactive)
REMARK    1  A    between atoms: N1_1  and  O1_2 
REMARK    2  A    between atoms: O1_2  and  C1_3 
REMARK    3  A    between atoms: C1_3  and  C2_4 
REMARK    4  A    between atoms: C3_5  and  C4_6 
REMARK       I    between atoms: C4_6  and  N2_8 
REMARK    5  A    between atoms: N2_8  and  C5_9 
REMARK    6  A    between atoms: C10_16  and  C11_17 
ROOT
HETATM    1  C5  UNL     1      23.904   3.054  52.269  1.00  0.00     0.050 C 
HETATM    2  C6  UNL     1      22.713   2.406  52.455  1.00  0.00     0.203 A 
HETATM    3  C7  UNL     1      21.235   2.664  52.317  1.00  0.00     0.018 A 
HETATM    4  C8  UNL     1      21.224   1.445  52.739  1.00  0.00     0.091 A 
HETATM    5  N3  UNL     1      22.595   1.241  52.851  1.00  0.00    -0.341 N 
HETATM    6  C9  UNL     1      23.121   0.084  53.139  1.00  0.00     0.210 C 
HETATM    7  N4  UNL     1      24.515   0.023  53.214  1.00  0.00    -0.247 NA
HETATM    8  C10 UNL     1      25.229   1.052  52.943  1.00  0.00     0.048 C 
HETATM    9  C17 UNL     1      25.227   2.470  52.507  1.00  0.00     0.088 C 
ENDROOT
BRANCH   1  10
HETATM   10  N2  UNL     1      24.382   4.410  51.815  1.00  0.00    -0.342 N 
HETATM   11  C4  UNL     1      24.579   4.829  50.485  1.00  0.00     0.296 C 
HETATM   12  O2  UNL     1      24.429   4.217  49.393  1.00  0.00    -0.258 OA
HETATM   13  H5  UNL     1      24.579   5.073  52.635  1.00  0.00     0.163 HD
BRANCH  11  14
HETATM   14  C3  UNL     1      25.026   6.191  50.324  1.00  0.00    -0.003 C 
HETATM   15  C2  UNL     1      25.417   7.334  50.198  1.00  0.00    -0.068 C 
BRANCH  15  16
HETATM   16  C1  UNL     1      25.894   8.722  50.048  1.00  0.00     0.287 C 
BRANCH  16  17
HETATM   17  O1  UNL     1      27.278   8.765  50.053  1.00  0.00    -0.296 OA
BRANCH  17  18
HETATM   18  N1  UNL     1      27.633   9.544  51.114  1.00  0.00    -0.214 NA
HETATM   19  H1  UNL     1      28.004  10.463  50.785  1.00  0.00     0.150 HD
HETATM   20  H2  UNL     1      26.814   9.709  51.752  1.00  0.00     0.150 HD
ENDBRANCH  17  18
ENDBRANCH  16  17
ENDBRANCH  15  16
ENDBRANCH  11  14
ENDBRANCH   1  10
BRANCH   8  21
HETATM   21  C11 UNL     1      26.635   0.609  53.127  1.00  0.00    -0.010 A 
HETATM   22  C12 UNL     1      27.659   1.495  53.464  1.00  0.00     0.016 A 
HETATM   23  C13 UNL     1      28.997   1.130  53.691  1.00  0.00     0.045 A 
HETATM   24  C14 UNL     1      29.317  -0.204  53.570  1.00  0.00     0.138 A 
HETATM   25  F1  UNL     1      30.595  -0.601  53.781  1.00  0.00    -0.204 F 
HETATM   26  C15 UNL     1      28.379  -1.141  53.240  1.00  0.00     0.073 A 
HETATM   27 CL1  UNL     1      28.744  -2.842  53.068  1.00  0.00    -0.081 Cl
HETATM   28  C16 UNL     1      27.114  -0.686  53.042  1.00  0.00     0.040 A 
ENDBRANCH   8  21
TORSDOF 6
ENDMDL
MODEL 2
REMARK VINA RESULT:      -8.4      4.001      7.142
REMARK  6 active torsions:
REMARK  status: ('A' for Active; 'I' for Inactive)
REMARK    1  A    between atoms: N1_1  and  O1_2 
REMARK    2  A    between atoms: O1_2  and  C1_3 
REMARK    3  A    between atoms: C1_3  and  C2_4 
REMARK    4  A    between atoms: C3_5  and  C4_6 
REMARK       I    between atoms: C4_6  and  N2_8 
REMARK    5  A    between atoms: N2_8  and  C5_9 
REMARK    6  A    between atoms: C10_16  and  C11_17 
ROOT
HETATM    1  C5  UNL     1      24.139   1.359  52.231  1.00  0.00     0.050 C 
HETATM    2  C6  UNL     1      22.832   1.272  52.628  1.00  0.00     0.203 A 
HETATM    3  C7  UNL     1      21.949   0.397  53.479  1.00  0.00     0.018 A 
HETATM    4  C8  UNL     1      21.092   1.273  53.072  1.00  0.00     0.091 A 
HETATM    5  N3  UNL     1      21.938   2.060  52.297  1.00  0.00    -0.341 N 
HETATM    6  C9  UNL     1      21.561   3.179  51.747  1.00  0.00     0.210 C 
HETATM    7  N4  UNL     1      22.519   3.870  50.999  1.00  0.00    -0.247 NA
HETATM    8  C10 UNL     1      23.724   3.441  50.924  1.00  0.00     0.048 C 
HETATM    9  C17 UNL     1      24.687   2.398  51.357  1.00  0.00     0.088 C 
ENDROOT
BRANCH   1  10
HETATM   10  N2  UNL     1      25.425   0.601  52.443  1.00  0.00    -0.342 N 
HETATM   11  C4  UNL     1      26.378   0.830  53.454  1.00  0.00     0.296 C 
HETATM   12  O2  UNL     1      26.411   1.681  54.384  1.00  0.00    -0.258 OA
HETATM   13  H5  UNL     1      25.573  -0.172  51.713  1.00  0.00     0.163 HD
BRANCH  11  14
HETATM   14  C3  UNL     1      27.517  -0.054  53.444  1.00  0.00    -0.003 C 
HETATM   15  C2  UNL     1      28.485  -0.787  53.446  1.00  0.00    -0.068 C 
BRANCH  15  16
HETATM   16  C1  UNL     1      29.663  -1.675  53.451  1.00  0.00     0.287 C 
BRANCH  16  17
HETATM   17  O1  UNL     1      29.297  -2.970  53.778  1.00  0.00    -0.296 OA
BRANCH  17  18
HETATM   18  N1  UNL     1      28.374  -3.354  52.851  1.00  0.00    -0.214 NA
HETATM   19  H1  UNL     1      28.596  -4.307  52.487  1.00  0.00     0.150 HD
HETATM   20  H2  UNL     1      27.406  -3.356  53.261  1.00  0.00     0.150 HD
ENDBRANCH  17  18
ENDBRANCH  16  17
ENDBRANCH  15  16
ENDBRANCH  11  14
ENDBRANCH   1  10
BRANCH   8  21
HETATM   21  C11 UNL     1      24.432   4.420  50.061  1.00  0.00    -0.010 A 
HETATM   22  C12 UNL     1      23.814   5.575  49.578  1.00  0.00     0.016 A 
HETATM   23  C13 UNL     1      24.443   6.557  48.794  1.00  0.00     0.045 A 
HETATM   24  C14 UNL     1      25.770   6.361  48.481  1.00  0.00     0.138 A 
HETATM   25  F1  UNL     1      26.417   7.282  47.727  1.00  0.00    -0.204 F 
HETATM   26  C15 UNL     1      26.454   5.257  48.908  1.00  0.00     0.073 A 
HETATM   27 CL1  UNL     1      28.135   4.965  48.526  1.00  0.00    -0.081 Cl
HETATM   28  C16 UNL     1      25.756   4.368  49.661  1.00  0.00     0.040 A 
ENDBRANCH   8  21
TORSDOF 6
ENDMDL
MODEL 3
REMARK VINA RESULT:      -8.4      2.268      2.569
REMARK  6 active torsions:
REMARK  status: ('A' for Active; 'I' for Inactive)
REMARK    1  A    between atoms: N1_1  and  O1_2 
REMARK    2  A    between atoms: O1_2  and  C1_3 
REMARK    3  A    between atoms: C1_3  and  C2_4 
REMARK    4  A    between atoms: C3_5  and  C4_6 
REMARK       I    between atoms: C4_6  and  N2_8 
REMARK    5  A    between atoms: N2_8  and  C5_9 
REMARK    6  A    between atoms: C10_16  and  C11_17 
ROOT
HETATM    1  C5  UNL     1      25.192   3.298  51.225  1.00  0.00     0.050 C 
HETATM    2  C6  UNL     1      23.879   3.416  51.591  1.00  0.00     0.203 A 
HETATM    3  C7  UNL     1      22.721   4.364  51.415  1.00  0.00     0.018 A 
HETATM    4  C8  UNL     1      22.169   3.449  52.138  1.00  0.00     0.091 A 
HETATM    5  N3  UNL     1      23.259   2.595  52.277  1.00  0.00    -0.341 N 
HETATM    6  C9  UNL     1      23.177   1.426  52.846  1.00  0.00     0.210 C 
HETATM    7  N4  UNL     1      24.352   0.671  52.911  1.00  0.00    -0.247 NA
HETATM    8  C10 UNL     1      25.433   1.097  52.372  1.00  0.00     0.048 C 
HETATM    9  C17 UNL     1      26.070   2.181  51.584  1.00  0.00     0.088 C 
ENDROOT
BRANCH   1  10
HETATM   10  N2  UNL     1      26.207   4.078  50.428  1.00  0.00    -0.342 N 
HETATM   11  C4  UNL     1      25.945   4.923  49.333  1.00  0.00     0.296 C 
HETATM   12  O2  UNL     1      24.863   5.223  48.758  1.00  0.00    -0.258 OA
HETATM   13  H5  UNL     1      27.210   3.927  50.777  1.00  0.00     0.163 HD
BRANCH  11  14
HETATM   14  C3  UNL     1      27.098   5.570  48.758  1.00  0.00    -0.003 C 
HETATM   15  C2  UNL     1      28.071   6.101  48.262  1.00  0.00    -0.068 C 
BRANCH  15  16
HETATM   16  C1  UNL     1      29.253   6.744  47.657  1.00  0.00     0.287 C 
BRANCH  16  17
HETATM   17  O1  UNL     1      30.189   7.058  48.628  1.00  0.00    -0.296 OA
BRANCH  17  18
HETATM   18  N1  UNL     1      30.485   5.890  49.266  1.00  0.00    -0.214 NA
HETATM   19  H1  UNL     1      31.517   5.797  49.397  1.00  0.00     0.150 HD
HETATM   20  H2  UNL     1      30.012   5.841  50.204  1.00  0.00     0.150 HD
ENDBRANCH  17  18
ENDBRANCH  16  17
ENDBRANCH  15  16
ENDBRANCH  11  14
ENDBRANCH   1  10
BRANCH   8  21
HETATM   21  C11 UNL     1      26.444   0.042  52.641  1.00  0.00    -0.010 A 
HETATM   22  C12 UNL     1      26.173  -1.315  52.461  1.00  0.00     0.016 A 
HETATM   23  C13 UNL     1      27.099  -2.354  52.658  1.00  0.00     0.045 A 
HETATM   24  C14 UNL     1      28.368  -2.000  53.062  1.00  0.00     0.138 A 
HETATM   25  F1  UNL     1      29.293  -2.969  53.264  1.00  0.00    -0.204 F 
HETATM   26  C15 UNL     1      28.720  -0.696  53.266  1.00  0.00     0.073 A 
HETATM   27 CL1  UNL     1      30.316  -0.205  53.786  1.00  0.00    -0.081 Cl
HETATM   28  C16 UNL     1      27.753   0.232  53.047  1.00  0.00     0.040 A 
ENDBRANCH   8  21
TORSDOF 6
ENDMDL
MODEL 4
REMARK VINA RESULT:      -8.3      1.381      1.695
REMARK  6 active torsions:
REMARK  status: ('A' for Active; 'I' for Inactive)
REMARK    1  A    between atoms: N1_1  and  O1_2 
REMARK    2  A    between atoms: O1_2  and  C1_3 
REMARK    3  A    between atoms: C1_3  and  C2_4 
REMARK    4  A    between atoms: C3_5  and  C4_6 
REMARK       I    between atoms: C4_6  and  N2_8 
REMARK    5  A    between atoms: N2_8  and  C5_9 
REMARK    6  A    between atoms: C10_16  and  C11_17 
ROOT
HETATM    1  C5  UNL     1      23.711   3.347  51.878  1.00  0.00     0.050 C 
HETATM    2  C6  UNL     1      22.411   2.999  52.124  1.00  0.00     0.203 A 
HETATM    3  C7  UNL     1      21.023   3.561  51.959  1.00  0.00     0.018 A 
HETATM    4  C8  UNL     1      20.753   2.421  52.500  1.00  0.00     0.091 A 
HETATM    5  N3  UNL     1      22.049   1.932  52.634  1.00  0.00    -0.341 N 
HETATM    6  C9  UNL     1      22.313   0.722  53.037  1.00  0.00     0.210 C 
HETATM    7  N4  UNL     1      23.662   0.363  53.120  1.00  0.00    -0.247 NA
HETATM    8  C10 UNL     1      24.578   1.178  52.750  1.00  0.00     0.048 C 
HETATM    9  C17 UNL     1      24.878   2.513  52.175  1.00  0.00     0.088 C 
ENDROOT
BRANCH   1  10
HETATM   10  N2  UNL     1      24.466   4.515  51.293  1.00  0.00    -0.342 N 
HETATM   11  C4  UNL     1      23.976   5.820  51.102  1.00  0.00     0.296 C 
HETATM   12  O2  UNL     1      22.846   6.325  51.345  1.00  0.00    -0.258 OA
HETATM   13  H5  UNL     1      25.467   4.256  51.007  1.00  0.00     0.163 HD
BRANCH  11  14
HETATM   14  C3  UNL     1      24.914   6.758  50.538  1.00  0.00    -0.003 C 
HETATM   15  C2  UNL     1      25.698   7.561  50.074  1.00  0.00    -0.068 C 
BRANCH  15  16
HETATM   16  C1  UNL     1      26.649   8.539  49.511  1.00  0.00     0.287 C 
BRANCH  16  17
HETATM   17  O1  UNL     1      26.661   9.699  50.268  1.00  0.00    -0.296 OA
BRANCH  17  18
HETATM   18  N1  UNL     1      27.668   9.556  51.175  1.00  0.00    -0.214 NA
HETATM   19  H1  UNL     1      28.496   9.099  50.732  1.00  0.00     0.150 HD
HETATM   20  H2  UNL     1      27.955  10.487  51.570  1.00  0.00     0.150 HD
ENDBRANCH  17  18
ENDBRANCH  16  17
ENDBRANCH  15  16
ENDBRANCH  11  14
ENDBRANCH   1  10
BRANCH   8  21
HETATM   21  C11 UNL     1      25.856   0.457  52.980  1.00  0.00    -0.010 A 
HETATM   22  C12 UNL     1      26.031  -0.883  52.630  1.00  0.00     0.016 A 
HETATM   23  C13 UNL     1      27.226  -1.606  52.784  1.00  0.00     0.045 A 
HETATM   24  C14 UNL     1      28.304  -0.938  53.322  1.00  0.00     0.138 A 
HETATM   25  F1  UNL     1      29.476  -1.596  53.488  1.00  0.00    -0.204 F 
HETATM   26  C15 UNL     1      28.222   0.374  53.696  1.00  0.00     0.073 A 
HETATM   27 CL1  UNL     1      29.562   1.257  54.390  1.00  0.00    -0.081 Cl
HETATM   28  C16 UNL     1      27.023   0.983  53.505  1.00  0.00     0.040 A 
ENDBRANCH   8  21
TORSDOF 6
ENDMDL
MODEL 5
REMARK VINA RESULT:      -8.0      3.474      5.413
REMARK  6 active torsions:
REMARK  status: ('A' for Active; 'I' for Inactive)
REMARK    1  A    between atoms: N1_1  and  O1_2 
REMARK    2  A    between atoms: O1_2  and  C1_3 
REMARK    3  A    between atoms: C1_3  and  C2_4 
REMARK    4  A    between atoms: C3_5  and  C4_6 
REMARK       I    between atoms: C4_6  and  N2_8 
REMARK    5  A    between atoms: N2_8  and  C5_9 
REMARK    6  A    between atoms: C10_16  and  C11_17 
ROOT
HETATM    1  C5  UNL     1      26.270   2.096  52.540  1.00  0.00     0.050 C 
HETATM    2  C6  UNL     1      27.235   1.434  53.248  1.00  0.00     0.203 A 
HETATM    3  C7  UNL     1      28.709   1.533  53.547  1.00  0.00     0.018 A 
HETATM    4  C8  UNL     1      28.403   0.475  54.218  1.00  0.00     0.091 A 
HETATM    5  N3  UNL     1      27.045   0.416  53.924  1.00  0.00    -0.341 N 
HETATM    6  C9  UNL     1      26.233  -0.440  54.479  1.00  0.00     0.210 C 
HETATM    7  N4  UNL     1      24.891  -0.381  54.093  1.00  0.00    -0.247 NA
HETATM    8  C10 UNL     1      24.484   0.521  53.280  1.00  0.00     0.048 C 
HETATM    9  C17 UNL     1      24.859   1.707  52.470  1.00  0.00     0.088 C 
ENDROOT
BRANCH   1  10
HETATM   10  N2  UNL     1      26.168   3.313  51.654  1.00  0.00    -0.342 N 
HETATM   11  C4  UNL     1      26.470   3.379  50.281  1.00  0.00     0.296 C 
HETATM   12  O2  UNL     1      26.889   2.499  49.481  1.00  0.00    -0.258 OA
HETATM   13  H5  UNL     1      25.832   4.182  52.186  1.00  0.00     0.163 HD
BRANCH  11  14
HETATM   14  C3  UNL     1      26.267   4.667  49.664  1.00  0.00    -0.003 C 
HETATM   15  C2  UNL     1      26.102   5.758  49.159  1.00  0.00    -0.068 C 
BRANCH  15  16
HETATM   16  C1  UNL     1      25.900   7.087  48.549  1.00  0.00     0.287 C 
BRANCH  16  17
HETATM   17  O1  UNL     1      26.841   7.987  49.019  1.00  0.00    -0.296 OA
BRANCH  17  18
HETATM   18  N1  UNL     1      26.673   8.048  50.370  1.00  0.00    -0.214 NA
HETATM   19  H1  UNL     1      27.465   7.573  50.858  1.00  0.00     0.150 HD
HETATM   20  H2  UNL     1      26.612   9.045  50.698  1.00  0.00     0.150 HD
ENDBRANCH  17  18
ENDBRANCH  16  17
ENDBRANCH  15  16
ENDBRANCH  11  14
ENDBRANCH   1  10
BRANCH   8  21
HETATM   21  C11 UNL     1      23.030   0.268  53.113  1.00  0.00    -0.010 A 
HETATM   22  C12 UNL     1      22.245  -0.273  54.133  1.00  0.00     0.016 A 
HETATM   23  C13 UNL     1      20.860  -0.496  54.050  1.00  0.00     0.045 A 
HETATM   24  C14 UNL     1      20.235  -0.155  52.871  1.00  0.00     0.138 A 
HETATM   25  F1  UNL     1      18.900  -0.353  52.746  1.00  0.00    -0.204 F 
HETATM   26  C15 UNL     1      20.926   0.377  51.819  1.00  0.00     0.073 A 
HETATM   27 CL1  UNL     1      20.174   0.816  50.302  1.00  0.00    -0.081 Cl
HETATM   28  C16 UNL     1      22.260   0.554  52.000  1.00  0.00     0.040 A 
ENDBRANCH   8  21
TORSDOF 6
ENDMDL
MODEL 6
REMARK VINA RESULT:      -8.0      4.409      7.481
REMARK  6 active torsions:
REMARK  status: ('A' for Active; 'I' for Inactive)
REMARK    1  A    between atoms: N1_1  and  O1_2 
REMARK    2  A    between atoms: O1_2  and  C1_3 
REMARK    3  A    between atoms: C1_3  and  C2_4 
REMARK    4  A    between atoms: C3_5  and  C4_6 
REMARK       I    between atoms: C4_6  and  N2_8 
REMARK    5  A    between atoms: N2_8  and  C5_9 
REMARK    6  A    between atoms: C10_16  and  C11_17 
ROOT
HETATM    1  C5  UNL     1      25.525   2.797  50.511  1.00  0.00     0.050 C 
HETATM    2  C6  UNL     1      24.174   2.951  50.351  1.00  0.00     0.203 A 
HETATM    3  C7  UNL     1      22.888   2.284  50.766  1.00  0.00     0.018 A 
HETATM    4  C8  UNL     1      22.430   3.266  50.065  1.00  0.00     0.091 A 
HETATM    5  N3  UNL     1      23.636   3.857  49.705  1.00  0.00    -0.341 N 
HETATM    6  C9  UNL     1      23.709   4.991  49.068  1.00  0.00     0.210 C 
HETATM    7  N4  UNL     1      24.989   5.471  48.775  1.00  0.00    -0.247 NA
HETATM    8  C10 UNL     1      26.030   4.844  49.179  1.00  0.00     0.048 C 
HETATM    9  C17 UNL     1      26.546   3.681  49.944  1.00  0.00     0.088 C 
ENDROOT
BRANCH   1  10
HETATM   10  N2  UNL     1      26.469   1.849  51.206  1.00  0.00    -0.342 N 
HETATM   11  C4  UNL     1      26.347   1.354  52.518  1.00  0.00     0.296 C 
HETATM   12  O2  UNL     1      25.476   1.566  53.406  1.00  0.00    -0.258 OA
HETATM   13  H5  UNL     1      27.299   1.567  50.588  1.00  0.00     0.163 HD
BRANCH  11  14
HETATM   14  C3  UNL     1      27.382   0.441  52.935  1.00  0.00    -0.003 C 
HETATM   15  C2  UNL     1      28.258  -0.330  53.270  1.00  0.00    -0.068 C 
BRANCH  15  16
HETATM   16  C1  UNL     1      29.322  -1.270  53.672  1.00  0.00     0.287 C 
BRANCH  16  17
HETATM   17  O1  UNL     1      29.374  -2.349  52.806  1.00  0.00    -0.296 OA
BRANCH  17  18
HETATM   18  N1  UNL     1      28.651  -3.346  53.391  1.00  0.00    -0.214 NA
HETATM   19  H1  UNL     1      27.742  -2.976  53.749  1.00  0.00     0.150 HD
HETATM   20  H2  UNL     1      28.464  -4.126  52.711  1.00  0.00     0.150 HD
ENDBRANCH  17  18
ENDBRANCH  16  17
ENDBRANCH  15  16
ENDBRANCH  11  14
ENDBRANCH   1  10
BRANCH   8  21
HETATM   21  C11 UNL     1      27.182   5.642  48.687  1.00  0.00    -0.010 A 
HETATM   22  C12 UNL     1      27.111   7.025  48.510  1.00  0.00     0.016 A 
HETATM   23  C13 UNL     1      28.176   7.839  48.088  1.00  0.00     0.045 A 
HETATM   24  C14 UNL     1      29.379   7.220  47.829  1.00  0.00     0.138 A 
HETATM   25  F1  UNL     1      30.434   7.966  47.419  1.00  0.00    -0.204 F 
HETATM   26  C15 UNL     1      29.538   5.870  47.971  1.00  0.00     0.073 A 
HETATM   27 CL1  UNL     1      31.044   5.044  47.645  1.00  0.00    -0.081 Cl
HETATM   28  C16 UNL     1      28.448   5.174  48.385  1.00  0.00     0.040 A 
ENDBRANCH   8  21
TORSDOF 6
ENDMDL
MODEL 7
REMARK VINA RESULT:      -7.9      1.670      1.971
REMARK  6 active torsions:
REMARK  status: ('A' for Active; 'I' for Inactive)
REMARK    1  A    between atoms: N1_1  and  O1_2 
REMARK    2  A    between atoms: O1_2  and  C1_3 
REMARK    3  A    between atoms: C1_3  and  C2_4 
REMARK    4  A    between atoms: C3_5  and  C4_6 
REMARK       I    between atoms: C4_6  and  N2_8 
REMARK    5  A    between atoms: N2_8  and  C5_9 
REMARK    6  A    between atoms: C10_16  and  C11_17 
ROOT
HETATM    1  C5  UNL     1      23.225   2.049  52.117  1.00  0.00     0.050 C 
HETATM    2  C6  UNL     1      22.107   1.324  52.427  1.00  0.00     0.203 A 
HETATM    3  C7  UNL     1      20.608   1.416  52.294  1.00  0.00     0.018 A 
HETATM    4  C8  UNL     1      20.724   0.276  52.889  1.00  0.00     0.091 A 
HETATM    5  N3  UNL     1      22.110   0.224  52.991  1.00  0.00    -0.341 N 
HETATM    6  C9  UNL     1      22.751  -0.823  53.429  1.00  0.00     0.210 C 
HETATM    7  N4  UNL     1      24.145  -0.738  53.473  1.00  0.00    -0.247 NA
HETATM    8  C10 UNL     1      24.750   0.304  53.037  1.00  0.00     0.048 C 
HETATM    9  C17 UNL     1      24.602   1.636  52.401  1.00  0.00     0.088 C 
ENDROOT
BRANCH   1  10
HETATM   10  N2  UNL     1      23.560   3.363  51.459  1.00  0.00    -0.342 N 
HETATM   11  C4  UNL     1      23.651   4.619  52.089  1.00  0.00     0.296 C 
HETATM   12  O2  UNL     1      23.477   4.957  53.292  1.00  0.00    -0.258 OA
HETATM   13  H5  UNL     1      23.728   3.265  50.403  1.00  0.00     0.163 HD
BRANCH  11  14
HETATM   14  C3  UNL     1      24.007   5.720  51.229  1.00  0.00    -0.003 C 
HETATM   15  C2  UNL     1      24.317   6.636  50.494  1.00  0.00    -0.068 C 
BRANCH  15  16
HETATM   16  C1  UNL     1      24.697   7.747  49.600  1.00  0.00     0.287 C 
BRANCH  16  17
HETATM   17  O1  UNL     1      25.369   8.732  50.304  1.00  0.00    -0.296 OA
BRANCH  17  18
HETATM   18  N1  UNL     1      26.603   8.226  50.588  1.00  0.00    -0.214 NA
HETATM   19  H1  UNL     1      26.528   7.447  51.279  1.00  0.00     0.150 HD
HETATM   20  H2  UNL     1      27.076   7.873  49.718  1.00  0.00     0.150 HD
ENDBRANCH  17  18
ENDBRANCH  16  17
ENDBRANCH  15  16
ENDBRANCH  11  14
ENDBRANCH   1  10
BRANCH   8  21
HETATM   21  C11 UNL     1      26.195   0.030  53.244  1.00  0.00    -0.010 A 
HETATM   22  C12 UNL     1      26.781  -1.189  52.900  1.00  0.00     0.016 A 
HETATM   23  C13 UNL     1      28.147  -1.492  53.034  1.00  0.00     0.045 A 
HETATM   24  C14 UNL     1      28.965  -0.508  53.544  1.00  0.00     0.138 A 
HETATM   25  F1  UNL     1      30.289  -0.756  53.689  1.00  0.00    -0.204 F 
HETATM   26  C15 UNL     1      28.476   0.714  53.910  1.00  0.00     0.073 A 
HETATM   27 CL1  UNL     1      29.478   1.987  54.570  1.00  0.00    -0.081 Cl
HETATM   28  C16 UNL     1      27.143   0.907  53.741  1.00  0.00     0.040 A 
ENDBRANCH   8  21
TORSDOF 6
ENDMDL
MODEL 8
REMARK VINA RESULT:      -7.8      3.205      4.378
REMARK  6 active torsions:
REMARK  status: ('A' for Active; 'I' for Inactive)
REMARK    1  A    between atoms: N1_1  and  O1_2 
REMARK    2  A    between atoms: O1_2  and  C1_3 
REMARK    3  A    between atoms: C1_3  and  C2_4 
REMARK    4  A    between atoms: C3_5  and  C4_6 
REMARK       I    between atoms: C4_6  and  N2_8 
REMARK    5  A    between atoms: N2_8  and  C5_9 
REMARK    6  A    between atoms: C10_16  and  C11_17 
ROOT
HETATM    1  C5  UNL     1      24.512   5.321  50.660  1.00  0.00     0.050 C 
HETATM    2  C6  UNL     1      23.347   6.038  50.684  1.00  0.00     0.203 A 
HETATM    3  C7  UNL     1      22.780   7.322  50.135  1.00  0.00     0.018 A 
HETATM    4  C8  UNL     1      21.764   6.878  50.796  1.00  0.00     0.091 A 
HETATM    5  N3  UNL     1      22.319   5.699  51.282  1.00  0.00    -0.341 N 
HETATM    6  C9  UNL     1      21.631   4.806  51.935  1.00  0.00     0.210 C 
HETATM    7  N4  UNL     1      22.317   3.665  52.360  1.00  0.00    -0.247 NA
HETATM    8  C10 UNL     1      23.550   3.493  52.056  1.00  0.00     0.048 C 
HETATM    9  C17 UNL     1      24.726   4.039  51.336  1.00  0.00     0.088 C 
ENDROOT
BRANCH   1  10
HETATM   10  N2  UNL     1      25.888   5.440  50.054  1.00  0.00    -0.342 N 
HETATM   11  C4  UNL     1      26.220   6.084  48.847  1.00  0.00     0.296 C 
HETATM   12  O2  UNL     1      25.502   6.685  48.003  1.00  0.00    -0.258 OA
HETATM   13  H5  UNL     1      26.642   4.959  50.646  1.00  0.00     0.163 HD
BRANCH  11  14
HETATM   14  C3  UNL     1      27.621   6.070  48.503  1.00  0.00    -0.003 C 
HETATM   15  C2  UNL     1      28.797   6.044  48.202  1.00  0.00    -0.068 C 
BRANCH  15  16
HETATM   16  C1  UNL     1      30.226   6.009  47.836  1.00  0.00     0.287 C 
BRANCH  16  17
HETATM   17  O1  UNL     1      30.910   5.101  48.626  1.00  0.00    -0.296 OA
BRANCH  17  18
HETATM   18  N1  UNL     1      31.023   5.673  49.858  1.00  0.00    -0.214 NA
HETATM   19  H1  UNL     1      32.023   5.879  50.075  1.00  0.00     0.150 HD
HETATM   20  H2  UNL     1      30.466   6.563  49.914  1.00  0.00     0.150 HD
ENDBRANCH  17  18
ENDBRANCH  16  17
ENDBRANCH  15  16
ENDBRANCH  11  14
ENDBRANCH   1  10
BRANCH   8  21
HETATM   21  C11 UNL     1      23.924   2.194  52.671  1.00  0.00    -0.010 A 
HETATM   22  C12 UNL     1      25.200   1.949  53.182  1.00  0.00     0.016 A 
HETATM   23  C13 UNL     1      25.600   0.758  53.811  1.00  0.00     0.045 A 
HETATM   24  C14 UNL     1      24.659  -0.241  53.929  1.00  0.00     0.138 A 
HETATM   25  F1  UNL     1      25.001  -1.407  54.529  1.00  0.00    -0.204 F 
HETATM   26  C15 UNL     1      23.387  -0.090  53.454  1.00  0.00     0.073 A 
HETATM   27 CL1  UNL     1      22.165  -1.335  53.576  1.00  0.00    -0.081 Cl
HETATM   28  C16 UNL     1      23.100   1.099  52.864  1.00  0.00     0.040 A 
ENDBRANCH   8  21
TORSDOF 6
ENDMDL
MODEL 9
REMARK VINA RESULT:      -7.7      2.892      3.563
REMARK  6 active torsions:
REMARK  status: ('A' for Active; 'I' for Inactive)
REMARK    1  A    between atoms: N1_1  and  O1_2 
REMARK    2  A    between atoms: O1_2  and  C1_3 
REMARK    3  A    between atoms: C1_3  and  C2_4 
REMARK    4  A    between atoms: C3_5  and  C4_6 
REMARK       I    between atoms: C4_6  and  N2_8 
REMARK    5  A    between atoms: N2_8  and  C5_9 
REMARK    6  A    between atoms: C10_16  and  C11_17 
ROOT
HETATM    1  C5  UNL     1      25.931   4.219  49.449  1.00  0.00     0.050 C 
HETATM    2  C6  UNL     1      24.568   4.300  49.356  1.00  0.00     0.203 A 
HETATM    3  C7  UNL     1      23.515   5.073  48.605  1.00  0.00     0.018 A 
HETATM    4  C8  UNL     1      22.773   4.306  49.330  1.00  0.00     0.091 A 
HETATM    5  N3  UNL     1      23.771   3.609  50.002  1.00  0.00    -0.341 N 
HETATM    6  C9  UNL     1      23.527   2.603  50.792  1.00  0.00     0.210 C 
HETATM    7  N4  UNL     1      24.629   1.992  51.399  1.00  0.00    -0.247 NA
HETATM    8  C10 UNL     1      25.820   2.377  51.127  1.00  0.00     0.048 C 
HETATM    9  C17 UNL     1      26.662   3.300  50.326  1.00  0.00     0.088 C 
ENDROOT
BRANCH   1  10
HETATM   10  N2  UNL     1      27.136   4.881  48.831  1.00  0.00    -0.342 N 
HETATM   11  C4  UNL     1      27.274   6.245  48.513  1.00  0.00     0.296 C 
HETATM   12  O2  UNL     1      26.474   7.210  48.641  1.00  0.00    -0.258 OA
HETATM   13  H5  UNL     1      27.931   4.187  48.634  1.00  0.00     0.163 HD
BRANCH  11  14
HETATM   14  C3  UNL     1      28.544   6.623  47.944  1.00  0.00    -0.003 C 
HETATM   15  C2  UNL     1      29.606   6.955  47.456  1.00  0.00    -0.068 C 
BRANCH  15  16
HETATM   16  C1  UNL     1      30.893   7.360  46.861  1.00  0.00     0.287 C 
BRANCH  16  17
HETATM   17  O1  UNL     1      31.943   7.042  47.706  1.00  0.00    -0.296 OA
BRANCH  17  18
HETATM   18  N1  UNL     1      31.900   7.943  48.728  1.00  0.00    -0.214 NA
HETATM   19  H1  UNL     1      31.657   7.466  49.625  1.00  0.00     0.150 HD
HETATM   20  H2  UNL     1      32.822   8.436  48.836  1.00  0.00     0.150 HD
ENDBRANCH  17  18
ENDBRANCH  16  17
ENDBRANCH  15  16
ENDBRANCH  11  14
ENDBRANCH   1  10
BRANCH   8  21
HETATM   21  C11 UNL     1      26.706   1.510  51.945  1.00  0.00    -0.010 A 
HETATM   22  C12 UNL     1      27.664   2.030  52.816  1.00  0.00     0.016 A 
HETATM   23  C13 UNL     1      28.500   1.263  53.645  1.00  0.00     0.045 A 
HETATM   24  C14 UNL     1      28.359  -0.106  53.591  1.00  0.00     0.138 A 
HETATM   25  F1  UNL     1      29.145  -0.885  54.373  1.00  0.00    -0.204 F 
HETATM   26  C15 UNL     1      27.449  -0.702  52.765  1.00  0.00     0.073 A 
HETATM   27 CL1  UNL     1      27.244  -2.436  52.659  1.00  0.00    -0.081 Cl
HETATM   28  C16 UNL     1      26.688   0.127  52.004  1.00  0.00     0.040 A 
ENDBRANCH   8  21
TORSDOF 6
ENDMDL
