MODEL 1
REMARK VINA RESULT:      -8.5      0.000      0.000
REMARK  7 active torsions:
REMARK  status: ('A' for Active; 'I' for Inactive)
REMARK    1  A    between atoms: O1_2  and  C2_3 
REMARK    2  A    between atoms: C6_9  and  N3_10 
REMARK    3  A    between atoms: N3_10  and  C7_11 
REMARK    4  A    between atoms: C15_20  and  C16_21 
REMARK    5  A    between atoms: C16_21  and  N4_22 
REMARK    6  A    between atoms: N4_22  and  C18_24 
REMARK    7  A    between atoms: C18_24  and  C20_26 
REMARK       I    between atoms: C20_26  and  N5_27 
ROOT
HETATM    1  C2  UNL     1      22.205   2.043  50.259  1.00  0.00     0.078 A 
HETATM    2  C3  UNL     1      23.151   2.764  49.564  1.00  0.00     0.070 A 
HETATM    3  C4  UNL     1      24.459   2.879  49.995  1.00  0.00     0.074 A 
HETATM    4  N1  UNL     1      25.419   3.572  49.342  1.00  0.00    -0.241 NA
HETATM    5  C5  UNL     1      26.683   3.632  49.830  1.00  0.00     0.236 A 
HETATM    6  N2  UNL     1      27.004   2.993  50.992  1.00  0.00    -0.224 NA
HETATM    7  C6  UNL     1      26.062   2.295  51.663  1.00  0.00     0.142 A 
HETATM    8  C13 UNL     1      24.773   2.228  51.172  1.00  0.00     0.039 A 
HETATM    9  C14 UNL     1      23.903   1.491  51.930  1.00  0.00     0.029 A 
HETATM   10  C15 UNL     1      22.605   1.411  51.446  1.00  0.00     0.004 A 
ENDROOT
BRANCH  10  11
HETATM   11  C16 UNL     1      21.538   0.653  52.125  1.00  0.00     0.314 C 
BRANCH  11  12
HETATM   12  N4  UNL     1      21.796   0.254  53.457  1.00  0.00     0.101 N 
HETATM   13  C17 UNL     1      20.702   0.682  54.315  1.00  0.00     0.311 C 
BRANCH  12  14
HETATM   14  C18 UNL     1      22.051  -1.122  53.701  1.00  0.00     0.309 C 
HETATM   15  C19 UNL     1      20.907  -1.902  54.286  1.00  0.00     0.053 C 
BRANCH  14  16
HETATM   16  C20 UNL     1      23.159  -1.186  54.698  1.00  0.00     0.248 C 
HETATM   17  N5  UNL     1      24.500  -0.759  54.701  1.00  0.00    -0.368 N 
HETATM   18  H21 UNL     1      25.060   0.122  54.899  1.00  0.00     0.159 HD
HETATM   19  H22 UNL     1      25.420  -1.217  54.490  1.00  0.00     0.159 HD
HETATM   20  O2  UNL     1      22.872  -1.732  55.789  1.00  0.00    -0.271 OA
ENDBRANCH  14  16
ENDBRANCH  12  14
ENDBRANCH  11  12
ENDBRANCH  10  11
BRANCH   1  21
HETATM   21  O1  UNL     1      20.896   1.938  49.809  1.00  0.00    -0.355 OA
HETATM   22  C1  UNL     1      20.587   2.384  48.516  1.00  0.00     0.210 C 
ENDBRANCH   1  21
BRANCH   7  23
HETATM   23  N3  UNL     1      26.589   1.705  52.838  1.00  0.00    -0.340 N 
HETATM   24  H6  UNL     1      26.129   2.183  53.615  1.00  0.00     0.167 HD
BRANCH  23  25
HETATM   25  C7  UNL     1      27.545   0.678  53.032  1.00  0.00     0.036 A 
HETATM   26  C8  UNL     1      28.807   0.900  53.536  1.00  0.00     0.029 A 
HETATM   27  C9  UNL     1      29.706  -0.123  53.711  1.00  0.00     0.005 A 
HETATM   28  C10 UNL     1      29.377  -1.434  53.383  1.00  0.00     0.042 A 
HETATM   29  C11 UNL     1      28.088  -1.628  52.872  1.00  0.00     0.118 A 
HETATM   30  F1  UNL     1      27.701  -2.902  52.530  1.00  0.00    -0.206 F 
HETATM   31  C12 UNL     1      27.182  -0.609  52.696  1.00  0.00     0.071 A 
ENDBRANCH  23  25
ENDBRANCH   7  23
TORSDOF 7
ENDMDL
MODEL 2
REMARK VINA RESULT:      -8.5      2.633      4.904
REMARK  7 active torsions:
REMARK  status: ('A' for Active; 'I' for Inactive)
REMARK    1  A    between atoms: O1_2  and  C2_3 
REMARK    2  A    between atoms: C6_9  and  N3_10 
REMARK    3  A    between atoms: N3_10  and  C7_11 
REMARK    4  A    between atoms: C15_20  and  C16_21 
REMARK    5  A    between atoms: C16_21  and  N4_22 
REMARK    6  A    between atoms: N4_22  and  C18_24 
REMARK    7  A    between atoms: C18_24  and  C20_26 
REMARK       I    between atoms: C20_26  and  N5_27 
ROOT
HETATM    1  C2  UNL     1      20.596  -0.175  53.085  1.00  0.00     0.078 A 
HETATM    2  C3  UNL     1      21.023  -0.772  54.251  1.00  0.00     0.070 A 
HETATM    3  C4  UNL     1      22.361  -0.900  54.572  1.00  0.00     0.074 A 
HETATM    4  N1  UNL     1      22.822  -1.474  55.706  1.00  0.00    -0.241 NA
HETATM    5  C5  UNL     1      24.154  -1.555  55.949  1.00  0.00     0.236 A 
HETATM    6  N2  UNL     1      25.050  -1.057  55.048  1.00  0.00    -0.224 NA
HETATM    7  C6  UNL     1      24.614  -0.479  53.909  1.00  0.00     0.142 A 
HETATM    8  C13 UNL     1      23.260  -0.392  53.653  1.00  0.00     0.039 A 
HETATM    9  C14 UNL     1      22.931   0.216  52.472  1.00  0.00     0.029 A 
HETATM   10  C15 UNL     1      21.573   0.315  52.205  1.00  0.00     0.004 A 
ENDROOT
BRANCH  10  11
HETATM   11  C16 UNL     1      21.036   0.947  50.986  1.00  0.00     0.314 C 
BRANCH  11  12
HETATM   12  N4  UNL     1      21.420   2.287  50.747  1.00  0.00     0.101 N 
HETATM   13  C17 UNL     1      20.976   2.692  49.422  1.00  0.00     0.311 C 
BRANCH  12  14
HETATM   14  C18 UNL     1      21.009   3.274  51.683  1.00  0.00     0.309 C 
HETATM   15  C19 UNL     1      19.875   4.156  51.243  1.00  0.00     0.053 C 
BRANCH  14  16
HETATM   16  C20 UNL     1      22.181   4.170  51.907  1.00  0.00     0.248 C 
HETATM   17  N5  UNL     1      22.324   5.536  52.215  1.00  0.00    -0.368 N 
HETATM   18  H21 UNL     1      22.327   6.168  53.069  1.00  0.00     0.159 HD
HETATM   19  H22 UNL     1      22.482   6.406  51.650  1.00  0.00     0.159 HD
HETATM   20  O2  UNL     1      23.304   3.624  51.810  1.00  0.00    -0.271 OA
ENDBRANCH  14  16
ENDBRANCH  12  14
ENDBRANCH  11  12
ENDBRANCH  10  11
BRANCH   1  21
HETATM   21  O1  UNL     1      19.247  -0.055  52.781  1.00  0.00    -0.355 OA
HETATM   22  C1  UNL     1      18.369  -1.070  53.188  1.00  0.00     0.210 C 
ENDBRANCH   1  21
BRANCH   7  23
HETATM   23  N3  UNL     1      25.691  -0.026  53.108  1.00  0.00    -0.340 N 
HETATM   24  H6  UNL     1      25.266   0.324  52.247  1.00  0.00     0.167 HD
BRANCH  23  25
HETATM   25  C7  UNL     1      27.090  -0.008  53.332  1.00  0.00     0.036 A 
HETATM   26  C8  UNL     1      27.913  -1.084  53.087  1.00  0.00     0.029 A 
HETATM   27  C9  UNL     1      29.265  -1.027  53.315  1.00  0.00     0.005 A 
HETATM   28  C10 UNL     1      29.864   0.128  53.807  1.00  0.00     0.042 A 
HETATM   29  C11 UNL     1      29.003   1.205  54.046  1.00  0.00     0.118 A 
HETATM   30  F1  UNL     1      29.533   2.377  54.531  1.00  0.00    -0.206 F 
HETATM   31  C12 UNL     1      27.648   1.156  53.819  1.00  0.00     0.071 A 
ENDBRANCH  23  25
ENDBRANCH   7  23
TORSDOF 7
ENDMDL
MODEL 3
REMARK VINA RESULT:      -8.4      3.011      5.869
REMARK  7 active torsions:
REMARK  status: ('A' for Active; 'I' for Inactive)
REMARK    1  A    between atoms: O1_2  and  C2_3 
REMARK    2  A    between atoms: C6_9  and  N3_10 
REMARK    3  A    between atoms: N3_10  and  C7_11 
REMARK    4  A    between atoms: C15_20  and  C16_21 
REMARK    5  A    between atoms: C16_21  and  N4_22 
REMARK    6  A    between atoms: N4_22  and  C18_24 
REMARK    7  A    between atoms: C18_24  and  C20_26 
REMARK       I    between atoms: C20_26  and  N5_27 
ROOT
HETATM    1  C2  UNL     1      22.644   0.050  53.012  1.00  0.00     0.078 A 
HETATM    2  C3  UNL     1      21.515   0.766  52.678  1.00  0.00     0.070 A 
HETATM    3  C4  UNL     1      21.565   2.097  52.306  1.00  0.00     0.074 A 
HETATM    4  N1  UNL     1      20.484   2.834  51.966  1.00  0.00    -0.241 NA
HETATM    5  C5  UNL     1      20.619   4.135  51.607  1.00  0.00     0.236 A 
HETATM    6  N2  UNL     1      21.852   4.720  51.586  1.00  0.00    -0.224 NA
HETATM    7  C6  UNL     1      22.946   4.004  51.921  1.00  0.00     0.142 A 
HETATM    8  C13 UNL     1      22.818   2.678  52.287  1.00  0.00     0.039 A 
HETATM    9  C14 UNL     1      23.992   2.049  52.602  1.00  0.00     0.029 A 
HETATM   10  C15 UNL     1      23.878   0.714  52.966  1.00  0.00     0.004 A 
ENDROOT
BRANCH  10  11
HETATM   11  C16 UNL     1      25.037  -0.122  53.328  1.00  0.00     0.314 C 
BRANCH  11  12
HETATM   12  N4  UNL     1      26.190   0.558  53.785  1.00  0.00     0.101 N 
HETATM   13  C17 UNL     1      26.472   0.172  55.159  1.00  0.00     0.311 C 
BRANCH  12  14
HETATM   14  C18 UNL     1      27.383   0.428  53.025  1.00  0.00     0.309 C 
HETATM   15  C19 UNL     1      28.347  -0.622  53.502  1.00  0.00     0.053 C 
BRANCH  14  16
HETATM   16  C20 UNL     1      28.099   1.733  53.118  1.00  0.00     0.248 C 
HETATM   17  N5  UNL     1      29.053   2.266  54.005  1.00  0.00    -0.368 N 
HETATM   18  H21 UNL     1      30.106   2.262  54.145  1.00  0.00     0.159 HD
HETATM   19  H22 UNL     1      29.007   2.873  54.859  1.00  0.00     0.159 HD
HETATM   20  O2  UNL     1      27.818   2.568  52.225  1.00  0.00    -0.271 OA
ENDBRANCH  14  16
ENDBRANCH  12  14
ENDBRANCH  11  12
ENDBRANCH  10  11
BRANCH   1  21
HETATM   21  O1  UNL     1      22.574  -1.286  53.381  1.00  0.00    -0.355 OA
HETATM   22  C1  UNL     1      21.761  -1.646  54.465  1.00  0.00     0.210 C 
ENDBRANCH   1  21
BRANCH   7  23
HETATM   23  N3  UNL     1      24.126   4.783  51.835  1.00  0.00    -0.340 N 
HETATM   24  H6  UNL     1      24.387   4.994  52.800  1.00  0.00     0.167 HD
BRANCH  23  25
HETATM   25  C7  UNL     1      24.875   5.240  50.723  1.00  0.00     0.036 A 
HETATM   26  C8  UNL     1      24.711   6.484  50.156  1.00  0.00     0.029 A 
HETATM   27  C9  UNL     1      25.458   6.892  49.079  1.00  0.00     0.005 A 
HETATM   28  C10 UNL     1      26.419   6.060  48.512  1.00  0.00     0.042 A 
HETATM   29  C11 UNL     1      26.563   4.802  49.110  1.00  0.00     0.118 A 
HETATM   30  F1  UNL     1      27.497   3.933  48.599  1.00  0.00    -0.206 F 
HETATM   31  C12 UNL     1      25.819   4.388  50.189  1.00  0.00     0.071 A 
ENDBRANCH  23  25
ENDBRANCH   7  23
TORSDOF 7
ENDMDL
MODEL 4
REMARK VINA RESULT:      -8.2      2.156      5.191
REMARK  7 active torsions:
REMARK  status: ('A' for Active; 'I' for Inactive)
REMARK    1  A    between atoms: O1_2  and  C2_3 
REMARK    2  A    between atoms: C6_9  and  N3_10 
REMARK    3  A    between atoms: N3_10  and  C7_11 
REMARK    4  A    between atoms: C15_20  and  C16_21 
REMARK    5  A    between atoms: C16_21  and  N4_22 
REMARK    6  A    between atoms: N4_22  and  C18_24 
REMARK    7  A    between atoms: C18_24  and  C20_26 
REMARK       I    between atoms: C20_26  and  N5_27 
ROOT
HETATM    1  C2  UNL     1      21.550   2.484  51.556  1.00  0.00     0.078 A 
HETATM    2  C3  UNL     1      21.038   1.815  52.647  1.00  0.00     0.070 A 
HETATM    3  C4  UNL     1      21.738   0.819  53.301  1.00  0.00     0.074 A 
HETATM    4  N1  UNL     1      21.276   0.143  54.376  1.00  0.00    -0.241 NA
HETATM    5  C5  UNL     1      22.029  -0.820  54.965  1.00  0.00     0.236 A 
HETATM    6  N2  UNL     1      23.267  -1.120  54.477  1.00  0.00    -0.224 NA
HETATM    7  C6  UNL     1      23.750  -0.458  53.404  1.00  0.00     0.142 A 
HETATM    8  C13 UNL     1      22.991   0.523  52.799  1.00  0.00     0.039 A 
HETATM    9  C14 UNL     1      23.580   1.131  51.723  1.00  0.00     0.029 A 
HETATM   10  C15 UNL     1      22.830   2.124  51.109  1.00  0.00     0.004 A 
ENDROOT
BRANCH  10  11
HETATM   11  C16 UNL     1      23.309   2.890  49.944  1.00  0.00     0.314 C 
BRANCH  11  12
HETATM   12  N4  UNL     1      24.241   3.921  50.205  1.00  0.00     0.101 N 
HETATM   13  C17 UNL     1      25.528   3.574  49.622  1.00  0.00     0.311 C 
BRANCH  12  14
HETATM   14  C18 UNL     1      23.903   5.240  49.801  1.00  0.00     0.309 C 
HETATM   15  C19 UNL     1      24.955   5.970  49.015  1.00  0.00     0.053 C 
BRANCH  14  16
HETATM   16  C20 UNL     1      23.682   6.030  51.048  1.00  0.00     0.248 C 
HETATM   17  N5  UNL     1      24.514   6.808  51.874  1.00  0.00    -0.368 N 
HETATM   18  H21 UNL     1      24.891   7.801  51.924  1.00  0.00     0.159 HD
HETATM   19  H22 UNL     1      25.054   6.629  52.756  1.00  0.00     0.159 HD
HETATM   20  O2  UNL     1      22.509   6.024  51.489  1.00  0.00    -0.271 OA
ENDBRANCH  14  16
ENDBRANCH  12  14
ENDBRANCH  11  12
ENDBRANCH  10  11
BRANCH   1  21
HETATM   21  O1  UNL     1      20.832   3.483  50.913  1.00  0.00    -0.355 OA
HETATM   22  C1  UNL     1      19.608   3.894  51.459  1.00  0.00     0.210 C 
ENDBRANCH   1  21
BRANCH   7  23
HETATM   23  N3  UNL     1      25.046  -0.910  53.053  1.00  0.00    -0.340 N 
HETATM   24  H6  UNL     1      24.907  -1.585  52.298  1.00  0.00     0.167 HD
BRANCH  23  25
HETATM   25  C7  UNL     1      26.329  -0.583  53.557  1.00  0.00     0.036 A 
HETATM   26  C8  UNL     1      26.533   0.280  54.610  1.00  0.00     0.029 A 
HETATM   27  C9  UNL     1      27.793   0.572  55.072  1.00  0.00     0.005 A 
HETATM   28  C10 UNL     1      28.922   0.004  54.491  1.00  0.00     0.042 A 
HETATM   29  C11 UNL     1      28.682  -0.869  53.423  1.00  0.00     0.118 A 
HETATM   30  F1  UNL     1      29.757  -1.464  52.806  1.00  0.00    -0.206 F 
HETATM   31  C12 UNL     1      27.424  -1.166  52.956  1.00  0.00     0.071 A 
ENDBRANCH  23  25
ENDBRANCH   7  23
TORSDOF 7
ENDMDL
MODEL 5
REMARK VINA RESULT:      -8.1      2.163      5.109
REMARK  7 active torsions:
REMARK  status: ('A' for Active; 'I' for Inactive)
REMARK    1  A    between atoms: O1_2  and  C2_3 
REMARK    2  A    between atoms: C6_9  and  N3_10 
REMARK    3  A    between atoms: N3_10  and  C7_11 
REMARK    4  A    between atoms: C15_20  and  C16_21 
REMARK    5  A    between atoms: C16_21  and  N4_22 
REMARK    6  A    between atoms: N4_22  and  C18_24 
REMARK    7  A    between atoms: C18_24  and  C20_26 
REMARK       I    between atoms: C20_26  and  N5_27 
ROOT
HETATM    1  C2  UNL     1      22.551   2.133  49.970  1.00  0.00     0.078 A 
HETATM    2  C3  UNL     1      21.968   1.174  50.770  1.00  0.00     0.070 A 
HETATM    3  C4  UNL     1      22.612   0.632  51.866  1.00  0.00     0.074 A 
HETATM    4  N1  UNL     1      22.074  -0.306  52.678  1.00  0.00    -0.241 NA
HETATM    5  C5  UNL     1      22.771  -0.784  53.740  1.00  0.00     0.236 A 
HETATM    6  N2  UNL     1      24.029  -0.324  54.002  1.00  0.00    -0.224 NA
HETATM    7  C6  UNL     1      24.586   0.612  53.205  1.00  0.00     0.142 A 
HETATM    8  C13 UNL     1      23.884   1.105  52.123  1.00  0.00     0.039 A 
HETATM    9  C14 UNL     1      24.544   2.052  51.387  1.00  0.00     0.029 A 
HETATM   10  C15 UNL     1      23.847   2.560  50.300  1.00  0.00     0.004 A 
ENDROOT
BRANCH  10  11
HETATM   11  C16 UNL     1      24.397   3.593  49.402  1.00  0.00     0.314 C 
BRANCH  11  12
HETATM   12  N4  UNL     1      24.715   4.838  49.992  1.00  0.00     0.101 N 
HETATM   13  C17 UNL     1      25.952   5.346  49.419  1.00  0.00     0.311 C 
BRANCH  12  14
HETATM   14  C18 UNL     1      23.737   5.867  49.940  1.00  0.00     0.309 C 
HETATM   15  C19 UNL     1      23.754   6.720  48.703  1.00  0.00     0.053 C 
BRANCH  14  16
HETATM   16  C20 UNL     1      24.011   6.781  51.088  1.00  0.00     0.248 C 
HETATM   17  N5  UNL     1      24.353   6.582  52.438  1.00  0.00    -0.368 N 
HETATM   18  H21 UNL     1      25.220   6.415  53.028  1.00  0.00     0.159 HD
HETATM   19  H22 UNL     1      23.812   6.535  53.336  1.00  0.00     0.159 HD
HETATM   20  O2  UNL     1      23.931   8.005  50.832  1.00  0.00    -0.271 OA
ENDBRANCH  14  16
ENDBRANCH  12  14
ENDBRANCH  11  12
ENDBRANCH  10  11
BRANCH   1  21
HETATM   21  O1  UNL     1      21.889   2.667  48.874  1.00  0.00    -0.355 OA
HETATM   22  C1  UNL     1      20.637   2.143  48.519  1.00  0.00     0.210 C 
ENDBRANCH   1  21
BRANCH   7  23
HETATM   23  N3  UNL     1      25.889   0.959  53.640  1.00  0.00    -0.340 N 
HETATM   24  H6  UNL     1      25.800   1.884  54.066  1.00  0.00     0.167 HD
BRANCH  23  25
HETATM   25  C7  UNL     1      27.125   0.271  53.562  1.00  0.00     0.036 A 
HETATM   26  C8  UNL     1      28.336   0.847  53.870  1.00  0.00     0.029 A 
HETATM   27  C9  UNL     1      29.514   0.146  53.783  1.00  0.00     0.005 A 
HETATM   28  C10 UNL     1      29.531  -1.184  53.377  1.00  0.00     0.042 A 
HETATM   29  C11 UNL     1      28.284  -1.743  53.070  1.00  0.00     0.118 A 
HETATM   30  F1  UNL     1      28.233  -3.055  52.664  1.00  0.00    -0.206 F 
HETATM   31  C12 UNL     1      27.102  -1.047  53.156  1.00  0.00     0.071 A 
ENDBRANCH  23  25
ENDBRANCH   7  23
TORSDOF 7
ENDMDL
MODEL 6
REMARK VINA RESULT:      -7.9      2.353      5.315
REMARK  7 active torsions:
REMARK  status: ('A' for Active; 'I' for Inactive)
REMARK    1  A    between atoms: O1_2  and  C2_3 
REMARK    2  A    between atoms: C6_9  and  N3_10 
REMARK    3  A    between atoms: N3_10  and  C7_11 
REMARK    4  A    between atoms: C15_20  and  C16_21 
REMARK    5  A    between atoms: C16_21  and  N4_22 
REMARK    6  A    between atoms: N4_22  and  C18_24 
REMARK    7  A    between atoms: C18_24  and  C20_26 
REMARK       I    between atoms: C20_26  and  N5_27 
ROOT
HETATM    1  C2  UNL     1      21.983   3.745  51.849  1.00  0.00     0.078 A 
HETATM    2  C3  UNL     1      21.543   2.613  52.500  1.00  0.00     0.070 A 
HETATM    3  C4  UNL     1      22.366   1.529  52.740  1.00  0.00     0.074 A 
HETATM    4  N1  UNL     1      21.977   0.403  53.379  1.00  0.00    -0.241 NA
HETATM    5  C5  UNL     1      22.849  -0.616  53.580  1.00  0.00     0.236 A 
HETATM    6  N2  UNL     1      24.137  -0.518  53.138  1.00  0.00    -0.224 NA
HETATM    7  C6  UNL     1      24.549   0.597  52.497  1.00  0.00     0.142 A 
HETATM    8  C13 UNL     1      23.667   1.639  52.289  1.00  0.00     0.039 A 
HETATM    9  C14 UNL     1      24.193   2.720  51.634  1.00  0.00     0.029 A 
HETATM   10  C15 UNL     1      23.319   3.777  51.422  1.00  0.00     0.004 A 
ENDROOT
BRANCH  10  11
HETATM   11  C16 UNL     1      23.715   5.024  50.742  1.00  0.00     0.314 C 
BRANCH  11  12
HETATM   12  N4  UNL     1      24.470   4.885  49.555  1.00  0.00     0.101 N 
HETATM   13  C17 UNL     1      23.711   5.411  48.431  1.00  0.00     0.311 C 
BRANCH  12  14
HETATM   14  C18 UNL     1      25.773   5.450  49.526  1.00  0.00     0.309 C 
HETATM   15  C19 UNL     1      26.019   6.462  48.443  1.00  0.00     0.053 C 
BRANCH  14  16
HETATM   16  C20 UNL     1      26.725   4.327  49.280  1.00  0.00     0.248 C 
HETATM   17  N5  UNL     1      26.662   2.933  49.458  1.00  0.00    -0.368 N 
HETATM   18  H21 UNL     1      26.315   2.074  48.937  1.00  0.00     0.159 HD
HETATM   19  H22 UNL     1      26.959   2.272  50.217  1.00  0.00     0.159 HD
HETATM   20  O2  UNL     1      27.839   4.658  48.811  1.00  0.00    -0.271 OA
ENDBRANCH  14  16
ENDBRANCH  12  14
ENDBRANCH  11  12
ENDBRANCH  10  11
BRANCH   1  21
HETATM   21  O1  UNL     1      21.141   4.824  51.617  1.00  0.00    -0.355 OA
HETATM   22  C1  UNL     1      20.064   4.664  50.735  1.00  0.00     0.210 C 
ENDBRANCH   1  21
BRANCH   7  23
HETATM   23  N3  UNL     1      25.911   0.507  52.120  1.00  0.00    -0.340 N 
HETATM   24  H6  UNL     1      25.909   0.138  51.167  1.00  0.00     0.167 HD
BRANCH  23  25
HETATM   25  C7  UNL     1      27.105   0.824  52.814  1.00  0.00     0.036 A 
HETATM   26  C8  UNL     1      27.487   2.111  53.119  1.00  0.00     0.029 A 
HETATM   27  C9  UNL     1      28.652   2.378  53.796  1.00  0.00     0.005 A 
HETATM   28  C10 UNL     1      29.500   1.352  54.201  1.00  0.00     0.042 A 
HETATM   29  C11 UNL     1      29.085   0.056  53.876  1.00  0.00     0.118 A 
HETATM   30  F1  UNL     1      29.878  -1.003  54.251  1.00  0.00    -0.206 F 
HETATM   31  C12 UNL     1      27.920  -0.219  53.200  1.00  0.00     0.071 A 
ENDBRANCH  23  25
ENDBRANCH   7  23
TORSDOF 7
ENDMDL
MODEL 7
REMARK VINA RESULT:      -7.8      1.445      1.986
REMARK  7 active torsions:
REMARK  status: ('A' for Active; 'I' for Inactive)
REMARK    1  A    between atoms: O1_2  and  C2_3 
REMARK    2  A    between atoms: C6_9  and  N3_10 
REMARK    3  A    between atoms: N3_10  and  C7_11 
REMARK    4  A    between atoms: C15_20  and  C16_21 
REMARK    5  A    between atoms: C16_21  and  N4_22 
REMARK    6  A    between atoms: N4_22  and  C18_24 
REMARK    7  A    between atoms: C18_24  and  C20_26 
REMARK       I    between atoms: C20_26  and  N5_27 
ROOT
HETATM    1  C2  UNL     1      22.131   2.525  50.951  1.00  0.00     0.078 A 
HETATM    2  C3  UNL     1      22.974   3.058  49.999  1.00  0.00     0.070 A 
HETATM    3  C4  UNL     1      24.343   3.124  50.175  1.00  0.00     0.074 A 
HETATM    4  N1  UNL     1      25.204   3.633  49.265  1.00  0.00    -0.241 NA
HETATM    5  C5  UNL     1      26.538   3.656  49.512  1.00  0.00     0.236 A 
HETATM    6  N2  UNL     1      27.030   3.165  50.687  1.00  0.00    -0.224 NA
HETATM    7  C6  UNL     1      26.189   2.651  51.610  1.00  0.00     0.142 A 
HETATM    8  C13 UNL     1      24.830   2.623  51.367  1.00  0.00     0.039 A 
HETATM    9  C14 UNL     1      24.074   2.078  52.369  1.00  0.00     0.029 A 
HETATM   10  C15 UNL     1      22.706   2.038  52.134  1.00  0.00     0.004 A 
ENDROOT
BRANCH  10  11
HETATM   11  C16 UNL     1      21.741   1.477  53.098  1.00  0.00     0.314 C 
BRANCH  11  12
HETATM   12  N4  UNL     1      21.397   0.116  52.929  1.00  0.00     0.101 N 
HETATM   13  C17 UNL     1      22.579  -0.711  53.117  1.00  0.00     0.311 C 
BRANCH  12  14
HETATM   14  C18 UNL     1      20.346  -0.408  53.728  1.00  0.00     0.309 C 
HETATM   15  C19 UNL     1      20.573  -1.789  54.277  1.00  0.00     0.053 C 
BRANCH  14  16
HETATM   16  C20 UNL     1      19.140  -0.494  52.853  1.00  0.00     0.248 C 
HETATM   17  N5  UNL     1      18.832  -0.026  51.562  1.00  0.00    -0.368 N 
HETATM   18  H21 UNL     1      18.955  -0.328  50.551  1.00  0.00     0.159 HD
HETATM   19  H22 UNL     1      18.352   0.825  51.181  1.00  0.00     0.159 HD
HETATM   20  O2  UNL     1      18.164  -1.112  53.339  1.00  0.00    -0.271 OA
ENDBRANCH  14  16
ENDBRANCH  12  14
ENDBRANCH  11  12
ENDBRANCH  10  11
BRANCH   1  21
HETATM   21  O1  UNL     1      20.758   2.467  50.756  1.00  0.00    -0.355 OA
HETATM   22  C1  UNL     1      20.251   2.654  49.463  1.00  0.00     0.210 C 
ENDBRANCH   1  21
BRANCH   7  23
HETATM   23  N3  UNL     1      26.888   2.194  52.754  1.00  0.00    -0.340 N 
HETATM   24  H6  UNL     1      26.731   2.902  53.474  1.00  0.00     0.167 HD
BRANCH  23  25
HETATM   25  C7  UNL     1      27.669   1.034  52.981  1.00  0.00     0.036 A 
HETATM   26  C8  UNL     1      28.962   1.070  53.455  1.00  0.00     0.029 A 
HETATM   27  C9  UNL     1      29.687  -0.077  53.663  1.00  0.00     0.005 A 
HETATM   28  C10 UNL     1      29.143  -1.330  53.403  1.00  0.00     0.042 A 
HETATM   29  C11 UNL     1      27.828  -1.335  52.922  1.00  0.00     0.118 A 
HETATM   30  F1  UNL     1      27.232  -2.542  52.647  1.00  0.00    -0.206 F 
HETATM   31  C12 UNL     1      27.096  -0.191  52.712  1.00  0.00     0.071 A 
ENDBRANCH  23  25
ENDBRANCH   7  23
TORSDOF 7
ENDMDL
MODEL 8
REMARK VINA RESULT:      -7.8      2.883      5.392
REMARK  7 active torsions:
REMARK  status: ('A' for Active; 'I' for Inactive)
REMARK    1  A    between atoms: O1_2  and  C2_3 
REMARK    2  A    between atoms: C6_9  and  N3_10 
REMARK    3  A    between atoms: N3_10  and  C7_11 
REMARK    4  A    between atoms: C15_20  and  C16_21 
REMARK    5  A    between atoms: C16_21  and  N4_22 
REMARK    6  A    between atoms: N4_22  and  C18_24 
REMARK    7  A    between atoms: C18_24  and  C20_26 
REMARK       I    between atoms: C20_26  and  N5_27 
ROOT
HETATM    1  C2  UNL     1      20.773   3.107  52.342  1.00  0.00     0.078 A 
HETATM    2  C3  UNL     1      20.782   1.783  52.724  1.00  0.00     0.070 A 
HETATM    3  C4  UNL     1      21.953   1.070  52.901  1.00  0.00     0.074 A 
HETATM    4  N1  UNL     1      22.006  -0.227  53.280  1.00  0.00    -0.241 NA
HETATM    5  C5  UNL     1      23.199  -0.854  53.437  1.00  0.00     0.236 A 
HETATM    6  N2  UNL     1      24.365  -0.181  53.212  1.00  0.00    -0.224 NA
HETATM    7  C6  UNL     1      24.338   1.114  52.833  1.00  0.00     0.142 A 
HETATM    8  C13 UNL     1      23.128   1.760  52.672  1.00  0.00     0.039 A 
HETATM    9  C14 UNL     1      23.218   3.072  52.290  1.00  0.00     0.029 A 
HETATM   10  C15 UNL     1      22.009   3.735  52.130  1.00  0.00     0.004 A 
ENDROOT
BRANCH  10  11
HETATM   11  C16 UNL     1      21.916   5.152  51.732  1.00  0.00     0.314 C 
BRANCH  11  12
HETATM   12  N4  UNL     1      22.742   5.563  50.661  1.00  0.00     0.101 N 
HETATM   13  C17 UNL     1      21.986   5.522  49.419  1.00  0.00     0.311 C 
BRANCH  12  14
HETATM   14  C18 UNL     1      23.378   6.830  50.762  1.00  0.00     0.309 C 
HETATM   15  C19 UNL     1      23.040   7.816  49.680  1.00  0.00     0.053 C 
BRANCH  14  16
HETATM   16  C20 UNL     1      24.847   6.583  50.665  1.00  0.00     0.248 C 
HETATM   17  N5  UNL     1      25.988   7.388  50.835  1.00  0.00    -0.368 N 
HETATM   18  H21 UNL     1      26.616   7.731  51.621  1.00  0.00     0.159 HD
HETATM   19  H22 UNL     1      26.609   7.935  50.189  1.00  0.00     0.159 HD
HETATM   20  O2  UNL     1      25.178   5.411  50.369  1.00  0.00    -0.271 OA
ENDBRANCH  14  16
ENDBRANCH  12  14
ENDBRANCH  11  12
ENDBRANCH  10  11
BRANCH   1  21
HETATM   21  O1  UNL     1      19.586   3.806  52.171  1.00  0.00    -0.355 OA
HETATM   22  C1  UNL     1      18.514   3.171  51.530  1.00  0.00     0.210 C 
ENDBRANCH   1  21
BRANCH   7  23
HETATM   23  N3  UNL     1      25.643   1.633  52.653  1.00  0.00    -0.340 N 
HETATM   24  H6  UNL     1      25.523   2.506  52.136  1.00  0.00     0.167 HD
BRANCH  23  25
HETATM   25  C7  UNL     1      26.914   1.147  53.047  1.00  0.00     0.036 A 
HETATM   26  C8  UNL     1      27.345  -0.138  52.805  1.00  0.00     0.029 A 
HETATM   27  C9  UNL     1      28.586  -0.571  53.202  1.00  0.00     0.005 A 
HETATM   28  C10 UNL     1      29.465   0.275  53.870  1.00  0.00     0.042 A 
HETATM   29  C11 UNL     1      28.999   1.575  54.102  1.00  0.00     0.118 A 
HETATM   30  F1  UNL     1      29.821   2.462  54.756  1.00  0.00    -0.206 F 
HETATM   31  C12 UNL     1      27.758   2.016  53.706  1.00  0.00     0.071 A 
ENDBRANCH  23  25
ENDBRANCH   7  23
TORSDOF 7
ENDMDL
MODEL 9
REMARK VINA RESULT:      -7.7      3.238      6.484
REMARK  7 active torsions:
REMARK  status: ('A' for Active; 'I' for Inactive)
REMARK    1  A    between atoms: O1_2  and  C2_3 
REMARK    2  A    between atoms: C6_9  and  N3_10 
REMARK    3  A    between atoms: N3_10  and  C7_11 
REMARK    4  A    between atoms: C15_20  and  C16_21 
REMARK    5  A    between atoms: C16_21  and  N4_22 
REMARK    6  A    between atoms: N4_22  and  C18_24 
REMARK    7  A    between atoms: C18_24  and  C20_26 
REMARK       I    between atoms: C20_26  and  N5_27 
ROOT
HETATM    1  C2  UNL     1      23.842  -0.009  53.451  1.00  0.00     0.078 A 
HETATM    2  C3  UNL     1      22.682  -0.169  52.724  1.00  0.00     0.070 A 
HETATM    3  C4  UNL     1      22.360   0.645  51.655  1.00  0.00     0.074 A 
HETATM    4  N1  UNL     1      21.236   0.519  50.913  1.00  0.00    -0.241 NA
HETATM    5  C5  UNL     1      20.995   1.357  49.874  1.00  0.00     0.236 A 
HETATM    6  N2  UNL     1      21.886   2.343  49.563  1.00  0.00    -0.224 NA
HETATM    7  C6  UNL     1      23.015   2.489  50.290  1.00  0.00     0.142 A 
HETATM    8  C13 UNL     1      23.268   1.639  51.349  1.00  0.00     0.039 A 
HETATM    9  C14 UNL     1      24.442   1.875  52.011  1.00  0.00     0.029 A 
HETATM   10  C15 UNL     1      24.712   1.025  53.075  1.00  0.00     0.004 A 
ENDROOT
BRANCH  10  11
HETATM   11  C16 UNL     1      25.933   1.126  53.895  1.00  0.00     0.314 C 
BRANCH  11  12
HETATM   12  N4  UNL     1      27.153   0.801  53.257  1.00  0.00     0.101 N 
HETATM   13  C17 UNL     1      27.941   2.009  53.070  1.00  0.00     0.311 C 
BRANCH  12  14
HETATM   14  C18 UNL     1      27.976  -0.188  53.859  1.00  0.00     0.309 C 
HETATM   15  C19 UNL     1      29.456   0.061  53.780  1.00  0.00     0.053 C 
BRANCH  14  16
HETATM   16  C20 UNL     1      27.721  -1.464  53.130  1.00  0.00     0.248 C 
HETATM   17  N5  UNL     1      26.698  -1.918  52.278  1.00  0.00    -0.368 N 
HETATM   18  H21 UNL     1      26.435  -1.875  51.249  1.00  0.00     0.159 HD
HETATM   19  H22 UNL     1      25.820  -2.477  52.412  1.00  0.00     0.159 HD
HETATM   20  O2  UNL     1      28.590  -2.355  53.284  1.00  0.00    -0.271 OA
ENDBRANCH  14  16
ENDBRANCH  12  14
ENDBRANCH  11  12
ENDBRANCH  10  11
BRANCH   1  21
HETATM   21  O1  UNL     1      24.149  -0.837  54.521  1.00  0.00    -0.355 OA
HETATM   22  C1  UNL     1      23.105  -1.332  55.315  1.00  0.00     0.210 C 
ENDBRANCH   1  21
BRANCH   7  23
HETATM   23  N3  UNL     1      23.808   3.561  49.812  1.00  0.00    -0.340 N 
HETATM   24  H6  UNL     1      24.440   3.150  49.123  1.00  0.00     0.167 HD
BRANCH  23  25
HETATM   25  C7  UNL     1      23.823   4.940  50.137  1.00  0.00     0.036 A 
HETATM   26  C8  UNL     1      22.691   5.662  50.440  1.00  0.00     0.029 A 
HETATM   27  C9  UNL     1      22.747   6.998  50.751  1.00  0.00     0.005 A 
HETATM   28  C10 UNL     1      23.958   7.682  50.773  1.00  0.00     0.042 A 
HETATM   29  C11 UNL     1      25.091   6.922  50.461  1.00  0.00     0.118 A 
HETATM   30  F1  UNL     1      26.320   7.539  50.467  1.00  0.00    -0.206 F 
HETATM   31  C12 UNL     1      25.043   5.584  50.149  1.00  0.00     0.071 A 
ENDBRANCH  23  25
ENDBRANCH   7  23
TORSDOF 7
ENDMDL
