MODEL 1
REMARK VINA RESULT:      -9.1      0.000      0.000
REMARK  3 active torsions:
REMARK  status: ('A' for Active; 'I' for Inactive)
REMARK    1  A    between atoms: N1_1  and  C1_2 
REMARK    2  A    between atoms: C2_4  and  N3_5 
REMARK    3  A    between atoms: N3_5  and  C3_6 
ROOT
HETATM    1  C1  UNL     1      30.313   8.889  49.415  1.00  0.00     0.724 A 
HETATM    2  N2  UNL     1      29.145   8.440  48.931  1.00  0.00    -0.044 NA
HETATM    3  C2  UNL     1      29.137   7.279  48.214  1.00  0.00     0.161 A 
HETATM    4  C11 UNL     1      30.318   6.623  48.018  1.00  0.00     0.059 A 
HETATM    5  C12 UNL     1      30.680   5.451  47.355  1.00  0.00     0.044 A 
HETATM    6  C13 UNL     1      32.076   5.168  47.426  1.00  0.00     0.014 A 
HETATM    7  N5  UNL     1      32.583   6.203  48.156  1.00  0.00    -0.334 N 
HETATM    8  C14 UNL     1      31.534   7.041  48.490  1.00  0.00     0.163 A 
HETATM    9  N6  UNL     1      31.417   8.205  49.187  1.00  0.00    -0.044 NA
HETATM   10  C15 UNL     1      33.910   6.591  48.609  1.00  0.00     0.134 C 
HETATM   11  C16 UNL     1      34.759   5.500  49.153  1.00  0.00     0.047 C 
HETATM   12  C17 UNL     1      35.024   4.501  48.113  1.00  0.00    -0.029 C 
HETATM   13  C18 UNL     1      34.557   4.803  46.914  1.00  0.00    -0.031 C 
HETATM   14  C19 UNL     1      34.491   4.238  45.566  1.00  0.00     0.027 C 
HETATM   15  C20 UNL     1      32.971   4.142  45.299  1.00  0.00     0.010 C 
HETATM   16  C21 UNL     1      32.361   3.902  46.680  1.00  0.00     0.057 C 
ENDROOT
BRANCH   3  17
HETATM   17  N3  UNL     1      27.930   6.798  47.708  1.00  0.00    -0.342 N 
HETATM   18  H3  UNL     1      27.658   7.013  46.733  1.00  0.00     0.167 HD
BRANCH  17  19
HETATM   19  C3  UNL     1      27.122   6.020  48.581  1.00  0.00     0.029 A 
HETATM   20  C4  UNL     1      27.448   4.742  48.676  1.00  0.00     0.028 A 
HETATM   21  C5  UNL     1      26.632   3.925  49.566  1.00  0.00     0.027 A 
HETATM   22  C6  UNL     1      25.619   4.437  50.244  1.00  0.00     0.015 A 
HETATM   23  C7  UNL     1      24.647   3.860  51.195  1.00  0.00     0.085 A 
HETATM   24  N4  UNL     1      25.278   5.811  50.136  1.00  0.00    -0.355 N 
HETATM   25  C8  UNL     1      23.776   4.991  51.583  1.00  0.00    -0.004 A 
HETATM   26  C9  UNL     1      24.164   6.077  50.965  1.00  0.00     0.087 A 
HETATM   27  C10 UNL     1      26.017   6.716  49.283  1.00  0.00     0.185 A 
ENDBRANCH  17  19
ENDBRANCH   3  17
BRANCH   1  28
HETATM   28  N1  UNL     1      30.600  10.048  50.181  1.00  0.00    -0.231 N 
HETATM   29  H1  UNL     1      29.773  10.136  50.811  1.00  0.00     0.174 HD
HETATM   30  H2  UNL     1      31.489  10.608  50.047  1.00  0.00     0.174 HD
ENDBRANCH   1  28
TORSDOF 3
ENDMDL
MODEL 2
REMARK VINA RESULT:      -8.6      7.258      9.112
REMARK  3 active torsions:
REMARK  status: ('A' for Active; 'I' for Inactive)
REMARK    1  A    between atoms: N1_1  and  C1_2 
REMARK    2  A    between atoms: C2_4  and  N3_5 
REMARK    3  A    between atoms: N3_5  and  C3_6 
ROOT
HETATM    1  C1  UNL     1      21.833   0.288  53.191  1.00  0.00     0.724 A 
HETATM    2  N2  UNL     1      21.608   1.541  52.769  1.00  0.00    -0.044 NA
HETATM    3  C2  UNL     1      22.679   2.334  52.473  1.00  0.00     0.161 A 
HETATM    4  C11 UNL     1      23.935   1.818  52.619  1.00  0.00     0.059 A 
HETATM    5  C12 UNL     1      25.220   2.321  52.419  1.00  0.00     0.044 A 
HETATM    6  C13 UNL     1      26.249   1.379  52.717  1.00  0.00     0.014 A 
HETATM    7  N5  UNL     1      25.568   0.265  53.112  1.00  0.00    -0.334 N 
HETATM    8  C14 UNL     1      24.215   0.548  53.046  1.00  0.00     0.163 A 
HETATM    9  N6  UNL     1      23.073  -0.145  53.310  1.00  0.00    -0.044 NA
HETATM   10  C15 UNL     1      25.944  -1.063  53.573  1.00  0.00     0.134 C 
HETATM   11  C16 UNL     1      27.041  -1.728  52.825  1.00  0.00     0.047 C 
HETATM   12  C17 UNL     1      28.279  -0.952  52.950  1.00  0.00    -0.029 C 
HETATM   13  C18 UNL     1      28.206   0.095  53.753  1.00  0.00    -0.031 C 
HETATM   14  C19 UNL     1      29.043   1.193  54.238  1.00  0.00     0.027 C 
HETATM   15  C20 UNL     1      28.276   2.452  53.772  1.00  0.00     0.010 C 
HETATM   16  C21 UNL     1      27.583   2.015  52.482  1.00  0.00     0.057 C 
ENDROOT
BRANCH   3  17
HETATM   17  N3  UNL     1      22.461   3.638  52.030  1.00  0.00    -0.342 N 
HETATM   18  H3  UNL     1      22.359   4.405  52.717  1.00  0.00     0.167 HD
BRANCH  17  19
HETATM   19  C3  UNL     1      22.389   3.845  50.626  1.00  0.00     0.029 A 
HETATM   20  C4  UNL     1      23.437   4.438  50.080  1.00  0.00     0.028 A 
HETATM   21  C5  UNL     1      23.385   4.660  48.640  1.00  0.00     0.027 A 
HETATM   22  C6  UNL     1      22.343   4.287  47.918  1.00  0.00     0.015 A 
HETATM   23  C7  UNL     1      22.027   4.383  46.478  1.00  0.00     0.085 A 
HETATM   24  N4  UNL     1      21.222   3.650  48.513  1.00  0.00    -0.355 N 
HETATM   25  C8  UNL     1      20.688   3.768  46.340  1.00  0.00    -0.004 A 
HETATM   26  C9  UNL     1      20.267   3.366  47.511  1.00  0.00     0.087 A 
HETATM   27  C10 UNL     1      21.164   3.379  49.933  1.00  0.00     0.185 A 
ENDBRANCH  17  19
ENDBRANCH   3  17
BRANCH   1  28
HETATM   28  N1  UNL     1      20.918  -0.731  53.560  1.00  0.00    -0.231 N 
HETATM   29  H1  UNL     1      20.409  -0.936  52.672  1.00  0.00     0.174 HD
HETATM   30  H2  UNL     1      20.863  -1.112  54.546  1.00  0.00     0.174 HD
ENDBRANCH   1  28
TORSDOF 3
ENDMDL
MODEL 3
REMARK VINA RESULT:      -8.3      9.544     13.167
REMARK  3 active torsions:
REMARK  status: ('A' for Active; 'I' for Inactive)
REMARK    1  A    between atoms: N1_1  and  C1_2 
REMARK    2  A    between atoms: C2_4  and  N3_5 
REMARK    3  A    between atoms: N3_5  and  C3_6 
ROOT
HETATM    1  C1  UNL     1      18.229  -1.378  53.355  1.00  0.00     0.724 A 
HETATM    2  N2  UNL     1      17.388  -0.661  52.594  1.00  0.00    -0.044 NA
HETATM    3  C2  UNL     1      17.882   0.405  51.899  1.00  0.00     0.161 A 
HETATM    4  C11 UNL     1      19.211   0.698  52.008  1.00  0.00     0.059 A 
HETATM    5  C12 UNL     1      20.037   1.681  51.463  1.00  0.00     0.044 A 
HETATM    6  C13 UNL     1      21.395   1.576  51.885  1.00  0.00     0.014 A 
HETATM    7  N5  UNL     1      21.398   0.493  52.715  1.00  0.00    -0.334 N 
HETATM    8  C14 UNL     1      20.108  -0.003  52.771  1.00  0.00     0.163 A 
HETATM    9  N6  UNL     1      19.502  -1.038  53.414  1.00  0.00    -0.044 NA
HETATM   10  C15 UNL     1      22.404  -0.190  53.514  1.00  0.00     0.134 C 
HETATM   11  C16 UNL     1      23.719  -0.411  52.859  1.00  0.00     0.047 C 
HETATM   12  C17 UNL     1      24.344   0.876  52.537  1.00  0.00    -0.029 C 
HETATM   13  C18 UNL     1      23.688   1.940  52.965  1.00  0.00    -0.031 C 
HETATM   14  C19 UNL     1      23.787   3.400  52.938  1.00  0.00     0.027 C 
HETATM   15  C20 UNL     1      22.488   3.829  52.217  1.00  0.00     0.010 C 
HETATM   16  C21 UNL     1      22.193   2.676  51.258  1.00  0.00     0.057 C 
ENDROOT
BRANCH   3  17
HETATM   17  N3  UNL     1      17.021   1.158  51.102  1.00  0.00    -0.342 N 
HETATM   18  H3  UNL     1      17.057   1.063  50.072  1.00  0.00     0.167 HD
BRANCH  17  19
HETATM   19  C3  UNL     1      16.120   2.035  51.765  1.00  0.00     0.029 A 
HETATM   20  C4  UNL     1      16.499   3.300  51.835  1.00  0.00     0.028 A 
HETATM   21  C5  UNL     1      15.590   4.217  52.511  1.00  0.00     0.027 A 
HETATM   22  C6  UNL     1      14.444   3.805  53.026  1.00  0.00     0.015 A 
HETATM   23  C7  UNL     1      13.356   4.495  53.746  1.00  0.00     0.085 A 
HETATM   24  N4  UNL     1      14.045   2.444  52.944  1.00  0.00    -0.355 N 
HETATM   25  C8  UNL     1      12.364   3.438  54.042  1.00  0.00    -0.004 A 
HETATM   26  C9  UNL     1      12.789   2.293  53.573  1.00  0.00     0.087 A 
HETATM   27  C10 UNL     1      14.868   1.446  52.297  1.00  0.00     0.185 A 
ENDBRANCH  17  19
ENDBRANCH   3  17
BRANCH   1  28
HETATM   28  N1  UNL     1      17.983  -2.515  54.166  1.00  0.00    -0.231 N 
HETATM   29  H1  UNL     1      18.894  -2.669  54.654  1.00  0.00     0.174 HD
HETATM   30  H2  UNL     1      17.046  -3.006  54.182  1.00  0.00     0.174 HD
ENDBRANCH   1  28
TORSDOF 3
ENDMDL
MODEL 4
REMARK VINA RESULT:      -8.3      5.837     10.047
REMARK  3 active torsions:
REMARK  status: ('A' for Active; 'I' for Inactive)
REMARK    1  A    between atoms: N1_1  and  C1_2 
REMARK    2  A    between atoms: C2_4  and  N3_5 
REMARK    3  A    between atoms: N3_5  and  C3_6 
ROOT
HETATM    1  C1  UNL     1      26.041   3.821  49.821  1.00  0.00     0.724 A 
HETATM    2  N2  UNL     1      26.227   3.239  51.015  1.00  0.00    -0.044 NA
HETATM    3  C2  UNL     1      25.147   2.712  51.661  1.00  0.00     0.161 A 
HETATM    4  C11 UNL     1      23.921   2.799  51.065  1.00  0.00     0.059 A 
HETATM    5  C12 UNL     1      22.637   2.388  51.420  1.00  0.00     0.044 A 
HETATM    6  C13 UNL     1      21.648   2.714  50.445  1.00  0.00     0.014 A 
HETATM    7  N5  UNL     1      22.353   3.345  49.462  1.00  0.00    -0.334 N 
HETATM    8  C14 UNL     1      23.681   3.382  49.849  1.00  0.00     0.163 A 
HETATM    9  N6  UNL     1      24.829   3.870  49.303  1.00  0.00    -0.044 NA
HETATM   10  C15 UNL     1      22.018   3.961  48.188  1.00  0.00     0.134 C 
HETATM   11  C16 UNL     1      21.067   3.209  47.329  1.00  0.00     0.047 C 
HETATM   12  C17 UNL     1      19.773   3.080  48.005  1.00  0.00    -0.029 C 
HETATM   13  C18 UNL     1      19.676   3.717  49.158  1.00  0.00    -0.031 C 
HETATM   14  C19 UNL     1      18.712   3.936  50.238  1.00  0.00     0.027 C 
HETATM   15  C20 UNL     1      19.439   3.368  51.479  1.00  0.00     0.010 C 
HETATM   16  C21 UNL     1      20.310   2.242  50.923  1.00  0.00     0.057 C 
ENDROOT
BRANCH   3  17
HETATM   17  N3  UNL     1      25.324   2.102  52.902  1.00  0.00    -0.342 N 
HETATM   18  H3  UNL     1      24.805   2.449  53.726  1.00  0.00     0.167 HD
BRANCH  17  19
HETATM   19  C3  UNL     1      26.232   1.010  52.966  1.00  0.00     0.029 A 
HETATM   20  C4  UNL     1      25.749  -0.161  52.584  1.00  0.00     0.028 A 
HETATM   21  C5  UNL     1      26.663  -1.294  52.641  1.00  0.00     0.027 A 
HETATM   22  C6  UNL     1      27.912  -1.159  53.053  1.00  0.00     0.015 A 
HETATM   23  C7  UNL     1      29.031  -2.109  53.210  1.00  0.00     0.085 A 
HETATM   24  N4  UNL     1      28.422   0.103  53.461  1.00  0.00    -0.355 N 
HETATM   25  C8  UNL     1      30.156  -1.294  53.719  1.00  0.00    -0.004 A 
HETATM   26  C9  UNL     1      29.773  -0.049  53.848  1.00  0.00     0.087 A 
HETATM   27  C10 UNL     1      27.606   1.296  53.446  1.00  0.00     0.185 A 
ENDBRANCH  17  19
ENDBRANCH   3  17
BRANCH   1  28
HETATM   28  N1  UNL     1      26.975   4.437  48.948  1.00  0.00    -0.231 N 
HETATM   29  H1  UNL     1      27.003   3.795  48.126  1.00  0.00     0.174 HD
HETATM   30  H2  UNL     1      27.464   5.344  49.194  1.00  0.00     0.174 HD
ENDBRANCH   1  28
TORSDOF 3
ENDMDL
MODEL 5
REMARK VINA RESULT:      -8.3      8.062     11.274
REMARK  3 active torsions:
REMARK  status: ('A' for Active; 'I' for Inactive)
REMARK    1  A    between atoms: N1_1  and  C1_2 
REMARK    2  A    between atoms: C2_4  and  N3_5 
REMARK    3  A    between atoms: N3_5  and  C3_6 
ROOT
HETATM    1  C1  UNL     1      21.592  -0.412  53.650  1.00  0.00     0.724 A 
HETATM    2  N2  UNL     1      22.809   0.070  53.948  1.00  0.00    -0.044 NA
HETATM    3  C2  UNL     1      23.330   1.059  53.166  1.00  0.00     0.161 A 
HETATM    4  C11 UNL     1      22.591   1.519  52.114  1.00  0.00     0.059 A 
HETATM    5  C12 UNL     1      22.798   2.486  51.131  1.00  0.00     0.044 A 
HETATM    6  C13 UNL     1      21.708   2.609  50.220  1.00  0.00     0.014 A 
HETATM    7  N5  UNL     1      20.807   1.685  50.660  1.00  0.00    -0.334 N 
HETATM    8  C14 UNL     1      21.348   1.060  51.770  1.00  0.00     0.163 A 
HETATM    9  N6  UNL     1      20.934   0.078  52.618  1.00  0.00    -0.044 NA
HETATM   10  C15 UNL     1      19.492   1.239  50.225  1.00  0.00     0.134 C 
HETATM   11  C16 UNL     1      18.538   2.306  49.829  1.00  0.00     0.047 C 
HETATM   12  C17 UNL     1      19.057   3.042  48.672  1.00  0.00    -0.029 C 
HETATM   13  C18 UNL     1      20.182   2.568  48.165  1.00  0.00    -0.031 C 
HETATM   14  C19 UNL     1      21.136   2.861  47.094  1.00  0.00     0.027 C 
HETATM   15  C20 UNL     1      22.463   3.083  47.857  1.00  0.00     0.010 C 
HETATM   16  C21 UNL     1      22.030   3.661  49.204  1.00  0.00     0.057 C 
ENDROOT
BRANCH   3  17
HETATM   17  N3  UNL     1      24.592   1.572  53.465  1.00  0.00    -0.342 N 
HETATM   18  H3  UNL     1      24.691   2.559  53.756  1.00  0.00     0.167 HD
BRANCH  17  19
HETATM   19  C3  UNL     1      25.698   0.686  53.351  1.00  0.00     0.029 A 
HETATM   20  C4  UNL     1      25.452  -0.462  52.742  1.00  0.00     0.028 A 
HETATM   21  C5  UNL     1      26.572  -1.386  52.614  1.00  0.00     0.027 A 
HETATM   22  C6  UNL     1      27.772  -1.090  53.081  1.00  0.00     0.015 A 
HETATM   23  C7  UNL     1      29.058  -1.816  53.090  1.00  0.00     0.085 A 
HETATM   24  N4  UNL     1      28.027   0.146  53.732  1.00  0.00    -0.355 N 
HETATM   25  C8  UNL     1      30.004  -0.908  53.777  1.00  0.00    -0.004 A 
HETATM   26  C9  UNL     1      29.384   0.190  54.124  1.00  0.00     0.087 A 
HETATM   27  C10 UNL     1      26.991   1.139  53.916  1.00  0.00     0.185 A 
ENDBRANCH  17  19
ENDBRANCH   3  17
BRANCH   1  28
HETATM   28  N1  UNL     1      20.828  -1.424  54.287  1.00  0.00    -0.231 N 
HETATM   29  H1  UNL     1      21.092  -2.291  53.770  1.00  0.00     0.174 HD
HETATM   30  H2  UNL     1      20.175  -1.215  55.094  1.00  0.00     0.174 HD
ENDBRANCH   1  28
TORSDOF 3
ENDMDL
MODEL 6
REMARK VINA RESULT:      -8.2      7.672     11.739
REMARK  3 active torsions:
REMARK  status: ('A' for Active; 'I' for Inactive)
REMARK    1  A    between atoms: N1_1  and  C1_2 
REMARK    2  A    between atoms: C2_4  and  N3_5 
REMARK    3  A    between atoms: N3_5  and  C3_6 
ROOT
HETATM    1  C1  UNL     1      23.620   3.562  52.368  1.00  0.00     0.724 A 
HETATM    2  N2  UNL     1      24.078   2.504  53.054  1.00  0.00    -0.044 NA
HETATM    3  C2  UNL     1      23.316   1.373  53.098  1.00  0.00     0.161 A 
HETATM    4  C11 UNL     1      22.118   1.365  52.442  1.00  0.00     0.059 A 
HETATM    5  C12 UNL     1      21.108   0.419  52.278  1.00  0.00     0.044 A 
HETATM    6  C13 UNL     1      20.017   0.887  51.487  1.00  0.00     0.014 A 
HETATM    7  N5  UNL     1      20.374   2.163  51.160  1.00  0.00    -0.334 N 
HETATM    8  C14 UNL     1      21.608   2.418  51.731  1.00  0.00     0.163 A 
HETATM    9  N6  UNL     1      22.452   3.486  51.759  1.00  0.00    -0.044 NA
HETATM   10  C15 UNL     1      19.760   3.241  50.401  1.00  0.00     0.134 C 
HETATM   11  C16 UNL     1      19.119   2.855  49.118  1.00  0.00     0.047 C 
HETATM   12  C17 UNL     1      18.010   1.930  49.367  1.00  0.00    -0.029 C 
HETATM   13  C18 UNL     1      17.743   1.705  50.642  1.00  0.00    -0.031 C 
HETATM   14  C19 UNL     1      16.830   0.917  51.471  1.00  0.00     0.027 C 
HETATM   15  C20 UNL     1      17.786   0.027  52.299  1.00  0.00     0.010 C 
HETATM   16  C21 UNL     1      18.986  -0.193  51.379  1.00  0.00     0.057 C 
ENDROOT
BRANCH   3  17
HETATM   17  N3  UNL     1      23.781   0.264  53.804  1.00  0.00    -0.342 N 
HETATM   18  H3  UNL     1      23.145  -0.244  54.442  1.00  0.00     0.167 HD
BRANCH  17  19
HETATM   19  C3  UNL     1      25.136  -0.115  53.602  1.00  0.00     0.029 A 
HETATM   20  C4  UNL     1      25.356  -0.938  52.590  1.00  0.00     0.028 A 
HETATM   21  C5  UNL     1      26.739  -1.339  52.365  1.00  0.00     0.027 A 
HETATM   22  C6  UNL     1      27.722  -0.902  53.132  1.00  0.00     0.015 A 
HETATM   23  C7  UNL     1      29.180  -1.138  53.135  1.00  0.00     0.085 A 
HETATM   24  N4  UNL     1      27.476  -0.018  54.216  1.00  0.00    -0.355 N 
HETATM   25  C8  UNL     1      29.694  -0.339  54.269  1.00  0.00    -0.004 A 
HETATM   26  C9  UNL     1      28.701   0.280  54.855  1.00  0.00     0.087 A 
HETATM   27  C10 UNL     1      26.144   0.446  54.533  1.00  0.00     0.185 A 
ENDBRANCH  17  19
ENDBRANCH   3  17
BRANCH   1  28
HETATM   28  N1  UNL     1      24.200   4.841  52.164  1.00  0.00    -0.231 N 
HETATM   29  H1  UNL     1      25.225   4.644  52.154  1.00  0.00     0.174 HD
HETATM   30  H2  UNL     1      23.615   5.717  52.060  1.00  0.00     0.174 HD
ENDBRANCH   1  28
TORSDOF 3
ENDMDL
MODEL 7
REMARK VINA RESULT:      -8.2      5.871      8.919
REMARK  3 active torsions:
REMARK  status: ('A' for Active; 'I' for Inactive)
REMARK    1  A    between atoms: N1_1  and  C1_2 
REMARK    2  A    between atoms: C2_4  and  N3_5 
REMARK    3  A    between atoms: N3_5  and  C3_6 
ROOT
HETATM    1  C1  UNL     1      22.123   1.458  50.240  1.00  0.00     0.724 A 
HETATM    2  N2  UNL     1      22.749   1.325  51.419  1.00  0.00    -0.044 NA
HETATM    3  C2  UNL     1      23.590   2.318  51.829  1.00  0.00     0.161 A 
HETATM    4  C11 UNL     1      23.760   3.407  51.022  1.00  0.00     0.059 A 
HETATM    5  C12 UNL     1      24.518   4.574  51.112  1.00  0.00     0.044 A 
HETATM    6  C13 UNL     1      24.364   5.437  49.987  1.00  0.00     0.014 A 
HETATM    7  N5  UNL     1      23.483   4.773  49.184  1.00  0.00    -0.334 N 
HETATM    8  C14 UNL     1      23.145   3.588  49.812  1.00  0.00     0.163 A 
HETATM    9  N6  UNL     1      22.334   2.536  49.510  1.00  0.00    -0.044 NA
HETATM   10  C15 UNL     1      22.881   5.029  47.884  1.00  0.00     0.134 C 
HETATM   11  C16 UNL     1      22.394   6.412  47.650  1.00  0.00     0.047 C 
HETATM   12  C17 UNL     1      23.514   7.357  47.707  1.00  0.00    -0.029 C 
HETATM   13  C18 UNL     1      24.706   6.805  47.851  1.00  0.00    -0.031 C 
HETATM   14  C19 UNL     1      26.110   7.196  47.984  1.00  0.00     0.027 C 
HETATM   15  C20 UNL     1      26.511   6.607  49.356  1.00  0.00     0.010 C 
HETATM   16  C21 UNL     1      25.221   6.650  50.175  1.00  0.00     0.057 C 
ENDROOT
BRANCH   3  17
HETATM   17  N3  UNL     1      24.245   2.195  53.054  1.00  0.00    -0.342 N 
HETATM   18  H3  UNL     1      23.903   2.721  53.876  1.00  0.00     0.167 HD
BRANCH  17  19
HETATM   19  C3  UNL     1      25.374   1.333  53.104  1.00  0.00     0.029 A 
HETATM   20  C4  UNL     1      25.133   0.057  52.855  1.00  0.00     0.028 A 
HETATM   21  C5  UNL     1      26.277  -0.845  52.901  1.00  0.00     0.027 A 
HETATM   22  C6  UNL     1      27.493  -0.409  53.177  1.00  0.00     0.015 A 
HETATM   23  C7  UNL     1      28.804  -1.080  53.288  1.00  0.00     0.085 A 
HETATM   24  N4  UNL     1      27.743   0.964  53.442  1.00  0.00    -0.355 N 
HETATM   25  C8  UNL     1      29.758   0.000  53.625  1.00  0.00    -0.004 A 
HETATM   26  C9  UNL     1      29.121   1.140  53.703  1.00  0.00     0.087 A 
HETATM   27  C10 UNL     1      26.684   1.949  53.424  1.00  0.00     0.185 A 
ENDBRANCH  17  19
ENDBRANCH   3  17
BRANCH   1  28
HETATM   28  N1  UNL     1      21.211   0.591  49.585  1.00  0.00    -0.231 N 
HETATM   29  H1  UNL     1      21.814   0.060  48.919  1.00  0.00     0.174 HD
HETATM   30  H2  UNL     1      20.177   0.582  49.813  1.00  0.00     0.174 HD
ENDBRANCH   1  28
TORSDOF 3
ENDMDL
MODEL 8
REMARK VINA RESULT:      -8.1      3.271      5.053
REMARK  3 active torsions:
REMARK  status: ('A' for Active; 'I' for Inactive)
REMARK    1  A    between atoms: N1_1  and  C1_2 
REMARK    2  A    between atoms: C2_4  and  N3_5 
REMARK    3  A    between atoms: N3_5  and  C3_6 
ROOT
HETATM    1  C1  UNL     1      24.977   7.202  50.688  1.00  0.00     0.724 A 
HETATM    2  N2  UNL     1      24.950   5.910  50.326  1.00  0.00    -0.044 NA
HETATM    3  C2  UNL     1      25.904   5.454  49.464  1.00  0.00     0.161 A 
HETATM    4  C11 UNL     1      26.847   6.330  49.006  1.00  0.00     0.059 A 
HETATM    5  C12 UNL     1      27.935   6.221  48.141  1.00  0.00     0.044 A 
HETATM    6  C13 UNL     1      28.642   7.447  47.965  1.00  0.00     0.014 A 
HETATM    7  N5  UNL     1      27.962   8.333  48.748  1.00  0.00    -0.334 N 
HETATM    8  C14 UNL     1      26.914   7.655  49.346  1.00  0.00     0.163 A 
HETATM    9  N6  UNL     1      25.916   7.993  50.207  1.00  0.00    -0.044 NA
HETATM   10  C15 UNL     1      28.089   9.751  49.050  1.00  0.00     0.134 C 
HETATM   11  C16 UNL     1      29.467  10.243  49.306  1.00  0.00     0.047 C 
HETATM   12  C17 UNL     1      30.296  10.065  48.110  1.00  0.00    -0.029 C 
HETATM   13  C18 UNL     1      29.656   9.611  47.046  1.00  0.00    -0.031 C 
HETATM   14  C19 UNL     1      29.922   9.234  45.658  1.00  0.00     0.027 C 
HETATM   15  C20 UNL     1      29.496   7.749  45.608  1.00  0.00     0.010 C 
HETATM   16  C21 UNL     1      29.780   7.229  47.017  1.00  0.00     0.057 C 
ENDROOT
BRANCH   3  17
HETATM   17  N3  UNL     1      25.892   4.113  49.080  1.00  0.00    -0.342 N 
HETATM   18  H3  UNL     1      26.101   3.856  48.100  1.00  0.00     0.167 HD
BRANCH  17  19
HETATM   19  C3  UNL     1      25.584   3.152  50.081  1.00  0.00     0.029 A 
HETATM   20  C4  UNL     1      26.614   2.700  50.777  1.00  0.00     0.028 A 
HETATM   21  C5  UNL     1      26.321   1.714  51.809  1.00  0.00     0.027 A 
HETATM   22  C6  UNL     1      25.089   1.294  52.039  1.00  0.00     0.015 A 
HETATM   23  C7  UNL     1      24.514   0.328  52.996  1.00  0.00     0.085 A 
HETATM   24  N4  UNL     1      23.989   1.786  51.286  1.00  0.00    -0.355 N 
HETATM   25  C8  UNL     1      23.061   0.331  52.716  1.00  0.00    -0.004 A 
HETATM   26  C9  UNL     1      22.803   1.168  51.744  1.00  0.00     0.087 A 
HETATM   27  C10 UNL     1      24.161   2.767  50.237  1.00  0.00     0.185 A 
ENDBRANCH  17  19
ENDBRANCH   3  17
BRANCH   1  28
HETATM   28  N1  UNL     1      24.119   7.925  51.557  1.00  0.00    -0.231 N 
HETATM   29  H1  UNL     1      24.768   8.299  52.284  1.00  0.00     0.174 HD
HETATM   30  H2  UNL     1      23.076   7.994  51.393  1.00  0.00     0.174 HD
ENDBRANCH   1  28
TORSDOF 3
ENDMDL
MODEL 9
REMARK VINA RESULT:      -8.0      3.353      8.107
REMARK  3 active torsions:
REMARK  status: ('A' for Active; 'I' for Inactive)
REMARK    1  A    between atoms: N1_1  and  C1_2 
REMARK    2  A    between atoms: C2_4  and  N3_5 
REMARK    3  A    between atoms: N3_5  and  C3_6 
ROOT
HETATM    1  C1  UNL     1      23.729   4.794  50.007  1.00  0.00     0.724 A 
HETATM    2  N2  UNL     1      24.831   4.973  49.262  1.00  0.00    -0.044 NA
HETATM    3  C2  UNL     1      25.903   4.156  49.473  1.00  0.00     0.161 A 
HETATM    4  C11 UNL     1      25.810   3.189  50.433  1.00  0.00     0.059 A 
HETATM    5  C12 UNL     1      26.677   2.207  50.909  1.00  0.00     0.044 A 
HETATM    6  C13 UNL     1      26.116   1.414  51.953  1.00  0.00     0.014 A 
HETATM    7  N5  UNL     1      24.864   1.930  52.119  1.00  0.00    -0.334 N 
HETATM    8  C14 UNL     1      24.709   2.968  51.217  1.00  0.00     0.163 A 
HETATM    9  N6  UNL     1      23.708   3.841  50.918  1.00  0.00    -0.044 NA
HETATM   10  C15 UNL     1      23.741   1.645  52.999  1.00  0.00     0.134 C 
HETATM   11  C16 UNL     1      23.417   0.210  53.202  1.00  0.00     0.047 C 
HETATM   12  C17 UNL     1      24.543  -0.476  53.842  1.00  0.00    -0.029 C 
HETATM   13  C18 UNL     1      25.550   0.306  54.191  1.00  0.00    -0.031 C 
HETATM   14  C19 UNL     1      26.875   0.215  54.807  1.00  0.00     0.027 C 
HETATM   15  C20 UNL     1      27.812   0.776  53.712  1.00  0.00     0.010 C 
HETATM   16  C21 UNL     1      27.124   0.401  52.400  1.00  0.00     0.057 C 
ENDROOT
BRANCH   3  17
HETATM   17  N3  UNL     1      27.053   4.328  48.704  1.00  0.00    -0.342 N 
HETATM   18  H3  UNL     1      27.443   3.529  48.175  1.00  0.00     0.167 HD
BRANCH  17  19
HETATM   19  C3  UNL     1      27.640   5.623  48.691  1.00  0.00     0.029 A 
HETATM   20  C4  UNL     1      28.891   5.681  48.269  1.00  0.00     0.028 A 
HETATM   21  C5  UNL     1      29.512   7.000  48.247  1.00  0.00     0.027 A 
HETATM   22  C6  UNL     1      28.856   8.082  48.629  1.00  0.00     0.015 A 
HETATM   23  C7  UNL     1      29.225   9.509  48.709  1.00  0.00     0.085 A 
HETATM   24  N4  UNL     1      27.511   8.009  49.081  1.00  0.00    -0.355 N 
HETATM   25  C8  UNL     1      28.015  10.188  49.223  1.00  0.00    -0.004 A 
HETATM   26  C9  UNL     1      27.068   9.307  49.421  1.00  0.00     0.087 A 
HETATM   27  C10 UNL     1      26.795   6.754  49.145  1.00  0.00     0.185 A 
ENDBRANCH  17  19
ENDBRANCH   3  17
BRANCH   1  28
HETATM   28  N1  UNL     1      22.494   5.492  49.995  1.00  0.00    -0.231 N 
HETATM   29  H1  UNL     1      21.989   5.080  49.179  1.00  0.00     0.174 HD
HETATM   30  H2  UNL     1      22.259   6.238  50.708  1.00  0.00     0.174 HD
ENDBRANCH   1  28
TORSDOF 3
ENDMDL
