MODEL 1
REMARK VINA RESULT:      -8.3      0.000      0.000
REMARK  5 active torsions:
REMARK  status: ('A' for Active; 'I' for Inactive)
REMARK    1  A    between atoms: N1_1  and  C1_2 
REMARK    2  A    between atoms: C1_2  and  P1_3 
REMARK    3  A    between atoms: P1_3  and  N2_4 
REMARK    4  A    between atoms: C11_16  and  C12_17 
REMARK    5  A    between atoms: C12_17  and  C13_18 
ROOT
HETATM    1  N2  UNL     1      23.782   1.971  51.477  1.00  0.00    -0.213 NA
HETATM    2  C2  UNL     1      23.047   1.007  51.929  1.00  0.00     0.197 C 
HETATM    3  O1  UNL     1      21.859   0.679  51.244  1.00  0.00    -0.290 OA
HETATM    4  C3  UNL     1      20.664   0.210  51.788  1.00  0.00     0.086 A 
HETATM    5  C4  UNL     1      19.557   0.601  51.063  1.00  0.00     0.038 A 
HETATM    6  C5  UNL     1      18.328   0.179  51.533  1.00  0.00     0.003 A 
HETATM    7  C6  UNL     1      18.185  -0.584  52.650  1.00  0.00     0.001 A 
HETATM    8  C7  UNL     1      19.338  -0.940  53.328  1.00  0.00     0.011 A 
HETATM    9  C8  UNL     1      20.627  -0.561  52.931  1.00  0.00    -0.007 A 
HETATM   10  C9  UNL     1      21.581  -1.119  53.882  1.00  0.00     0.161 C 
HETATM   11  N3  UNL     1      22.800  -0.356  54.056  1.00  0.00    -0.382 N 
HETATM   12  C10 UNL     1      23.593   0.390  53.125  1.00  0.00     0.078 C 
HETATM   13  C11 UNL     1      24.885   0.485  53.415  1.00  0.00     0.012 C 
HETATM   14  H8  UNL     1      23.160  -0.362  55.057  1.00  0.00     0.160 HD
ENDROOT
BRANCH  13  15
HETATM   15  C12 UNL     1      26.141   1.041  52.941  1.00  0.00     0.069 C 
BRANCH  15  16
HETATM   16  C13 UNL     1      27.208  -0.018  53.049  1.00  0.00    -0.037 A 
HETATM   17  C14 UNL     1      26.875  -1.320  52.700  1.00  0.00     0.009 A 
HETATM   18  C15 UNL     1      27.727  -2.418  52.735  1.00  0.00     0.001 A 
HETATM   19  C16 UNL     1      29.019  -2.147  53.164  1.00  0.00     0.001 A 
HETATM   20  C17 UNL     1      29.378  -0.873  53.515  1.00  0.00     0.019 A 
HETATM   21  C18 UNL     1      28.501   0.198  53.467  1.00  0.00     0.017 A 
HETATM   22 BR1  UNL     1      28.995   1.966  53.956  1.00  0.00    -0.051 Br
ENDBRANCH  15  16
ENDBRANCH  13  15
BRANCH   1  23
HETATM   23  P1  UNL     1      23.199   2.805  49.997  1.00  0.00     0.167 P 
BRANCH  23  24
HETATM   24  C1  UNL     1      24.132   4.018  49.394  1.00  0.00     0.009 C 
BRANCH  24  25
HETATM   25  N1  UNL     1      24.891   4.990  49.070  1.00  0.00    -0.256 NA
HETATM   26  H1  UNL     1      24.899   5.351  48.069  1.00  0.00     0.197 HD
ENDBRANCH  24  25
ENDBRANCH  23  24
ENDBRANCH   1  23
TORSDOF 5
ENDMDL
MODEL 2
REMARK VINA RESULT:      -8.2      2.970      5.932
REMARK  5 active torsions:
REMARK  status: ('A' for Active; 'I' for Inactive)
REMARK    1  A    between atoms: N1_1  and  C1_2 
REMARK    2  A    between atoms: C1_2  and  P1_3 
REMARK    3  A    between atoms: P1_3  and  N2_4 
REMARK    4  A    between atoms: C11_16  and  C12_17 
REMARK    5  A    between atoms: C12_17  and  C13_18 
ROOT
HETATM    1  N2  UNL     1      26.235   1.459  51.826  1.00  0.00    -0.213 NA
HETATM    2  C2  UNL     1      24.959   1.473  52.047  1.00  0.00     0.197 C 
HETATM    3  O1  UNL     1      24.469   0.891  53.233  1.00  0.00    -0.290 OA
HETATM    4  C3  UNL     1      23.256   0.228  53.418  1.00  0.00     0.086 A 
HETATM    5  C4  UNL     1      23.327  -0.756  54.383  1.00  0.00     0.038 A 
HETATM    6  C5  UNL     1      22.167  -1.466  54.631  1.00  0.00     0.003 A 
HETATM    7  C6  UNL     1      21.001  -1.229  53.973  1.00  0.00     0.001 A 
HETATM    8  C7  UNL     1      21.001  -0.229  53.016  1.00  0.00     0.011 A 
HETATM    9  C8  UNL     1      22.125   0.544  52.695  1.00  0.00    -0.007 A 
HETATM   10  C9  UNL     1      21.746   1.490  51.652  1.00  0.00     0.161 C 
HETATM   11  N3  UNL     1      22.813   1.883  50.755  1.00  0.00    -0.382 N 
HETATM   12  C10 UNL     1      24.207   2.119  50.985  1.00  0.00     0.078 C 
HETATM   13  C11 UNL     1      24.789   2.984  50.163  1.00  0.00     0.012 C 
HETATM   14  H8  UNL     1      22.490   2.019  49.751  1.00  0.00     0.160 HD
ENDROOT
BRANCH  13  15
HETATM   15  C12 UNL     1      26.057   3.628  49.867  1.00  0.00     0.069 C 
BRANCH  15  16
HETATM   16  C13 UNL     1      25.783   4.974  49.249  1.00  0.00    -0.037 A 
HETATM   17  C14 UNL     1      24.486   5.470  49.312  1.00  0.00     0.009 A 
HETATM   18  C15 UNL     1      24.053   6.688  48.801  1.00  0.00     0.001 A 
HETATM   19  C16 UNL     1      25.034   7.448  48.179  1.00  0.00     0.001 A 
HETATM   20  C17 UNL     1      26.320   6.986  48.100  1.00  0.00     0.019 A 
HETATM   21  C18 UNL     1      26.717   5.765  48.622  1.00  0.00     0.017 A 
HETATM   22 BR1  UNL     1      28.500   5.121  48.512  1.00  0.00    -0.051 Br
ENDBRANCH  15  16
ENDBRANCH  13  15
BRANCH   1  23
HETATM   23  P1  UNL     1      27.262   0.683  53.079  1.00  0.00     0.167 P 
BRANCH  23  24
HETATM   24  C1  UNL     1      28.451   1.596  53.754  1.00  0.00     0.009 C 
BRANCH  24  25
HETATM   25  N1  UNL     1      29.277   2.420  54.269  1.00  0.00    -0.256 NA
HETATM   26  H1  UNL     1      29.557   3.299  53.739  1.00  0.00     0.197 HD
ENDBRANCH  24  25
ENDBRANCH  23  24
ENDBRANCH   1  23
TORSDOF 5
ENDMDL
MODEL 3
REMARK VINA RESULT:      -8.2      2.881      7.106
REMARK  5 active torsions:
REMARK  status: ('A' for Active; 'I' for Inactive)
REMARK    1  A    between atoms: N1_1  and  C1_2 
REMARK    2  A    between atoms: C1_2  and  P1_3 
REMARK    3  A    between atoms: P1_3  and  N2_4 
REMARK    4  A    between atoms: C11_16  and  C12_17 
REMARK    5  A    between atoms: C12_17  and  C13_18 
ROOT
HETATM    1  N2  UNL     1      23.819   2.444  51.437  1.00  0.00    -0.213 NA
HETATM    2  C2  UNL     1      24.386   1.824  52.423  1.00  0.00     0.197 C 
HETATM    3  O1  UNL     1      25.535   2.392  53.011  1.00  0.00    -0.290 OA
HETATM    4  C3  UNL     1      26.627   1.724  53.563  1.00  0.00     0.086 A 
HETATM    5  C4  UNL     1      27.804   2.434  53.442  1.00  0.00     0.038 A 
HETATM    6  C5  UNL     1      28.940   1.844  53.964  1.00  0.00     0.003 A 
HETATM    7  C6  UNL     1      28.929   0.628  54.571  1.00  0.00     0.001 A 
HETATM    8  C7  UNL     1      27.713  -0.029  54.658  1.00  0.00     0.011 A 
HETATM    9  C8  UNL     1      26.509   0.486  54.160  1.00  0.00    -0.007 A 
HETATM   10  C9  UNL     1      25.451  -0.479  54.433  1.00  0.00     0.161 C 
HETATM   11  N3  UNL     1      24.354  -0.479  53.488  1.00  0.00    -0.382 N 
HETATM   12  C10 UNL     1      23.713   0.587  52.777  1.00  0.00     0.078 C 
HETATM   13  C11 UNL     1      22.441   0.384  52.458  1.00  0.00     0.012 C 
HETATM   14  H8  UNL     1      23.963  -1.450  53.298  1.00  0.00     0.160 HD
ENDROOT
BRANCH  13  15
HETATM   15  C12 UNL     1      21.299   0.998  51.802  1.00  0.00     0.069 C 
BRANCH  15  16
HETATM   16  C13 UNL     1      20.062   0.212  52.152  1.00  0.00    -0.037 A 
HETATM   17  C14 UNL     1      20.102  -0.605  53.275  1.00  0.00     0.009 A 
HETATM   18  C15 UNL     1      19.061  -1.396  53.747  1.00  0.00     0.001 A 
HETATM   19  C16 UNL     1      17.891  -1.336  53.001  1.00  0.00     0.001 A 
HETATM   20  C17 UNL     1      17.821  -0.540  51.890  1.00  0.00     0.019 A 
HETATM   21  C18 UNL     1      18.880   0.236  51.448  1.00  0.00     0.017 A 
HETATM   22 BR1  UNL     1      18.786   1.339  49.905  1.00  0.00    -0.051 Br
ENDBRANCH  15  16
ENDBRANCH  13  15
BRANCH   1  23
HETATM   23  P1  UNL     1      24.570   3.989  50.916  1.00  0.00     0.167 P 
BRANCH  23  24
HETATM   24  C1  UNL     1      26.032   3.906  50.169  1.00  0.00     0.009 C 
BRANCH  24  25
HETATM   25  N1  UNL     1      27.203   3.965  49.666  1.00  0.00    -0.256 NA
HETATM   26  H1  UNL     1      27.474   4.779  49.036  1.00  0.00     0.197 HD
ENDBRANCH  24  25
ENDBRANCH  23  24
ENDBRANCH   1  23
TORSDOF 5
ENDMDL
MODEL 4
REMARK VINA RESULT:      -8.1      3.472      6.319
REMARK  5 active torsions:
REMARK  status: ('A' for Active; 'I' for Inactive)
REMARK    1  A    between atoms: N1_1  and  C1_2 
REMARK    2  A    between atoms: C1_2  and  P1_3 
REMARK    3  A    between atoms: P1_3  and  N2_4 
REMARK    4  A    between atoms: C11_16  and  C12_17 
REMARK    5  A    between atoms: C12_17  and  C13_18 
ROOT
HETATM    1  N2  UNL     1      23.398   3.328  50.425  1.00  0.00    -0.213 NA
HETATM    2  C2  UNL     1      24.231   2.525  51.007  1.00  0.00     0.197 C 
HETATM    3  O1  UNL     1      23.757   1.288  51.489  1.00  0.00    -0.290 OA
HETATM    4  C3  UNL     1      24.192   0.590  52.615  1.00  0.00     0.086 A 
HETATM    5  C4  UNL     1      23.192  -0.160  53.197  1.00  0.00     0.038 A 
HETATM    6  C5  UNL     1      23.537  -0.886  54.323  1.00  0.00     0.003 A 
HETATM    7  C6  UNL     1      24.790  -0.880  54.851  1.00  0.00     0.001 A 
HETATM    8  C7  UNL     1      25.744  -0.104  54.215  1.00  0.00     0.011 A 
HETATM    9  C8  UNL     1      25.492   0.665  53.072  1.00  0.00    -0.007 A 
HETATM   10  C9  UNL     1      26.727   1.338  52.691  1.00  0.00     0.161 C 
HETATM   11  N3  UNL     1      26.558   2.609  52.017  1.00  0.00    -0.382 N 
HETATM   12  C10 UNL     1      25.581   3.057  51.069  1.00  0.00     0.078 C 
HETATM   13  C11 UNL     1      25.985   4.000  50.227  1.00  0.00     0.012 C 
HETATM   14  H8  UNL     1      27.298   3.325  52.279  1.00  0.00     0.160 HD
ENDROOT
BRANCH  13  15
HETATM   15  C12 UNL     1      25.547   4.824  49.114  1.00  0.00     0.069 C 
BRANCH  15  16
HETATM   16  C13 UNL     1      26.727   5.609  48.601  1.00  0.00    -0.037 A 
HETATM   17  C14 UNL     1      27.968   4.985  48.582  1.00  0.00     0.009 A 
HETATM   18  C15 UNL     1      29.159   5.552  48.143  1.00  0.00     0.001 A 
HETATM   19  C16 UNL     1      29.057   6.861  47.691  1.00  0.00     0.001 A 
HETATM   20  C17 UNL     1      27.848   7.502  47.698  1.00  0.00     0.019 A 
HETATM   21  C18 UNL     1      26.679   6.905  48.143  1.00  0.00     0.017 A 
HETATM   22 BR1  UNL     1      25.000   7.793  48.156  1.00  0.00    -0.051 Br
ENDBRANCH  15  16
ENDBRANCH  13  15
BRANCH   1  23
HETATM   23  P1  UNL     1      21.697   2.769  50.292  1.00  0.00     0.167 P 
BRANCH  23  24
HETATM   24  C1  UNL     1      20.720   3.001  51.594  1.00  0.00     0.009 C 
BRANCH  24  25
HETATM   25  N1  UNL     1      20.082   3.144  52.689  1.00  0.00    -0.256 NA
HETATM   26  H1  UNL     1      20.201   2.435  53.475  1.00  0.00     0.197 HD
ENDBRANCH  24  25
ENDBRANCH  23  24
ENDBRANCH   1  23
TORSDOF 5
ENDMDL
MODEL 5
REMARK VINA RESULT:      -8.0      3.092      7.248
REMARK  5 active torsions:
REMARK  status: ('A' for Active; 'I' for Inactive)
REMARK    1  A    between atoms: N1_1  and  C1_2 
REMARK    2  A    between atoms: C1_2  and  P1_3 
REMARK    3  A    between atoms: P1_3  and  N2_4 
REMARK    4  A    between atoms: C11_16  and  C12_17 
REMARK    5  A    between atoms: C12_17  and  C13_18 
ROOT
HETATM    1  N2  UNL     1      23.744   0.911  53.202  1.00  0.00    -0.213 NA
HETATM    2  C2  UNL     1      25.024   0.954  53.013  1.00  0.00     0.197 C 
HETATM    3  O1  UNL     1      25.681  -0.202  52.543  1.00  0.00    -0.290 OA
HETATM    4  C3  UNL     1      26.973  -0.629  52.847  1.00  0.00     0.086 A 
HETATM    5  C4  UNL     1      27.100  -2.003  52.821  1.00  0.00     0.038 A 
HETATM    6  C5  UNL     1      28.351  -2.515  53.111  1.00  0.00     0.003 A 
HETATM    7  C6  UNL     1      29.420  -1.730  53.411  1.00  0.00     0.001 A 
HETATM    8  C7  UNL     1      29.220  -0.360  53.421  1.00  0.00     0.011 A 
HETATM    9  C8  UNL     1      27.992   0.253  53.140  1.00  0.00    -0.007 A 
HETATM   10  C9  UNL     1      28.167   1.696  53.244  1.00  0.00     0.161 C 
HETATM   11  N3  UNL     1      26.987   2.436  53.642  1.00  0.00    -0.382 N 
HETATM   12  C10 UNL     1      25.601   2.249  53.332  1.00  0.00     0.078 C 
HETATM   13  C11 UNL     1      24.854   3.346  53.344  1.00  0.00     0.012 C 
HETATM   14  H8  UNL     1      27.203   3.263  54.274  1.00  0.00     0.160 HD
ENDROOT
BRANCH  13  15
HETATM   15  C12 UNL     1      23.499   3.828  53.136  1.00  0.00     0.069 C 
BRANCH  15  16
HETATM   16  C13 UNL     1      23.227   3.878  51.655  1.00  0.00    -0.037 A 
HETATM   17  C14 UNL     1      24.226   4.368  50.823  1.00  0.00     0.009 A 
HETATM   18  C15 UNL     1      24.151   4.485  49.439  1.00  0.00     0.001 A 
HETATM   19  C16 UNL     1      22.954   4.063  48.877  1.00  0.00     0.001 A 
HETATM   20  C17 UNL     1      21.951   3.576  49.670  1.00  0.00     0.019 A 
HETATM   21  C18 UNL     1      22.061   3.474  51.048  1.00  0.00     0.017 A 
HETATM   22 BR1  UNL     1      20.670   2.800  52.153  1.00  0.00    -0.051 Br
ENDBRANCH  15  16
ENDBRANCH  13  15
BRANCH   1  23
HETATM   23  P1  UNL     1      22.927  -0.646  52.837  1.00  0.00     0.167 P 
BRANCH  23  24
HETATM   24  C1  UNL     1      21.849  -1.212  53.943  1.00  0.00     0.009 C 
BRANCH  24  25
HETATM   25  N1  UNL     1      21.122  -1.632  54.902  1.00  0.00    -0.256 NA
HETATM   26  H1  UNL     1      21.171  -1.163  55.856  1.00  0.00     0.197 HD
ENDBRANCH  24  25
ENDBRANCH  23  24
ENDBRANCH   1  23
TORSDOF 5
ENDMDL
MODEL 6
REMARK VINA RESULT:      -7.8      2.007      4.662
REMARK  5 active torsions:
REMARK  status: ('A' for Active; 'I' for Inactive)
REMARK    1  A    between atoms: N1_1  and  C1_2 
REMARK    2  A    between atoms: C1_2  and  P1_3 
REMARK    3  A    between atoms: P1_3  and  N2_4 
REMARK    4  A    between atoms: C11_16  and  C12_17 
REMARK    5  A    between atoms: C12_17  and  C13_18 
ROOT
HETATM    1  N2  UNL     1      23.783   0.901  52.416  1.00  0.00    -0.213 NA
HETATM    2  C2  UNL     1      24.002   2.043  51.847  1.00  0.00     0.197 C 
HETATM    3  O1  UNL     1      22.916   2.735  51.272  1.00  0.00    -0.290 OA
HETATM    4  C3  UNL     1      22.928   3.550  50.141  1.00  0.00     0.086 A 
HETATM    5  C4  UNL     1      21.730   3.534  49.458  1.00  0.00     0.038 A 
HETATM    6  C5  UNL     1      21.654   4.316  48.321  1.00  0.00     0.003 A 
HETATM    7  C6  UNL     1      22.691   5.074  47.874  1.00  0.00     0.001 A 
HETATM    8  C7  UNL     1      23.865   5.042  48.608  1.00  0.00     0.011 A 
HETATM    9  C8  UNL     1      24.038   4.281  49.772  1.00  0.00    -0.007 A 
HETATM   10  C9  UNL     1      25.393   4.501  50.264  1.00  0.00     0.161 C 
HETATM   11  N3  UNL     1      25.975   3.392  50.991  1.00  0.00    -0.382 N 
HETATM   12  C10 UNL     1      25.397   2.444  51.897  1.00  0.00     0.078 C 
HETATM   13  C11 UNL     1      26.220   1.944  52.811  1.00  0.00     0.012 C 
HETATM   14  H8  UNL     1      27.016   3.273  50.814  1.00  0.00     0.160 HD
ENDROOT
BRANCH  13  15
HETATM   15  C12 UNL     1      26.283   1.027  53.936  1.00  0.00     0.069 C 
BRANCH  15  16
HETATM   16  C13 UNL     1      27.218  -0.102  53.586  1.00  0.00    -0.037 A 
HETATM   17  C14 UNL     1      26.674  -1.251  53.027  1.00  0.00     0.009 A 
HETATM   18  C15 UNL     1      27.381  -2.385  52.643  1.00  0.00     0.001 A 
HETATM   19  C16 UNL     1      28.752  -2.323  52.853  1.00  0.00     0.001 A 
HETATM   20  C17 UNL     1      29.317  -1.204  53.403  1.00  0.00     0.019 A 
HETATM   21  C18 UNL     1      28.580  -0.091  53.775  1.00  0.00     0.017 A 
HETATM   22 BR1  UNL     1      29.362   1.462  54.540  1.00  0.00    -0.051 Br
ENDBRANCH  15  16
ENDBRANCH  13  15
BRANCH   1  23
HETATM   23  P1  UNL     1      22.088   0.309  52.412  1.00  0.00     0.167 P 
BRANCH  23  24
HETATM   24  C1  UNL     1      21.321   0.201  53.862  1.00  0.00     0.009 C 
BRANCH  24  25
HETATM   25  N1  UNL     1      20.616   0.200  54.925  1.00  0.00    -0.256 NA
HETATM   26  H1  UNL     1      19.729   0.786  54.980  1.00  0.00     0.197 HD
ENDBRANCH  24  25
ENDBRANCH  23  24
ENDBRANCH   1  23
TORSDOF 5
ENDMDL
MODEL 7
REMARK VINA RESULT:      -7.7      3.367      5.363
REMARK  5 active torsions:
REMARK  status: ('A' for Active; 'I' for Inactive)
REMARK    1  A    between atoms: N1_1  and  C1_2 
REMARK    2  A    between atoms: C1_2  and  P1_3 
REMARK    3  A    between atoms: P1_3  and  N2_4 
REMARK    4  A    between atoms: C11_16  and  C12_17 
REMARK    5  A    between atoms: C12_17  and  C13_18 
ROOT
HETATM    1  N2  UNL     1      21.567   3.814  51.450  1.00  0.00    -0.213 NA
HETATM    2  C2  UNL     1      22.210   2.754  51.821  1.00  0.00     0.197 C 
HETATM    3  O1  UNL     1      21.507   1.537  51.933  1.00  0.00    -0.290 OA
HETATM    4  C3  UNL     1      21.733   0.504  52.841  1.00  0.00     0.086 A 
HETATM    5  C4  UNL     1      20.581  -0.184  53.165  1.00  0.00     0.038 A 
HETATM    6  C5  UNL     1      20.713  -1.227  54.062  1.00  0.00     0.003 A 
HETATM    7  C6  UNL     1      21.905  -1.581  54.614  1.00  0.00     0.001 A 
HETATM    8  C7  UNL     1      23.019  -0.847  54.246  1.00  0.00     0.011 A 
HETATM    9  C8  UNL     1      22.986   0.226  53.346  1.00  0.00    -0.007 A 
HETATM   10  C9  UNL     1      24.340   0.747  53.205  1.00  0.00     0.161 C 
HETATM   11  N3  UNL     1      24.432   2.159  52.894  1.00  0.00    -0.382 N 
HETATM   12  C10 UNL     1      23.619   3.003  52.071  1.00  0.00     0.078 C 
HETATM   13  C11 UNL     1      24.235   4.048  51.530  1.00  0.00     0.012 C 
HETATM   14  H8  UNL     1      25.254   2.640  53.366  1.00  0.00     0.160 HD
ENDROOT
BRANCH  13  15
HETATM   15  C12 UNL     1      24.026   5.197  50.668  1.00  0.00     0.069 C 
BRANCH  15  16
HETATM   16  C13 UNL     1      25.298   5.466  49.904  1.00  0.00    -0.037 A 
HETATM   17  C14 UNL     1      26.099   4.382  49.568  1.00  0.00     0.009 A 
HETATM   18  C15 UNL     1      27.299   4.440  48.868  1.00  0.00     0.001 A 
HETATM   19  C16 UNL     1      27.698   5.715  48.488  1.00  0.00     0.001 A 
HETATM   20  C17 UNL     1      26.929   6.802  48.805  1.00  0.00     0.019 A 
HETATM   21  C18 UNL     1      25.737   6.706  49.505  1.00  0.00     0.017 A 
HETATM   22 BR1  UNL     1      24.670   8.214  49.948  1.00  0.00    -0.051 Br
ENDBRANCH  15  16
ENDBRANCH  13  15
BRANCH   1  23
HETATM   23  P1  UNL     1      19.814   3.618  51.113  1.00  0.00     0.167 P 
BRANCH  23  24
HETATM   24  C1  UNL     1      19.073   4.803  50.247  1.00  0.00     0.009 C 
BRANCH  24  25
HETATM   25  N1  UNL     1      18.598   5.817  49.637  1.00  0.00    -0.256 NA
HETATM   26  H1  UNL     1      18.248   6.658  50.188  1.00  0.00     0.197 HD
ENDBRANCH  24  25
ENDBRANCH  23  24
ENDBRANCH   1  23
TORSDOF 5
ENDMDL
MODEL 8
REMARK VINA RESULT:      -7.6      3.430      6.425
REMARK  5 active torsions:
REMARK  status: ('A' for Active; 'I' for Inactive)
REMARK    1  A    between atoms: N1_1  and  C1_2 
REMARK    2  A    between atoms: C1_2  and  P1_3 
REMARK    3  A    between atoms: P1_3  and  N2_4 
REMARK    4  A    between atoms: C11_16  and  C12_17 
REMARK    5  A    between atoms: C12_17  and  C13_18 
ROOT
HETATM    1  N2  UNL     1      23.943   2.891  50.318  1.00  0.00    -0.213 NA
HETATM    2  C2  UNL     1      24.688   3.905  50.012  1.00  0.00     0.197 C 
HETATM    3  O1  UNL     1      24.070   5.139  49.720  1.00  0.00    -0.290 OA
HETATM    4  C3  UNL     1      24.495   6.110  48.815  1.00  0.00     0.086 A 
HETATM    5  C4  UNL     1      23.447   6.820  48.265  1.00  0.00     0.038 A 
HETATM    6  C5  UNL     1      23.778   7.806  47.353  1.00  0.00     0.003 A 
HETATM    7  C6  UNL     1      25.061   8.084  46.998  1.00  0.00     0.001 A 
HETATM    8  C7  UNL     1      26.062   7.331  47.588  1.00  0.00     0.011 A 
HETATM    9  C8  UNL     1      25.827   6.313  48.521  1.00  0.00    -0.007 A 
HETATM   10  C9  UNL     1      27.112   5.751  48.918  1.00  0.00     0.161 C 
HETATM   11  N3  UNL     1      27.085   4.357  49.309  1.00  0.00    -0.382 N 
HETATM   12  C10 UNL     1      26.106   3.590  50.021  1.00  0.00     0.078 C 
HETATM   13  C11 UNL     1      26.573   2.556  50.710  1.00  0.00     0.012 C 
HETATM   14  H8  UNL     1      27.952   3.820  49.010  1.00  0.00     0.160 HD
ENDROOT
BRANCH  13  15
HETATM   15  C12 UNL     1      26.168   1.465  51.579  1.00  0.00     0.069 C 
BRANCH  15  16
HETATM   16  C13 UNL     1      27.259   1.223  52.590  1.00  0.00    -0.037 A 
HETATM   17  C14 UNL     1      27.969   2.320  53.061  1.00  0.00     0.009 A 
HETATM   18  C15 UNL     1      29.002   2.285  53.991  1.00  0.00     0.001 A 
HETATM   19  C16 UNL     1      29.322   1.022  54.469  1.00  0.00     0.001 A 
HETATM   20  C17 UNL     1      28.640  -0.079  54.024  1.00  0.00     0.019 A 
HETATM   21  C18 UNL     1      27.615  -0.007  53.094  1.00  0.00     0.017 A 
HETATM   22 BR1  UNL     1      26.668  -1.532  52.473  1.00  0.00    -0.051 Br
ENDBRANCH  15  16
ENDBRANCH  13  15
BRANCH   1  23
HETATM   23  P1  UNL     1      22.169   3.170  50.338  1.00  0.00     0.167 P 
BRANCH  23  24
HETATM   24  C1  UNL     1      21.264   2.369  49.224  1.00  0.00     0.009 C 
BRANCH  24  25
HETATM   25  N1  UNL     1      20.545   1.640  48.464  1.00  0.00    -0.256 NA
HETATM   26  H1  UNL     1      20.895   1.366  47.497  1.00  0.00     0.197 HD
ENDBRANCH  24  25
ENDBRANCH  23  24
ENDBRANCH   1  23
TORSDOF 5
ENDMDL
MODEL 9
REMARK VINA RESULT:      -7.6      4.017      8.019
REMARK  5 active torsions:
REMARK  status: ('A' for Active; 'I' for Inactive)
REMARK    1  A    between atoms: N1_1  and  C1_2 
REMARK    2  A    between atoms: C1_2  and  P1_3 
REMARK    3  A    between atoms: P1_3  and  N2_4 
REMARK    4  A    between atoms: C11_16  and  C12_17 
REMARK    5  A    between atoms: C12_17  and  C13_18 
ROOT
HETATM    1  N2  UNL     1      19.465   0.298  51.536  1.00  0.00    -0.213 NA
HETATM    2  C2  UNL     1      20.356   0.124  52.459  1.00  0.00     0.197 C 
HETATM    3  O1  UNL     1      21.497   0.951  52.466  1.00  0.00    -0.290 OA
HETATM    4  C3  UNL     1      22.790   0.614  52.863  1.00  0.00     0.086 A 
HETATM    5  C4  UNL     1      23.760   1.317  52.178  1.00  0.00     0.038 A 
HETATM    6  C5  UNL     1      25.074   1.045  52.509  1.00  0.00     0.003 A 
HETATM    7  C6  UNL     1      25.424   0.135  53.457  1.00  0.00     0.001 A 
HETATM    8  C7  UNL     1      24.400  -0.534  54.105  1.00  0.00     0.011 A 
HETATM    9  C8  UNL     1      23.040  -0.327  53.840  1.00  0.00    -0.007 A 
HETATM   10  C9  UNL     1      22.266  -1.203  54.711  1.00  0.00     0.161 C 
HETATM   11  N3  UNL     1      20.987  -1.630  54.182  1.00  0.00    -0.382 N 
HETATM   12  C10 UNL     1      20.016  -0.947  53.380  1.00  0.00     0.078 C 
HETATM   13  C11 UNL     1      18.759  -1.347  53.531  1.00  0.00     0.012 C 
HETATM   14  H8  UNL     1      20.737  -2.629  54.445  1.00  0.00     0.160 HD
ENDROOT
BRANCH  13  15
HETATM   15  C12 UNL     1      17.403  -1.101  53.074  1.00  0.00     0.069 C 
BRANCH  15  16
HETATM   16  C13 UNL     1      16.677  -2.419  52.986  1.00  0.00    -0.037 A 
HETATM   17  C14 UNL     1      17.253  -3.525  53.600  1.00  0.00     0.009 A 
HETATM   18  C15 UNL     1      16.727  -4.811  53.623  1.00  0.00     0.001 A 
HETATM   19  C16 UNL     1      15.516  -4.965  52.962  1.00  0.00     0.001 A 
HETATM   20  C17 UNL     1      14.925  -3.895  52.347  1.00  0.00     0.019 A 
HETATM   21  C18 UNL     1      15.478  -2.624  52.344  1.00  0.00     0.017 A 
HETATM   22 BR1  UNL     1      14.660  -1.138  51.490  1.00  0.00    -0.051 Br
ENDBRANCH  15  16
ENDBRANCH  13  15
BRANCH   1  23
HETATM   23  P1  UNL     1      19.785   1.599  50.341  1.00  0.00     0.167 P 
BRANCH  23  24
HETATM   24  C1  UNL     1      20.918   1.305  49.186  1.00  0.00     0.009 C 
BRANCH  24  25
HETATM   25  N1  UNL     1      21.701   0.973  48.236  1.00  0.00    -0.256 NA
HETATM   26  H1  UNL     1      22.574   0.398  48.438  1.00  0.00     0.197 HD
ENDBRANCH  24  25
ENDBRANCH  23  24
ENDBRANCH   1  23
TORSDOF 5
ENDMDL
