MODEL 1
REMARK VINA RESULT:      -7.6      0.000      0.000
REMARK  5 active torsions:
REMARK  status: ('A' for Active; 'I' for Inactive)
REMARK    1  A    between atoms: C2_2  and  C3_3 
REMARK    2  A    between atoms: C3_3  and  C4_4 
REMARK    3  A    between atoms: C4_4  and  N1_6 
REMARK    4  A    between atoms: N1_6  and  C5_7 
REMARK    5  A    between atoms: C15_22  and  C16_23 
ROOT
HETATM    1  C5  UNL     1      20.897   1.681  52.230  1.00  0.00     0.179 C 
HETATM    2  C6  UNL     1      21.504   3.060  52.147  1.00  0.00     0.122 C 
HETATM    3  N2  UNL     1      21.453   4.275  51.769  1.00  0.00    -0.242 NA
HETATM    4  C7  UNL     1      22.500   5.231  52.036  1.00  0.00     0.324 C 
HETATM    5  N3  UNL     1      23.495   5.239  51.412  1.00  0.00    -0.323 NA
HETATM    6  N4  UNL     1      24.643   5.375  50.815  1.00  0.00    -0.253 N 
HETATM    7  C8  UNL     1      25.709   4.759  50.095  1.00  0.00     0.275 C 
HETATM    8  N5  UNL     1      26.475   3.760  50.796  1.00  0.00    -0.372 N 
HETATM    9  C9  UNL     1      25.990   2.564  51.375  1.00  0.00     0.032 A 
HETATM   10  C10 UNL     1      26.828   1.775  52.127  1.00  0.00     0.029 A 
HETATM   11  C11 UNL     1      26.414   0.628  52.744  1.00  0.00     0.005 A 
HETATM   12  C12 UNL     1      25.115   0.176  52.657  1.00  0.00     0.037 A 
HETATM   13  C13 UNL     1      24.222   0.916  51.920  1.00  0.00     0.071 A 
HETATM   14  C14 UNL     1      24.730   2.077  51.319  1.00  0.00     0.065 A 
HETATM   15  O1  UNL     1      22.988   0.868  51.599  1.00  0.00    -0.343 OA
HETATM   16  C15 UNL     1      21.730   0.773  51.289  1.00  0.00     0.158 C 
HETATM   17  H7  UNL     1      24.594   6.405  51.075  1.00  0.00     0.197 HD
HETATM   18  H10 UNL     1      27.522   3.926  50.895  1.00  0.00     0.161 HD
ENDROOT
BRANCH   1  19
HETATM   19  N1  UNL     1      21.051   1.191  53.595  1.00  0.00    -0.264 NA
BRANCH  19  20
HETATM   20  C4  UNL     1      20.772  -0.055  53.878  1.00  0.00     0.128 C 
HETATM   21 CL1  UNL     1      19.195  -0.708  53.402  1.00  0.00    -0.062 Cl
BRANCH  20  22
HETATM   22  C3  UNL     1      21.238  -1.262  54.471  1.00  0.00     0.094 C 
BRANCH  22  23
HETATM   23  C2  UNL     1      22.465  -1.369  54.958  1.00  0.00    -0.152 C 
HETATM   24  C1  UNL     1      23.573  -1.371  55.681  1.00  0.00     0.096 C 
ENDBRANCH  22  23
ENDBRANCH  20  22
ENDBRANCH  19  20
ENDBRANCH   1  19
BRANCH  16  25
HETATM   25  C16 UNL     1      21.412   1.155  49.846  1.00  0.00     0.030 C 
HETATM   26  C17 UNL     1      19.923   1.131  49.689  1.00  0.00     0.007 C 
ENDBRANCH  16  25
TORSDOF 5
ENDMDL
MODEL 2
REMARK VINA RESULT:      -7.0      2.399      3.409
REMARK  5 active torsions:
REMARK  status: ('A' for Active; 'I' for Inactive)
REMARK    1  A    between atoms: C2_2  and  C3_3 
REMARK    2  A    between atoms: C3_3  and  C4_4 
REMARK    3  A    between atoms: C4_4  and  N1_6 
REMARK    4  A    between atoms: N1_6  and  C5_7 
REMARK    5  A    between atoms: C15_22  and  C16_23 
ROOT
HETATM    1  C5  UNL     1      22.427   2.522  51.510  1.00  0.00     0.179 C 
HETATM    2  C6  UNL     1      22.170   4.008  51.439  1.00  0.00     0.122 C 
HETATM    3  N2  UNL     1      21.367   4.994  51.384  1.00  0.00    -0.242 NA
HETATM    4  C7  UNL     1      21.804   6.368  51.326  1.00  0.00     0.324 C 
HETATM    5  N3  UNL     1      22.209   6.840  50.330  1.00  0.00    -0.323 NA
HETATM    6  N4  UNL     1      22.677   7.501  49.312  1.00  0.00    -0.253 N 
HETATM    7  C8  UNL     1      23.381   7.468  48.071  1.00  0.00     0.275 C 
HETATM    8  N5  UNL     1      24.761   7.055  48.118  1.00  0.00    -0.372 N 
HETATM    9  C9  UNL     1      25.268   5.824  48.598  1.00  0.00     0.032 A 
HETATM   10  C10 UNL     1      26.625   5.632  48.699  1.00  0.00     0.029 A 
HETATM   11  C11 UNL     1      27.179   4.482  49.188  1.00  0.00     0.005 A 
HETATM   12  C12 UNL     1      26.410   3.424  49.621  1.00  0.00     0.037 A 
HETATM   13  C13 UNL     1      25.042   3.548  49.550  1.00  0.00     0.071 A 
HETATM   14  C14 UNL     1      24.558   4.759  49.032  1.00  0.00     0.065 A 
HETATM   15  O1  UNL     1      24.011   2.851  49.833  1.00  0.00    -0.343 OA
HETATM   16  C15 UNL     1      22.990   2.104  50.127  1.00  0.00     0.158 C 
HETATM   17  H7  UNL     1      22.283   8.376  49.768  1.00  0.00     0.197 HD
HETATM   18  H10 UNL     1      25.490   7.741  47.754  1.00  0.00     0.161 HD
ENDROOT
BRANCH   1  19
HETATM   19  N1  UNL     1      23.453   2.280  52.516  1.00  0.00    -0.264 NA
BRANCH  19  20
HETATM   20  C4  UNL     1      23.898   1.066  52.718  1.00  0.00     0.128 C 
HETATM   21 CL1  UNL     1      25.558   0.672  52.241  1.00  0.00    -0.062 Cl
BRANCH  20  22
HETATM   22  C3  UNL     1      23.593  -0.233  53.215  1.00  0.00     0.094 C 
BRANCH  22  23
HETATM   23  C2  UNL     1      22.498  -0.468  53.920  1.00  0.00    -0.152 C 
HETATM   24  C1  UNL     1      21.477  -0.464  54.762  1.00  0.00     0.096 C 
ENDBRANCH  22  23
ENDBRANCH  20  22
ENDBRANCH  19  20
ENDBRANCH   1  19
BRANCH  16  25
HETATM   25  C16 UNL     1      21.857   2.165  49.107  1.00  0.00     0.030 C 
HETATM   26  C17 UNL     1      20.900   1.058  49.426  1.00  0.00     0.007 C 
ENDBRANCH  16  25
TORSDOF 5
ENDMDL
MODEL 3
REMARK VINA RESULT:      -7.0      2.534      5.600
REMARK  5 active torsions:
REMARK  status: ('A' for Active; 'I' for Inactive)
REMARK    1  A    between atoms: C2_2  and  C3_3 
REMARK    2  A    between atoms: C3_3  and  C4_4 
REMARK    3  A    between atoms: C4_4  and  N1_6 
REMARK    4  A    between atoms: N1_6  and  C5_7 
REMARK    5  A    between atoms: C15_22  and  C16_23 
ROOT
HETATM    1  C5  UNL     1      24.254   2.411  51.364  1.00  0.00     0.179 C 
HETATM    2  C6  UNL     1      23.211   1.982  50.361  1.00  0.00     0.122 C 
HETATM    3  N2  UNL     1      22.529   2.196  49.307  1.00  0.00    -0.242 NA
HETATM    4  C7  UNL     1      21.554   1.266  48.793  1.00  0.00     0.324 C 
HETATM    5  N3  UNL     1      20.489   1.166  49.277  1.00  0.00    -0.323 NA
HETATM    6  N4  UNL     1      19.279   0.941  49.699  1.00  0.00    -0.253 N 
HETATM    7  C8  UNL     1      18.364   0.936  50.793  1.00  0.00     0.275 C 
HETATM    8  N5  UNL     1      18.640   0.016  51.868  1.00  0.00    -0.372 N 
HETATM    9  C9  UNL     1      19.809  -0.040  52.663  1.00  0.00     0.032 A 
HETATM   10  C10 UNL     1      19.978  -1.064  53.565  1.00  0.00     0.029 A 
HETATM   11  C11 UNL     1      21.098  -1.196  54.338  1.00  0.00     0.005 A 
HETATM   12  C12 UNL     1      22.148  -0.307  54.266  1.00  0.00     0.037 A 
HETATM   13  C13 UNL     1      22.047   0.743  53.384  1.00  0.00     0.071 A 
HETATM   14  C14 UNL     1      20.863   0.806  52.633  1.00  0.00     0.065 A 
HETATM   15  O1  UNL     1      22.750   1.741  53.014  1.00  0.00    -0.343 OA
HETATM   16  C15 UNL     1      23.495   2.749  52.674  1.00  0.00     0.158 C 
HETATM   17  H7  UNL     1      19.040   0.664  48.701  1.00  0.00     0.197 HD
HETATM   18  H10 UNL     1      17.892  -0.705  52.100  1.00  0.00     0.161 HD
ENDROOT
BRANCH   1  19
HETATM   19  N1  UNL     1      25.137   1.280  51.624  1.00  0.00    -0.264 NA
BRANCH  19  20
HETATM   20  C4  UNL     1      26.027   1.352  52.580  1.00  0.00     0.128 C 
HETATM   21 CL1  UNL     1      25.785   0.392  54.049  1.00  0.00    -0.062 Cl
BRANCH  20  22
HETATM   22  C3  UNL     1      27.255   1.934  53.005  1.00  0.00     0.094 C 
BRANCH  22  23
HETATM   23  C2  UNL     1      28.254   1.194  53.459  1.00  0.00    -0.152 C 
HETATM   24  C1  UNL     1      29.407   0.691  53.870  1.00  0.00     0.096 C 
ENDBRANCH  22  23
ENDBRANCH  20  22
ENDBRANCH  19  20
ENDBRANCH   1  19
BRANCH  16  25
HETATM   25  C16 UNL     1      22.726   4.051  52.462  1.00  0.00     0.030 C 
HETATM   26  C17 UNL     1      23.720   5.107  52.089  1.00  0.00     0.007 C 
ENDBRANCH  16  25
TORSDOF 5
ENDMDL
MODEL 4
REMARK VINA RESULT:      -6.9      2.452      4.217
REMARK  5 active torsions:
REMARK  status: ('A' for Active; 'I' for Inactive)
REMARK    1  A    between atoms: C2_2  and  C3_3 
REMARK    2  A    between atoms: C3_3  and  C4_4 
REMARK    3  A    between atoms: C4_4  and  N1_6 
REMARK    4  A    between atoms: N1_6  and  C5_7 
REMARK    5  A    between atoms: C15_22  and  C16_23 
ROOT
HETATM    1  C5  UNL     1      20.631   2.754  51.083  1.00  0.00     0.179 C 
HETATM    2  C6  UNL     1      21.910   3.150  51.779  1.00  0.00     0.122 C 
HETATM    3  N2  UNL     1      23.016   3.782  51.795  1.00  0.00    -0.242 NA
HETATM    4  C7  UNL     1      23.925   3.754  52.915  1.00  0.00     0.324 C 
HETATM    5  N3  UNL     1      24.626   2.832  53.112  1.00  0.00    -0.323 NA
HETATM    6  N4  UNL     1      25.457   1.894  53.460  1.00  0.00    -0.253 N 
HETATM    7  C8  UNL     1      25.772   0.503  53.469  1.00  0.00     0.275 C 
HETATM    8  N5  UNL     1      24.882  -0.361  54.202  1.00  0.00    -0.372 N 
HETATM    9  C9  UNL     1      23.494  -0.534  53.989  1.00  0.00     0.032 A 
HETATM   10  C10 UNL     1      22.755  -1.298  54.860  1.00  0.00     0.029 A 
HETATM   11  C11 UNL     1      21.406  -1.476  54.732  1.00  0.00     0.005 A 
HETATM   12  C12 UNL     1      20.682  -0.896  53.713  1.00  0.00     0.037 A 
HETATM   13  C13 UNL     1      21.358  -0.117  52.803  1.00  0.00     0.071 A 
HETATM   14  C14 UNL     1      22.741   0.010  53.007  1.00  0.00     0.065 A 
HETATM   15  O1  UNL     1      21.092   0.573  51.765  1.00  0.00    -0.343 OA
HETATM   16  C15 UNL     1      20.778   1.257  50.705  1.00  0.00     0.158 C 
HETATM   17  H7  UNL     1      26.058   2.661  53.887  1.00  0.00     0.197 HD
HETATM   18  H10 UNL     1      25.301  -0.938  54.992  1.00  0.00     0.161 HD
ENDROOT
BRANCH   1  19
HETATM   19  N1  UNL     1      19.531   2.882  52.031  1.00  0.00    -0.264 NA
BRANCH  19  20
HETATM   20  C4  UNL     1      18.300   2.691  51.634  1.00  0.00     0.128 C 
HETATM   21 CL1  UNL     1      17.176   4.060  51.637  1.00  0.00    -0.062 Cl
BRANCH  20  22
HETATM   22  C3  UNL     1      17.354   1.748  51.140  1.00  0.00     0.094 C 
BRANCH  22  23
HETATM   23  C2  UNL     1      17.409   0.468  51.473  1.00  0.00    -0.152 C 
HETATM   24  C1  UNL     1      17.410  -0.715  52.068  1.00  0.00     0.096 C 
ENDBRANCH  22  23
ENDBRANCH  20  22
ENDBRANCH  19  20
ENDBRANCH   1  19
BRANCH  16  25
HETATM   25  C16 UNL     1      21.788   1.145  49.567  1.00  0.00     0.030 C 
HETATM   26  C17 UNL     1      21.163   1.748  48.347  1.00  0.00     0.007 C 
ENDBRANCH  16  25
TORSDOF 5
ENDMDL
MODEL 5
REMARK VINA RESULT:      -6.7      2.549      6.044
REMARK  5 active torsions:
REMARK  status: ('A' for Active; 'I' for Inactive)
REMARK    1  A    between atoms: C2_2  and  C3_3 
REMARK    2  A    between atoms: C3_3  and  C4_4 
REMARK    3  A    between atoms: C4_4  and  N1_6 
REMARK    4  A    between atoms: N1_6  and  C5_7 
REMARK    5  A    between atoms: C15_22  and  C16_23 
ROOT
HETATM    1  C5  UNL     1      23.019   3.606  50.135  1.00  0.00     0.179 C 
HETATM    2  C6  UNL     1      21.877   2.625  50.028  1.00  0.00     0.122 C 
HETATM    3  N2  UNL     1      20.663   2.360  49.748  1.00  0.00    -0.242 NA
HETATM    4  C7  UNL     1      20.093   1.041  49.874  1.00  0.00     0.324 C 
HETATM    5  N3  UNL     1      19.785   0.605  50.920  1.00  0.00    -0.323 NA
HETATM    6  N4  UNL     1      19.397  -0.013  51.997  1.00  0.00    -0.253 N 
HETATM    7  C8  UNL     1      19.549  -0.198  53.404  1.00  0.00     0.275 C 
HETATM    8  N5  UNL     1      20.811  -0.725  53.858  1.00  0.00    -0.372 N 
HETATM    9  C9  UNL     1      22.094  -0.166  53.651  1.00  0.00     0.032 A 
HETATM   10  C10 UNL     1      23.217  -0.861  54.035  1.00  0.00     0.029 A 
HETATM   11  C11 UNL     1      24.485  -0.393  53.832  1.00  0.00     0.005 A 
HETATM   12  C12 UNL     1      24.732   0.817  53.222  1.00  0.00     0.037 A 
HETATM   13  C13 UNL     1      23.654   1.566  52.812  1.00  0.00     0.071 A 
HETATM   14  C14 UNL     1      22.389   1.014  53.062  1.00  0.00     0.065 A 
HETATM   15  O1  UNL     1      23.441   2.682  52.232  1.00  0.00    -0.343 OA
HETATM   16  C15 UNL     1      23.270   3.830  51.648  1.00  0.00     0.158 C 
HETATM   17  H7  UNL     1      18.700  -0.531  51.384  1.00  0.00     0.197 HD
HETATM   18  H10 UNL     1      20.791  -1.636  54.410  1.00  0.00     0.161 HD
ENDROOT
BRANCH   1  19
HETATM   19  N1  UNL     1      24.209   2.992  49.557  1.00  0.00    -0.264 NA
BRANCH  19  20
HETATM   20  C4  UNL     1      25.377   3.559  49.713  1.00  0.00     0.128 C 
HETATM   21 CL1  UNL     1      26.617   2.718  50.659  1.00  0.00    -0.062 Cl
BRANCH  20  22
HETATM   22  C3  UNL     1      26.187   4.692  49.417  1.00  0.00     0.094 C 
BRANCH  22  23
HETATM   23  C2  UNL     1      25.674   5.795  48.893  1.00  0.00    -0.152 C 
HETATM   24  C1  UNL     1      24.930   6.734  48.330  1.00  0.00     0.096 C 
ENDBRANCH  22  23
ENDBRANCH  20  22
ENDBRANCH  19  20
ENDBRANCH   1  19
BRANCH  16  25
HETATM   25  C16 UNL     1      22.114   4.652  52.211  1.00  0.00     0.030 C 
HETATM   26  C17 UNL     1      22.014   5.907  51.401  1.00  0.00     0.007 C 
ENDBRANCH  16  25
TORSDOF 5
ENDMDL
MODEL 6
REMARK VINA RESULT:      -6.6      2.867      6.238
REMARK  5 active torsions:
REMARK  status: ('A' for Active; 'I' for Inactive)
REMARK    1  A    between atoms: C2_2  and  C3_3 
REMARK    2  A    between atoms: C3_3  and  C4_4 
REMARK    3  A    between atoms: C4_4  and  N1_6 
REMARK    4  A    between atoms: N1_6  and  C5_7 
REMARK    5  A    between atoms: C15_22  and  C16_23 
ROOT
HETATM    1  C5  UNL     1      23.393   4.237  50.060  1.00  0.00     0.179 C 
HETATM    2  C6  UNL     1      22.549   2.987  50.125  1.00  0.00     0.122 C 
HETATM    3  N2  UNL     1      21.412   2.417  50.176  1.00  0.00    -0.242 NA
HETATM    4  C7  UNL     1      21.247   0.985  50.227  1.00  0.00     0.324 C 
HETATM    5  N3  UNL     1      21.421   0.384  51.221  1.00  0.00    -0.323 NA
HETATM    6  N4  UNL     1      21.575  -0.416  52.235  1.00  0.00    -0.253 N 
HETATM    7  C8  UNL     1      22.230  -0.681  53.475  1.00  0.00     0.275 C 
HETATM    8  N5  UNL     1      23.658  -0.870  53.429  1.00  0.00    -0.372 N 
HETATM    9  C9  UNL     1      24.625   0.046  52.953  1.00  0.00     0.032 A 
HETATM   10  C10 UNL     1      25.942  -0.336  52.853  1.00  0.00     0.029 A 
HETATM   11  C11 UNL     1      26.919   0.488  52.368  1.00  0.00     0.005 A 
HETATM   12  C12 UNL     1      26.653   1.770  51.941  1.00  0.00     0.037 A 
HETATM   13  C13 UNL     1      25.355   2.219  52.013  1.00  0.00     0.071 A 
HETATM   14  C14 UNL     1      24.416   1.311  52.525  1.00  0.00     0.065 A 
HETATM   15  O1  UNL     1      24.702   3.278  51.734  1.00  0.00    -0.343 OA
HETATM   16  C15 UNL     1      24.078   4.381  51.444  1.00  0.00     0.158 C 
HETATM   17  H7  UNL     1      20.857  -1.050  51.775  1.00  0.00     0.197 HD
HETATM   18  H10 UNL     1      24.040  -1.797  53.789  1.00  0.00     0.161 HD
ENDROOT
BRANCH   1  19
HETATM   19  N1  UNL     1      24.430   4.041  49.054  1.00  0.00    -0.264 NA
BRANCH  19  20
HETATM   20  C4  UNL     1      25.499   4.794  49.062  1.00  0.00     0.128 C 
HETATM   21 CL1  UNL     1      27.091   4.021  49.157  1.00  0.00    -0.062 Cl
BRANCH  20  22
HETATM   22  C3  UNL     1      26.004   6.125  49.020  1.00  0.00     0.094 C 
BRANCH  22  23
HETATM   23  C2  UNL     1      27.093   6.435  48.335  1.00  0.00    -0.152 C 
HETATM   24  C1  UNL     1      28.256   6.882  47.888  1.00  0.00     0.096 C 
ENDBRANCH  22  23
ENDBRANCH  20  22
ENDBRANCH  19  20
ENDBRANCH   1  19
BRANCH  16  25
HETATM   25  C16 UNL     1      23.018   4.785  52.465  1.00  0.00     0.030 C 
HETATM   26  C17 UNL     1      23.725   5.123  53.741  1.00  0.00     0.007 C 
ENDBRANCH  16  25
TORSDOF 5
ENDMDL
MODEL 7
REMARK VINA RESULT:      -6.4      9.399     12.104
REMARK  5 active torsions:
REMARK  status: ('A' for Active; 'I' for Inactive)
REMARK    1  A    between atoms: C2_2  and  C3_3 
REMARK    2  A    between atoms: C3_3  and  C4_4 
REMARK    3  A    between atoms: C4_4  and  N1_6 
REMARK    4  A    between atoms: N1_6  and  C5_7 
REMARK    5  A    between atoms: C15_22  and  C16_23 
ROOT
HETATM    1  C5  UNL     1      33.576   6.158  46.343  1.00  0.00     0.179 C 
HETATM    2  C6  UNL     1      32.930   7.299  45.596  1.00  0.00     0.122 C 
HETATM    3  N2  UNL     1      33.009   8.417  44.992  1.00  0.00    -0.242 NA
HETATM    4  C7  UNL     1      31.868   9.088  44.419  1.00  0.00     0.324 C 
HETATM    5  N3  UNL     1      31.105   9.679  45.088  1.00  0.00    -0.323 NA
HETATM    6  N4  UNL     1      30.179  10.367  45.690  1.00  0.00    -0.253 N 
HETATM    7  C8  UNL     1      29.419  10.588  46.877  1.00  0.00     0.275 C 
HETATM    8  N5  UNL     1      28.549   9.520  47.300  1.00  0.00    -0.372 N 
HETATM    9  C9  UNL     1      28.919   8.193  47.617  1.00  0.00     0.032 A 
HETATM   10  C10 UNL     1      27.951   7.253  47.879  1.00  0.00     0.029 A 
HETATM   11  C11 UNL     1      28.239   5.946  48.156  1.00  0.00     0.005 A 
HETATM   12  C12 UNL     1      29.533   5.472  48.193  1.00  0.00     0.037 A 
HETATM   13  C13 UNL     1      30.553   6.358  47.941  1.00  0.00     0.071 A 
HETATM   14  C14 UNL     1      30.169   7.680  47.669  1.00  0.00     0.065 A 
HETATM   15  O1  UNL     1      31.827   6.342  47.872  1.00  0.00    -0.343 OA
HETATM   16  C15 UNL     1      33.124   6.283  47.821  1.00  0.00     0.158 C 
HETATM   17  H7  UNL     1      30.079  10.919  44.787  1.00  0.00     0.197 HD
HETATM   18  H10 UNL     1      27.511   9.741  47.388  1.00  0.00     0.161 HD
ENDROOT
BRANCH   1  19
HETATM   19  N1  UNL     1      33.057   4.904  45.808  1.00  0.00    -0.264 NA
BRANCH  19  20
HETATM   20  C4  UNL     1      33.338   3.774  46.403  1.00  0.00     0.128 C 
HETATM   21 CL1  UNL     1      34.901   3.003  46.084  1.00  0.00    -0.062 Cl
BRANCH  20  22
HETATM   22  C3  UNL     1      32.881   2.772  47.306  1.00  0.00     0.094 C 
BRANCH  22  23
HETATM   23  C2  UNL     1      32.548   1.560  46.890  1.00  0.00    -0.152 C 
HETATM   24  C1  UNL     1      32.062   0.342  46.713  1.00  0.00     0.096 C 
ENDBRANCH  22  23
ENDBRANCH  20  22
ENDBRANCH  19  20
ENDBRANCH   1  19
BRANCH  16  25
HETATM   25  C16 UNL     1      33.829   7.486  48.440  1.00  0.00     0.030 C 
HETATM   26  C17 UNL     1      35.304   7.238  48.356  1.00  0.00     0.007 C 
ENDBRANCH  16  25
TORSDOF 5
ENDMDL
MODEL 8
REMARK VINA RESULT:      -6.3      2.528      5.219
REMARK  5 active torsions:
REMARK  status: ('A' for Active; 'I' for Inactive)
REMARK    1  A    between atoms: C2_2  and  C3_3 
REMARK    2  A    between atoms: C3_3  and  C4_4 
REMARK    3  A    between atoms: C4_4  and  N1_6 
REMARK    4  A    between atoms: N1_6  and  C5_7 
REMARK    5  A    between atoms: C15_22  and  C16_23 
ROOT
HETATM    1  C5  UNL     1      22.590   2.511  51.230  1.00  0.00     0.179 C 
HETATM    2  C6  UNL     1      22.043   1.426  52.125  1.00  0.00     0.122 C 
HETATM    3  N2  UNL     1      21.190   1.013  52.975  1.00  0.00    -0.242 NA
HETATM    4  C7  UNL     1      21.209  -0.318  53.532  1.00  0.00     0.324 C 
HETATM    5  N3  UNL     1      21.967  -0.618  54.377  1.00  0.00    -0.323 NA
HETATM    6  N4  UNL     1      22.738  -1.099  55.308  1.00  0.00    -0.253 N 
HETATM    7  C8  UNL     1      24.000  -1.055  55.972  1.00  0.00     0.275 C 
HETATM    8  N5  UNL     1      25.160  -1.392  55.187  1.00  0.00    -0.372 N 
HETATM    9  C9  UNL     1      25.604  -0.756  54.004  1.00  0.00     0.032 A 
HETATM   10  C10 UNL     1      26.659  -1.280  53.296  1.00  0.00     0.029 A 
HETATM   11  C11 UNL     1      27.113  -0.736  52.128  1.00  0.00     0.005 A 
HETATM   12  C12 UNL     1      26.541   0.386  51.569  1.00  0.00     0.037 A 
HETATM   13  C13 UNL     1      25.480   0.964  52.225  1.00  0.00     0.071 A 
HETATM   14  C14 UNL     1      25.079   0.344  53.418  1.00  0.00     0.065 A 
HETATM   15  O1  UNL     1      24.694   1.956  52.065  1.00  0.00    -0.343 OA
HETATM   16  C15 UNL     1      23.922   2.983  51.868  1.00  0.00     0.158 C 
HETATM   17  H7  UNL     1      21.944  -1.764  55.546  1.00  0.00     0.197 HD
HETATM   18  H10 UNL     1      25.758  -2.206  55.523  1.00  0.00     0.161 HD
ENDROOT
BRANCH   1  19
HETATM   19  N1  UNL     1      22.887   1.928  49.927  1.00  0.00    -0.264 NA
BRANCH  19  20
HETATM   20  C4  UNL     1      22.021   2.031  48.952  1.00  0.00     0.128 C 
HETATM   21 CL1  UNL     1      22.611   2.049  47.282  1.00  0.00    -0.062 Cl
BRANCH  20  22
HETATM   22  C3  UNL     1      20.645   2.147  48.605  1.00  0.00     0.094 C 
BRANCH  22  23
HETATM   23  C2  UNL     1      19.693   1.598  49.344  1.00  0.00    -0.152 C 
HETATM   24  C1  UNL     1      18.947   0.865  50.155  1.00  0.00     0.096 C 
ENDBRANCH  22  23
ENDBRANCH  20  22
ENDBRANCH  19  20
ENDBRANCH   1  19
BRANCH  16  25
HETATM   25  C16 UNL     1      23.597   3.772  53.133  1.00  0.00     0.030 C 
HETATM   26  C17 UNL     1      22.873   5.015  52.718  1.00  0.00     0.007 C 
ENDBRANCH  16  25
TORSDOF 5
ENDMDL
MODEL 9
REMARK VINA RESULT:      -6.3      8.941     12.059
REMARK  5 active torsions:
REMARK  status: ('A' for Active; 'I' for Inactive)
REMARK    1  A    between atoms: C2_2  and  C3_3 
REMARK    2  A    between atoms: C3_3  and  C4_4 
REMARK    3  A    between atoms: C4_4  and  N1_6 
REMARK    4  A    between atoms: N1_6  and  C5_7 
REMARK    5  A    between atoms: C15_22  and  C16_23 
ROOT
HETATM    1  C5  UNL     1      32.884   7.259  46.250  1.00  0.00     0.179 C 
HETATM    2  C6  UNL     1      32.038   8.489  46.032  1.00  0.00     0.122 C 
HETATM    3  N2  UNL     1      31.929   9.747  45.864  1.00  0.00    -0.242 NA
HETATM    4  C7  UNL     1      30.662  10.414  45.688  1.00  0.00     0.324 C 
HETATM    5  N3  UNL     1      29.953  10.630  46.598  1.00  0.00    -0.323 NA
HETATM    6  N4  UNL     1      29.065  10.938  47.498  1.00  0.00    -0.253 N 
HETATM    7  C8  UNL     1      28.465  10.633  48.756  1.00  0.00     0.275 C 
HETATM    8  N5  UNL     1      27.763   9.378  48.855  1.00  0.00    -0.372 N 
HETATM    9  C9  UNL     1      28.293   8.085  48.636  1.00  0.00     0.032 A 
HETATM   10  C10 UNL     1      27.460   6.992  48.640  1.00  0.00     0.029 A 
HETATM   11  C11 UNL     1      27.902   5.720  48.400  1.00  0.00     0.005 A 
HETATM   12  C12 UNL     1      29.224   5.441  48.132  1.00  0.00     0.037 A 
HETATM   13  C13 UNL     1      30.115   6.489  48.113  1.00  0.00     0.071 A 
HETATM   14  C14 UNL     1      29.578   7.759  48.372  1.00  0.00     0.065 A 
HETATM   15  O1  UNL     1      31.361   6.669  47.913  1.00  0.00    -0.343 OA
HETATM   16  C15 UNL     1      32.638   6.805  47.712  1.00  0.00     0.158 C 
HETATM   17  H7  UNL     1      28.787  11.749  46.868  1.00  0.00     0.197 HD
HETATM   18  H10 UNL     1      26.733   9.414  49.121  1.00  0.00     0.161 HD
ENDROOT
BRANCH   1  19
HETATM   19  N1  UNL     1      32.408   6.208  45.357  1.00  0.00    -0.264 NA
BRANCH  19  20
HETATM   20  C4  UNL     1      33.006   5.045  45.340  1.00  0.00     0.128 C 
HETATM   21 CL1  UNL     1      34.392   4.811  44.261  1.00  0.00    -0.062 Cl
BRANCH  20  22
HETATM   22  C3  UNL     1      33.034   3.726  45.875  1.00  0.00     0.094 C 
BRANCH  22  23
HETATM   23  C2  UNL     1      33.813   3.407  46.897  1.00  0.00    -0.152 C 
HETATM   24  C1  UNL     1      34.739   3.319  47.839  1.00  0.00     0.096 C 
ENDBRANCH  22  23
ENDBRANCH  20  22
ENDBRANCH  19  20
ENDBRANCH   1  19
BRANCH  16  25
HETATM   25  C16 UNL     1      33.314   7.805  48.646  1.00  0.00     0.030 C 
HETATM   26  C17 UNL     1      34.792   7.698  48.431  1.00  0.00     0.007 C 
ENDBRANCH  16  25
TORSDOF 5
ENDMDL
