MODEL 1
REMARK VINA RESULT:      -7.6      0.000      0.000
REMARK  8 active torsions:
REMARK  status: ('A' for Active; 'I' for Inactive)
REMARK    1  A    between atoms: O1_2  and  C2_3 
REMARK    2  A    between atoms: C3_4  and  O2_5 
REMARK    3  A    between atoms: C5_7  and  O3_8 
REMARK    4  A    between atoms: C8_11  and  C9_12 
REMARK    5  A    between atoms: C9_12  and  C10_13 
REMARK    6  A    between atoms: C13_16  and  N1_17 
REMARK    7  A    between atoms: C13_16  and  N2_18 
REMARK    8  A    between atoms: N2_18  and  C14_19 
ROOT
HETATM    1  C10 UNL     1      21.436  -0.103  53.245  1.00  0.00     0.009 C 
HETATM    2  C11 UNL     1      22.681  -0.548  53.057  1.00  0.00     0.037 C 
HETATM    3  C12 UNL     1      23.220  -0.940  54.377  1.00  0.00     0.005 C 
HETATM    4  C13 UNL     1      24.464  -1.053  54.812  1.00  0.00     0.107 C 
HETATM    5  C20 UNL     1      21.996  -1.204  55.181  1.00  0.00     0.162 C 
HETATM    6  N3  UNL     1      21.103  -0.175  54.624  1.00  0.00    -0.389 N 
HETATM    7  H25 UNL     1      20.355   0.440  55.012  1.00  0.00     0.159 HD
ENDROOT
BRANCH   1   8
HETATM    8  C9  UNL     1      20.589   0.377  52.132  1.00  0.00     0.090 C 
BRANCH   8   9
HETATM    9  C8  UNL     1      21.221   1.540  51.420  1.00  0.00    -0.069 A 
HETATM   10  C7  UNL     1      21.078   2.715  52.310  1.00  0.00     0.073 A 
HETATM   11  C5  UNL     1      21.676   3.960  51.717  1.00  0.00     0.184 A 
HETATM   12  C3  UNL     1      22.245   3.659  50.406  1.00  0.00     0.108 A 
HETATM   13  C2  UNL     1      22.348   2.573  49.645  1.00  0.00     0.100 A 
HETATM   14  C21 UNL     1      21.762   1.376  50.234  1.00  0.00     0.042 A 
BRANCH  11  15
HETATM   15  O3  UNL     1      22.572   4.568  52.593  1.00  0.00    -0.384 OA
HETATM   16  C6  UNL     1      23.677   3.825  52.906  1.00  0.00     0.202 C 
ENDBRANCH  11  15
BRANCH  12  17
HETATM   17  O2  UNL     1      22.829   4.784  49.792  1.00  0.00    -0.355 OA
HETATM   18  C4  UNL     1      21.968   5.808  49.369  1.00  0.00     0.209 C 
ENDBRANCH  12  17
BRANCH  13  19
HETATM   19  O1  UNL     1      22.959   2.584  48.404  1.00  0.00    -0.353 OA
HETATM   20  C1  UNL     1      22.316   2.597  47.167  1.00  0.00     0.210 C 
ENDBRANCH  13  19
ENDBRANCH   8   9
ENDBRANCH   1   8
BRANCH   4  21
HETATM   21  N1  UNL     1      24.828  -1.452  56.144  1.00  0.00    -0.385 N 
HETATM   22  H16 UNL     1      25.662  -0.824  56.244  1.00  0.00     0.157 HD
HETATM   23  H17 UNL     1      24.288  -2.167  56.666  1.00  0.00     0.157 HD
ENDBRANCH   4  21
BRANCH   4  24
HETATM   24  N2  UNL     1      25.438  -0.742  53.843  1.00  0.00    -0.342 N 
HETATM   25  H18 UNL     1      25.781  -1.447  53.123  1.00  0.00     0.167 HD
BRANCH  24  26
HETATM   26  C14 UNL     1      26.261   0.325  53.394  1.00  0.00     0.034 A 
HETATM   27  C15 UNL     1      27.380   0.669  54.116  1.00  0.00     0.029 A 
HETATM   28  C16 UNL     1      28.223   1.693  53.739  1.00  0.00     0.004 A 
HETATM   29  C17 UNL     1      27.876   2.370  52.575  1.00  0.00     0.019 A 
HETATM   30  C18 UNL     1      26.765   2.087  51.788  1.00  0.00     0.013 A 
HETATM   31 BR1  UNL     1      26.384   3.073  50.218  1.00  0.00    -0.051 Br
HETATM   32  C19 UNL     1      25.974   1.031  52.253  1.00  0.00     0.048 A 
ENDBRANCH  24  26
ENDBRANCH   4  24
TORSDOF 8
ENDMDL
MODEL 2
REMARK VINA RESULT:      -7.4      4.554      6.933
REMARK  8 active torsions:
REMARK  status: ('A' for Active; 'I' for Inactive)
REMARK    1  A    between atoms: O1_2  and  C2_3 
REMARK    2  A    between atoms: C3_4  and  O2_5 
REMARK    3  A    between atoms: C5_7  and  O3_8 
REMARK    4  A    between atoms: C8_11  and  C9_12 
REMARK    5  A    between atoms: C9_12  and  C10_13 
REMARK    6  A    between atoms: C13_16  and  N1_17 
REMARK    7  A    between atoms: C13_16  and  N2_18 
REMARK    8  A    between atoms: N2_18  and  C14_19 
ROOT
HETATM    1  C10 UNL     1      23.649   2.970  51.590  1.00  0.00     0.009 C 
HETATM    2  C11 UNL     1      24.494   3.828  51.013  1.00  0.00     0.037 C 
HETATM    3  C12 UNL     1      24.119   5.190  51.453  1.00  0.00     0.005 C 
HETATM    4  C13 UNL     1      24.337   6.374  50.905  1.00  0.00     0.107 C 
HETATM    5  C20 UNL     1      23.393   4.948  52.728  1.00  0.00     0.162 C 
HETATM    6  N3  UNL     1      22.722   3.679  52.400  1.00  0.00    -0.389 N 
HETATM    7  H25 UNL     1      21.798   3.253  52.628  1.00  0.00     0.159 HD
ENDROOT
BRANCH   1   8
HETATM    8  C9  UNL     1      23.730   1.510  51.372  1.00  0.00     0.090 C 
BRANCH   8   9
HETATM    9  C8  UNL     1      24.803   0.885  52.221  1.00  0.00    -0.069 A 
HETATM   10  C7  UNL     1      26.095   1.183  51.564  1.00  0.00     0.073 A 
HETATM   11  C5  UNL     1      27.266   0.614  52.314  1.00  0.00     0.184 A 
HETATM   12  C3  UNL     1      26.796  -0.084  53.507  1.00  0.00     0.108 A 
HETATM   13  C2  UNL     1      25.608  -0.324  54.058  1.00  0.00     0.100 A 
HETATM   14  C21 UNL     1      24.485   0.232  53.315  1.00  0.00     0.042 A 
BRANCH  11  15
HETATM   15  O3  UNL     1      28.231   1.584  52.575  1.00  0.00    -0.384 OA
HETATM   16  C6  UNL     1      27.901   2.488  53.546  1.00  0.00     0.202 C 
ENDBRANCH  11  15
BRANCH  12  17
HETATM   17  O2  UNL     1      27.844  -0.642  54.265  1.00  0.00    -0.355 OA
HETATM   18  C4  UNL     1      28.830  -1.360  53.572  1.00  0.00     0.209 C 
ENDBRANCH  12  17
BRANCH  13  19
HETATM   19  O1  UNL     1      25.459  -1.040  55.232  1.00  0.00    -0.353 OA
HETATM   20  C1  UNL     1      24.252  -1.383  55.842  1.00  0.00     0.210 C 
ENDBRANCH  13  19
ENDBRANCH   8   9
ENDBRANCH   1   8
BRANCH   4  21
HETATM   21  N1  UNL     1      23.901   7.623  51.467  1.00  0.00    -0.385 N 
HETATM   22  H16 UNL     1      23.911   8.176  50.575  1.00  0.00     0.157 HD
HETATM   23  H17 UNL     1      23.694   7.725  52.478  1.00  0.00     0.157 HD
ENDBRANCH   4  21
BRANCH   4  24
HETATM   24  N2  UNL     1      25.051   6.319  49.693  1.00  0.00    -0.342 N 
HETATM   25  H18 UNL     1      24.579   6.175  48.751  1.00  0.00     0.167 HD
BRANCH  24  26
HETATM   26  C14 UNL     1      26.371   6.400  49.173  1.00  0.00     0.034 A 
HETATM   27  C15 UNL     1      27.038   5.245  48.835  1.00  0.00     0.029 A 
HETATM   28  C16 UNL     1      28.320   5.249  48.326  1.00  0.00     0.004 A 
HETATM   29  C17 UNL     1      28.911   6.498  48.172  1.00  0.00     0.019 A 
HETATM   30  C18 UNL     1      28.308   7.711  48.489  1.00  0.00     0.013 A 
HETATM   31 BR1  UNL     1      29.203   9.359  48.241  1.00  0.00    -0.051 Br
HETATM   32  C19 UNL     1      27.009   7.601  48.997  1.00  0.00     0.048 A 
ENDBRANCH  24  26
ENDBRANCH   4  24
TORSDOF 8
ENDMDL
MODEL 3
REMARK VINA RESULT:      -7.4      3.655      5.949
REMARK  8 active torsions:
REMARK  status: ('A' for Active; 'I' for Inactive)
REMARK    1  A    between atoms: O1_2  and  C2_3 
REMARK    2  A    between atoms: C3_4  and  O2_5 
REMARK    3  A    between atoms: C5_7  and  O3_8 
REMARK    4  A    between atoms: C8_11  and  C9_12 
REMARK    5  A    between atoms: C9_12  and  C10_13 
REMARK    6  A    between atoms: C13_16  and  N1_17 
REMARK    7  A    between atoms: C13_16  and  N2_18 
REMARK    8  A    between atoms: N2_18  and  C14_19 
ROOT
HETATM    1  C10 UNL     1      26.234   2.636  50.899  1.00  0.00     0.009 C 
HETATM    2  C11 UNL     1      25.304   1.938  51.555  1.00  0.00     0.037 C 
HETATM    3  C12 UNL     1      25.883   1.527  52.852  1.00  0.00     0.005 C 
HETATM    4  C13 UNL     1      25.574   0.534  53.669  1.00  0.00     0.107 C 
HETATM    5  C20 UNL     1      26.965   2.523  53.074  1.00  0.00     0.162 C 
HETATM    6  N3  UNL     1      27.415   2.720  51.686  1.00  0.00    -0.389 N 
HETATM    7  H25 UNL     1      28.335   2.891  51.227  1.00  0.00     0.159 HD
ENDROOT
BRANCH   1   8
HETATM    8  C9  UNL     1      25.998   3.207  49.557  1.00  0.00     0.090 C 
BRANCH   8   9
HETATM    9  C8  UNL     1      26.027   4.711  49.586  1.00  0.00    -0.069 A 
HETATM   10  C7  UNL     1      27.215   5.131  48.809  1.00  0.00     0.073 A 
HETATM   11  C5  UNL     1      27.366   6.625  48.754  1.00  0.00     0.184 A 
HETATM   12  C3  UNL     1      26.276   7.259  49.492  1.00  0.00     0.108 A 
HETATM   13  C2  UNL     1      25.221   6.829  50.179  1.00  0.00     0.100 A 
HETATM   14  C21 UNL     1      25.092   5.378  50.224  1.00  0.00     0.042 A 
BRANCH  11  15
HETATM   15  O3  UNL     1      27.497   7.081  47.445  1.00  0.00    -0.384 OA
HETATM   16  C6  UNL     1      28.765   7.435  47.075  1.00  0.00     0.202 C 
ENDBRANCH  11  15
BRANCH  12  17
HETATM   17  O2  UNL     1      26.352   8.666  49.478  1.00  0.00    -0.355 OA
HETATM   18  C4  UNL     1      27.387   9.263  50.212  1.00  0.00     0.209 C 
ENDBRANCH  12  17
BRANCH  13  19
HETATM   19  O1  UNL     1      24.328   7.687  50.794  1.00  0.00    -0.353 OA
HETATM   20  C1  UNL     1      22.940   7.669  50.661  1.00  0.00     0.210 C 
ENDBRANCH  13  19
ENDBRANCH   8   9
ENDBRANCH   1   8
BRANCH   4  21
HETATM   21  N1  UNL     1      26.242   0.264  54.912  1.00  0.00    -0.385 N 
HETATM   22  H16 UNL     1      26.276  -0.780  54.817  1.00  0.00     0.157 HD
HETATM   23  H17 UNL     1      26.519   1.025  55.561  1.00  0.00     0.157 HD
ENDBRANCH   4  21
BRANCH   4  24
HETATM   24  N2  UNL     1      24.505  -0.265  53.218  1.00  0.00    -0.342 N 
HETATM   25  H18 UNL     1      24.632  -1.059  52.522  1.00  0.00     0.167 HD
BRANCH  24  26
HETATM   26  C14 UNL     1      23.102  -0.437  53.368  1.00  0.00     0.034 A 
HETATM   27  C15 UNL     1      22.616  -1.111  54.463  1.00  0.00     0.029 A 
HETATM   28  C16 UNL     1      21.268  -1.315  54.673  1.00  0.00     0.004 A 
HETATM   29  C17 UNL     1      20.415  -0.797  53.703  1.00  0.00     0.019 A 
HETATM   30  C18 UNL     1      20.825  -0.105  52.568  1.00  0.00     0.013 A 
HETATM   31 BR1  UNL     1      19.579   0.560  51.309  1.00  0.00    -0.051 Br
HETATM   32  C19 UNL     1      22.210   0.051  52.448  1.00  0.00     0.048 A 
ENDBRANCH  24  26
ENDBRANCH   4  24
TORSDOF 8
ENDMDL
MODEL 4
REMARK VINA RESULT:      -7.4      6.281      8.626
REMARK  8 active torsions:
REMARK  status: ('A' for Active; 'I' for Inactive)
REMARK    1  A    between atoms: O1_2  and  C2_3 
REMARK    2  A    between atoms: C3_4  and  O2_5 
REMARK    3  A    between atoms: C5_7  and  O3_8 
REMARK    4  A    between atoms: C8_11  and  C9_12 
REMARK    5  A    between atoms: C9_12  and  C10_13 
REMARK    6  A    between atoms: C13_16  and  N1_17 
REMARK    7  A    between atoms: C13_16  and  N2_18 
REMARK    8  A    between atoms: N2_18  and  C14_19 
ROOT
HETATM    1  C10 UNL     1      26.784   6.778  48.807  1.00  0.00     0.009 C 
HETATM    2  C11 UNL     1      25.909   5.803  49.063  1.00  0.00     0.037 C 
HETATM    3  C12 UNL     1      25.215   6.142  50.324  1.00  0.00     0.005 C 
HETATM    4  C13 UNL     1      24.588   5.383  51.206  1.00  0.00     0.107 C 
HETATM    5  C20 UNL     1      25.374   7.619  50.414  1.00  0.00     0.162 C 
HETATM    6  N3  UNL     1      26.717   7.764  49.829  1.00  0.00    -0.389 N 
HETATM    7  H25 UNL     1      27.535   8.386  50.005  1.00  0.00     0.159 HD
ENDROOT
BRANCH   1   8
HETATM    8  C9  UNL     1      27.657   6.768  47.614  1.00  0.00     0.090 C 
BRANCH   8   9
HETATM    9  C8  UNL     1      29.112   6.776  47.997  1.00  0.00    -0.069 A 
HETATM   10  C7  UNL     1      29.523   8.196  48.079  1.00  0.00     0.073 A 
HETATM   11  C5  UNL     1      30.969   8.354  48.460  1.00  0.00     0.184 A 
HETATM   12  C3  UNL     1      31.576   7.039  48.650  1.00  0.00     0.108 A 
HETATM   13  C2  UNL     1      31.154   5.780  48.563  1.00  0.00     0.100 A 
HETATM   14  C21 UNL     1      29.752   5.646  48.191  1.00  0.00     0.042 A 
BRANCH  11  15
HETATM   15  O3  UNL     1      31.124   9.207  49.549  1.00  0.00    -0.384 OA
HETATM   16  C6  UNL     1      30.595  10.458  49.390  1.00  0.00     0.202 C 
ENDBRANCH  11  15
BRANCH  12  17
HETATM   17  O2  UNL     1      32.934   7.111  49.013  1.00  0.00    -0.355 OA
HETATM   18  C4  UNL     1      33.836   7.585  48.049  1.00  0.00     0.209 C 
ENDBRANCH  12  17
BRANCH  13  19
HETATM   19  O1  UNL     1      31.980   4.696  48.805  1.00  0.00    -0.353 OA
HETATM   20  C1  UNL     1      32.601   3.900  47.843  1.00  0.00     0.210 C 
ENDBRANCH  13  19
ENDBRANCH   8   9
ENDBRANCH   1   8
BRANCH   4  21
HETATM   21  N1  UNL     1      23.955   5.873  52.399  1.00  0.00    -0.385 N 
HETATM   22  H16 UNL     1      22.986   5.957  52.006  1.00  0.00     0.157 HD
HETATM   23  H17 UNL     1      24.487   6.027  53.277  1.00  0.00     0.157 HD
ENDBRANCH   4  21
BRANCH   4  24
HETATM   24  N2  UNL     1      24.584   4.012  50.879  1.00  0.00    -0.342 N 
HETATM   25  H18 UNL     1      24.194   3.639  49.963  1.00  0.00     0.167 HD
BRANCH  24  26
HETATM   26  C14 UNL     1      24.968   2.744  51.392  1.00  0.00     0.034 A 
HETATM   27  C15 UNL     1      26.265   2.314  51.234  1.00  0.00     0.029 A 
HETATM   28  C16 UNL     1      26.706   1.095  51.706  1.00  0.00     0.004 A 
HETATM   29  C17 UNL     1      25.758   0.314  52.358  1.00  0.00     0.019 A 
HETATM   30  C18 UNL     1      24.430   0.674  52.559  1.00  0.00     0.013 A 
HETATM   31 BR1  UNL     1      23.218  -0.466  53.461  1.00  0.00    -0.051 Br
HETATM   32  C19 UNL     1      24.081   1.927  52.045  1.00  0.00     0.048 A 
ENDBRANCH  24  26
ENDBRANCH   4  24
TORSDOF 8
ENDMDL
MODEL 5
REMARK VINA RESULT:      -7.3      4.532      6.778
REMARK  8 active torsions:
REMARK  status: ('A' for Active; 'I' for Inactive)
REMARK    1  A    between atoms: O1_2  and  C2_3 
REMARK    2  A    between atoms: C3_4  and  O2_5 
REMARK    3  A    between atoms: C5_7  and  O3_8 
REMARK    4  A    between atoms: C8_11  and  C9_12 
REMARK    5  A    between atoms: C9_12  and  C10_13 
REMARK    6  A    between atoms: C13_16  and  N1_17 
REMARK    7  A    between atoms: C13_16  and  N2_18 
REMARK    8  A    between atoms: N2_18  and  C14_19 
ROOT
HETATM    1  C10 UNL     1      23.362   3.169  51.266  1.00  0.00     0.009 C 
HETATM    2  C11 UNL     1      24.298   3.973  50.756  1.00  0.00     0.037 C 
HETATM    3  C12 UNL     1      24.050   5.335  51.275  1.00  0.00     0.005 C 
HETATM    4  C13 UNL     1      24.394   6.523  50.806  1.00  0.00     0.107 C 
HETATM    5  C20 UNL     1      23.278   5.089  52.523  1.00  0.00     0.162 C 
HETATM    6  N3  UNL     1      22.493   3.916  52.107  1.00  0.00    -0.389 N 
HETATM    7  H25 UNL     1      21.527   3.570  52.294  1.00  0.00     0.159 HD
ENDROOT
BRANCH   1   8
HETATM    8  C9  UNL     1      23.304   1.724  50.958  1.00  0.00     0.090 C 
BRANCH   8   9
HETATM    9  C8  UNL     1      23.876   0.899  52.078  1.00  0.00    -0.069 A 
HETATM   10  C7  UNL     1      22.731   0.426  52.888  1.00  0.00     0.073 A 
HETATM   11  C5  UNL     1      23.162  -0.421  54.053  1.00  0.00     0.184 A 
HETATM   12  C3  UNL     1      24.617  -0.548  54.059  1.00  0.00     0.108 A 
HETATM   13  C2  UNL     1      25.610  -0.097  53.297  1.00  0.00     0.100 A 
HETATM   14  C21 UNL     1      25.174   0.724  52.176  1.00  0.00     0.042 A 
BRANCH  11  15
HETATM   15  O3  UNL     1      22.491  -1.641  54.077  1.00  0.00    -0.384 OA
HETATM   16  C6  UNL     1      21.162  -1.570  54.389  1.00  0.00     0.202 C 
ENDBRANCH  11  15
BRANCH  12  17
HETATM   17  O2  UNL     1      25.093  -1.335  55.125  1.00  0.00    -0.355 OA
HETATM   18  C4  UNL     1      24.921  -0.835  56.424  1.00  0.00     0.209 C 
ENDBRANCH  12  17
BRANCH  13  19
HETATM   19  O1  UNL     1      26.939  -0.386  53.552  1.00  0.00    -0.353 OA
HETATM   20  C1  UNL     1      27.823   0.389  54.302  1.00  0.00     0.210 C 
ENDBRANCH  13  19
ENDBRANCH   8   9
ENDBRANCH   1   8
BRANCH   4  21
HETATM   21  N1  UNL     1      24.072   7.773  51.439  1.00  0.00    -0.385 N 
HETATM   22  H16 UNL     1      25.058   8.082  51.622  1.00  0.00     0.157 HD
HETATM   23  H17 UNL     1      23.090   8.081  51.572  1.00  0.00     0.157 HD
ENDBRANCH   4  21
BRANCH   4  24
HETATM   24  N2  UNL     1      25.123   6.472  49.602  1.00  0.00    -0.342 N 
HETATM   25  H18 UNL     1      24.658   6.408  48.648  1.00  0.00     0.167 HD
BRANCH  24  26
HETATM   26  C14 UNL     1      26.455   6.477  49.106  1.00  0.00     0.034 A 
HETATM   27  C15 UNL     1      27.073   5.284  48.814  1.00  0.00     0.029 A 
HETATM   28  C16 UNL     1      28.363   5.215  48.329  1.00  0.00     0.004 A 
HETATM   29  C17 UNL     1      29.014   6.431  48.151  1.00  0.00     0.019 A 
HETATM   30  C18 UNL     1      28.461   7.679  48.421  1.00  0.00     0.013 A 
HETATM   31 BR1  UNL     1      29.435   9.276  48.142  1.00  0.00    -0.051 Br
HETATM   32  C19 UNL     1      27.150   7.643  48.907  1.00  0.00     0.048 A 
ENDBRANCH  24  26
ENDBRANCH   4  24
TORSDOF 8
ENDMDL
MODEL 6
REMARK VINA RESULT:      -7.2      1.003      2.352
REMARK  8 active torsions:
REMARK  status: ('A' for Active; 'I' for Inactive)
REMARK    1  A    between atoms: O1_2  and  C2_3 
REMARK    2  A    between atoms: C3_4  and  O2_5 
REMARK    3  A    between atoms: C5_7  and  O3_8 
REMARK    4  A    between atoms: C8_11  and  C9_12 
REMARK    5  A    between atoms: C9_12  and  C10_13 
REMARK    6  A    between atoms: C13_16  and  N1_17 
REMARK    7  A    between atoms: C13_16  and  N2_18 
REMARK    8  A    between atoms: N2_18  and  C14_19 
ROOT
HETATM    1  C10 UNL     1      21.385  -0.381  53.128  1.00  0.00     0.009 C 
HETATM    2  C11 UNL     1      22.657  -0.766  52.994  1.00  0.00     0.037 C 
HETATM    3  C12 UNL     1      23.183  -1.053  54.346  1.00  0.00     0.005 C 
HETATM    4  C13 UNL     1      24.419  -1.071  54.815  1.00  0.00     0.107 C 
HETATM    5  C20 UNL     1      21.955  -1.340  55.136  1.00  0.00     0.162 C 
HETATM    6  N3  UNL     1      21.021  -0.395  54.502  1.00  0.00    -0.389 N 
HETATM    7  H25 UNL     1      20.232   0.198  54.837  1.00  0.00     0.159 HD
ENDROOT
BRANCH   1   8
HETATM    8  C9  UNL     1      20.542  -0.013  51.972  1.00  0.00     0.090 C 
BRANCH   8   9
HETATM    9  C8  UNL     1      20.997   1.277  51.347  1.00  0.00    -0.069 A 
HETATM   10  C7  UNL     1      20.938   1.086  49.881  1.00  0.00     0.073 A 
HETATM   11  C5  UNL     1      21.368   2.311  49.124  1.00  0.00     0.184 A 
HETATM   12  C3  UNL     1      21.728   3.370  50.063  1.00  0.00     0.108 A 
HETATM   13  C2  UNL     1      21.763   3.490  51.388  1.00  0.00     0.100 A 
HETATM   14  C21 UNL     1      21.345   2.293  52.104  1.00  0.00     0.042 A 
BRANCH  11  15
HETATM   15  O3  UNL     1      20.418   2.695  48.182  1.00  0.00    -0.384 OA
HETATM   16  C6  UNL     1      19.127   2.726  48.634  1.00  0.00     0.202 C 
ENDBRANCH  11  15
BRANCH  12  17
HETATM   17  O2  UNL     1      22.139   4.555  49.421  1.00  0.00    -0.355 OA
HETATM   18  C4  UNL     1      23.314   4.500  48.656  1.00  0.00     0.209 C 
ENDBRANCH  12  17
BRANCH  13  19
HETATM   19  O1  UNL     1      22.161   4.653  52.024  1.00  0.00    -0.353 OA
HETATM   20  C1  UNL     1      23.378   4.864  52.671  1.00  0.00     0.210 C 
ENDBRANCH  13  19
ENDBRANCH   8   9
ENDBRANCH   1   8
BRANCH   4  21
HETATM   21  N1  UNL     1      24.770  -1.375  56.175  1.00  0.00    -0.385 N 
HETATM   22  H16 UNL     1      23.998  -2.061  56.357  1.00  0.00     0.157 HD
HETATM   23  H17 UNL     1      25.584  -0.932  56.642  1.00  0.00     0.157 HD
ENDBRANCH   4  21
BRANCH   4  24
HETATM   24  N2  UNL     1      25.400  -0.761  53.852  1.00  0.00    -0.342 N 
HETATM   25  H18 UNL     1      25.730  -1.458  53.119  1.00  0.00     0.167 HD
BRANCH  24  26
HETATM   26  C14 UNL     1      26.243   0.299  53.422  1.00  0.00     0.034 A 
HETATM   27  C15 UNL     1      27.366   0.610  54.153  1.00  0.00     0.029 A 
HETATM   28  C16 UNL     1      28.228   1.625  53.795  1.00  0.00     0.004 A 
HETATM   29  C17 UNL     1      27.897   2.328  52.642  1.00  0.00     0.019 A 
HETATM   30  C18 UNL     1      26.782   2.078  51.848  1.00  0.00     0.013 A 
HETATM   31 BR1  UNL     1      26.423   3.097  50.295  1.00  0.00    -0.051 Br
HETATM   32  C19 UNL     1      25.972   1.029  52.294  1.00  0.00     0.048 A 
ENDBRANCH  24  26
ENDBRANCH   4  24
TORSDOF 8
ENDMDL
MODEL 7
REMARK VINA RESULT:      -7.1      2.223      4.969
REMARK  8 active torsions:
REMARK  status: ('A' for Active; 'I' for Inactive)
REMARK    1  A    between atoms: O1_2  and  C2_3 
REMARK    2  A    between atoms: C3_4  and  O2_5 
REMARK    3  A    between atoms: C5_7  and  O3_8 
REMARK    4  A    between atoms: C8_11  and  C9_12 
REMARK    5  A    between atoms: C9_12  and  C10_13 
REMARK    6  A    between atoms: C13_16  and  N1_17 
REMARK    7  A    between atoms: C13_16  and  N2_18 
REMARK    8  A    between atoms: N2_18  and  C14_19 
ROOT
HETATM    1  C10 UNL     1      26.424   2.440  51.347  1.00  0.00     0.009 C 
HETATM    2  C11 UNL     1      25.436   1.749  51.920  1.00  0.00     0.037 C 
HETATM    3  C12 UNL     1      25.937   1.240  53.215  1.00  0.00     0.005 C 
HETATM    4  C13 UNL     1      25.549   0.218  53.959  1.00  0.00     0.107 C 
HETATM    5  C20 UNL     1      27.048   2.174  53.541  1.00  0.00     0.162 C 
HETATM    6  N3  UNL     1      27.570   2.428  52.188  1.00  0.00    -0.389 N 
HETATM    7  H25 UNL     1      28.517   2.583  51.781  1.00  0.00     0.159 HD
ENDROOT
BRANCH   1   8
HETATM    8  C9  UNL     1      26.275   3.096  50.030  1.00  0.00     0.090 C 
BRANCH   8   9
HETATM    9  C8  UNL     1      24.965   3.827  49.925  1.00  0.00    -0.069 A 
HETATM   10  C7  UNL     1      24.104   3.033  49.021  1.00  0.00     0.073 A 
HETATM   11  C5  UNL     1      22.749   3.653  48.826  1.00  0.00     0.184 A 
HETATM   12  C3  UNL     1      22.656   4.888  49.600  1.00  0.00     0.108 A 
HETATM   13  C2  UNL     1      23.470   5.564  50.406  1.00  0.00     0.100 A 
HETATM   14  C21 UNL     1      24.779   4.949  50.582  1.00  0.00     0.042 A 
BRANCH  11  15
HETATM   15  O3  UNL     1      21.726   2.747  49.088  1.00  0.00    -0.384 OA
HETATM   16  C6  UNL     1      21.819   1.554  48.427  1.00  0.00     0.202 C 
ENDBRANCH  11  15
BRANCH  12  17
HETATM   17  O2  UNL     1      21.406   5.524  49.467  1.00  0.00    -0.355 OA
HETATM   18  C4  UNL     1      21.098   6.088  48.220  1.00  0.00     0.209 C 
ENDBRANCH  12  17
BRANCH  13  19
HETATM   19  O1  UNL     1      23.101   6.747  51.023  1.00  0.00    -0.353 OA
HETATM   20  C1  UNL     1      23.529   8.028  50.674  1.00  0.00     0.210 C 
ENDBRANCH  13  19
ENDBRANCH   8   9
ENDBRANCH   1   8
BRANCH   4  21
HETATM   21  N1  UNL     1      26.147  -0.150  55.213  1.00  0.00    -0.385 N 
HETATM   22  H16 UNL     1      26.602  -1.037  54.883  1.00  0.00     0.157 HD
HETATM   23  H17 UNL     1      26.035   0.432  56.064  1.00  0.00     0.157 HD
ENDBRANCH   4  21
BRANCH   4  24
HETATM   24  N2  UNL     1      24.469  -0.506  53.416  1.00  0.00    -0.342 N 
HETATM   25  H18 UNL     1      24.595  -1.263  52.679  1.00  0.00     0.167 HD
BRANCH  24  26
HETATM   26  C14 UNL     1      23.056  -0.626  53.496  1.00  0.00     0.034 A 
HETATM   27  C15 UNL     1      22.493  -1.319  54.542  1.00  0.00     0.029 A 
HETATM   28  C16 UNL     1      21.130  -1.475  54.683  1.00  0.00     0.004 A 
HETATM   29  C17 UNL     1      20.344  -0.889  53.696  1.00  0.00     0.019 A 
HETATM   30  C18 UNL     1      20.832  -0.174  52.608  1.00  0.00     0.013 A 
HETATM   31 BR1  UNL     1      19.674   0.585  51.319  1.00  0.00    -0.051 Br
HETATM   32  C19 UNL     1      22.227  -0.071  52.556  1.00  0.00     0.048 A 
ENDBRANCH  24  26
ENDBRANCH   4  24
TORSDOF 8
ENDMDL
MODEL 8
REMARK VINA RESULT:      -7.1      2.195      4.541
REMARK  8 active torsions:
REMARK  status: ('A' for Active; 'I' for Inactive)
REMARK    1  A    between atoms: O1_2  and  C2_3 
REMARK    2  A    between atoms: C3_4  and  O2_5 
REMARK    3  A    between atoms: C5_7  and  O3_8 
REMARK    4  A    between atoms: C8_11  and  C9_12 
REMARK    5  A    between atoms: C9_12  and  C10_13 
REMARK    6  A    between atoms: C13_16  and  N1_17 
REMARK    7  A    between atoms: C13_16  and  N2_18 
REMARK    8  A    between atoms: N2_18  and  C14_19 
ROOT
HETATM    1  C10 UNL     1      26.375   2.595  51.543  1.00  0.00     0.009 C 
HETATM    2  C11 UNL     1      25.410   1.844  52.079  1.00  0.00     0.037 C 
HETATM    3  C12 UNL     1      25.962   1.204  53.292  1.00  0.00     0.005 C 
HETATM    4  C13 UNL     1      25.603   0.108  53.939  1.00  0.00     0.107 C 
HETATM    5  C20 UNL     1      27.085   2.101  53.671  1.00  0.00     0.162 C 
HETATM    6  N3  UNL     1      27.553   2.498  52.333  1.00  0.00    -0.389 N 
HETATM    7  H25 UNL     1      28.483   2.699  51.906  1.00  0.00     0.159 HD
ENDROOT
BRANCH   1   8
HETATM    8  C9  UNL     1      26.174   3.386  50.310  1.00  0.00     0.090 C 
BRANCH   8   9
HETATM    9  C8  UNL     1      24.734   3.785  50.141  1.00  0.00    -0.069 A 
HETATM   10  C7  UNL     1      24.490   4.908  51.074  1.00  0.00     0.073 A 
HETATM   11  C5  UNL     1      23.076   5.413  51.008  1.00  0.00     0.184 A 
HETATM   12  C3  UNL     1      22.323   4.644  50.021  1.00  0.00     0.108 A 
HETATM   13  C2  UNL     1      22.595   3.633  49.200  1.00  0.00     0.100 A 
HETATM   14  C21 UNL     1      23.968   3.155  49.279  1.00  0.00     0.042 A 
BRANCH  11  15
HETATM   15  O3  UNL     1      23.030   6.789  50.802  1.00  0.00    -0.384 OA
HETATM   16  C6  UNL     1      24.241   7.424  50.832  1.00  0.00     0.202 C 
ENDBRANCH  11  15
BRANCH  12  17
HETATM   17  O2  UNL     1      20.985   5.067  49.902  1.00  0.00    -0.355 OA
HETATM   18  C4  UNL     1      20.071   4.594  50.856  1.00  0.00     0.209 C 
ENDBRANCH  12  17
BRANCH  13  19
HETATM   19  O1  UNL     1      21.652   3.087  48.347  1.00  0.00    -0.353 OA
HETATM   20  C1  UNL     1      21.351   1.733  48.207  1.00  0.00     0.210 C 
ENDBRANCH  13  19
ENDBRANCH   8   9
ENDBRANCH   1   8
BRANCH   4  21
HETATM   21  N1  UNL     1      26.250  -0.389  55.122  1.00  0.00    -0.385 N 
HETATM   22  H16 UNL     1      27.144   0.150  55.016  1.00  0.00     0.157 HD
HETATM   23  H17 UNL     1      25.789  -1.072  55.752  1.00  0.00     0.157 HD
ENDBRANCH   4  21
BRANCH   4  24
HETATM   24  N2  UNL     1      24.502  -0.559  53.366  1.00  0.00    -0.342 N 
HETATM   25  H18 UNL     1      24.602  -1.264  52.576  1.00  0.00     0.167 HD
BRANCH  24  26
HETATM   26  C14 UNL     1      23.088  -0.662  53.463  1.00  0.00     0.034 A 
HETATM   27  C15 UNL     1      22.530  -1.385  54.491  1.00  0.00     0.029 A 
HETATM   28  C16 UNL     1      21.167  -1.526  54.646  1.00  0.00     0.004 A 
HETATM   29  C17 UNL     1      20.376  -0.892  53.694  1.00  0.00     0.019 A 
HETATM   30  C18 UNL     1      20.859  -0.143  52.626  1.00  0.00     0.013 A 
HETATM   31 BR1  UNL     1      19.693   0.681  51.385  1.00  0.00    -0.051 Br
HETATM   32  C19 UNL     1      22.254  -0.059  52.557  1.00  0.00     0.048 A 
ENDBRANCH  24  26
ENDBRANCH   4  24
TORSDOF 8
ENDMDL
MODEL 9
REMARK VINA RESULT:      -7.0      4.565      6.940
REMARK  8 active torsions:
REMARK  status: ('A' for Active; 'I' for Inactive)
REMARK    1  A    between atoms: O1_2  and  C2_3 
REMARK    2  A    between atoms: C3_4  and  O2_5 
REMARK    3  A    between atoms: C5_7  and  O3_8 
REMARK    4  A    between atoms: C8_11  and  C9_12 
REMARK    5  A    between atoms: C9_12  and  C10_13 
REMARK    6  A    between atoms: C13_16  and  N1_17 
REMARK    7  A    between atoms: C13_16  and  N2_18 
REMARK    8  A    between atoms: N2_18  and  C14_19 
ROOT
HETATM    1  C10 UNL     1      23.562   4.103  51.794  1.00  0.00     0.009 C 
HETATM    2  C11 UNL     1      23.989   5.187  51.142  1.00  0.00     0.037 C 
HETATM    3  C12 UNL     1      23.357   5.183  49.805  1.00  0.00     0.005 C 
HETATM    4  C13 UNL     1      23.717   5.757  48.669  1.00  0.00     0.107 C 
HETATM    5  C20 UNL     1      22.146   4.343  50.002  1.00  0.00     0.162 C 
HETATM    6  N3  UNL     1      22.672   3.365  50.968  1.00  0.00    -0.389 N 
HETATM    7  H25 UNL     1      22.528   2.346  51.139  1.00  0.00     0.159 HD
ENDROOT
BRANCH   1   8
HETATM    8  C9  UNL     1      23.994   3.784  53.172  1.00  0.00     0.090 C 
BRANCH   8   9
HETATM    9  C8  UNL     1      24.476   2.364  53.283  1.00  0.00    -0.069 A 
HETATM   10  C7  UNL     1      25.944   2.423  53.460  1.00  0.00     0.073 A 
HETATM   11  C5  UNL     1      26.562   1.060  53.588  1.00  0.00     0.184 A 
HETATM   12  C3  UNL     1      25.523   0.036  53.504  1.00  0.00     0.108 A 
HETATM   13  C2  UNL     1      24.202   0.039  53.344  1.00  0.00     0.100 A 
HETATM   14  C21 UNL     1      23.621   1.368  53.219  1.00  0.00     0.042 A 
BRANCH  11  15
HETATM   15  O3  UNL     1      27.358   0.960  54.726  1.00  0.00    -0.384 OA
HETATM   16  C6  UNL     1      28.703   0.871  54.492  1.00  0.00     0.202 C 
ENDBRANCH  11  15
BRANCH  12  17
HETATM   17  O2  UNL     1      26.033  -1.272  53.622  1.00  0.00    -0.355 OA
HETATM   18  C4  UNL     1      26.807  -1.760  52.559  1.00  0.00     0.209 C 
ENDBRANCH  12  17
BRANCH  13  19
HETATM   19  O1  UNL     1      23.452  -1.123  53.300  1.00  0.00    -0.353 OA
HETATM   20  C1  UNL     1      22.070  -1.219  53.457  1.00  0.00     0.210 C 
ENDBRANCH  13  19
ENDBRANCH   8   9
ENDBRANCH   1   8
BRANCH   4  21
HETATM   21  N1  UNL     1      22.984   5.657  47.437  1.00  0.00    -0.385 N 
HETATM   22  H16 UNL     1      23.795   5.810  46.791  1.00  0.00     0.157 HD
HETATM   23  H17 UNL     1      21.961   5.481  47.423  1.00  0.00     0.157 HD
ENDBRANCH   4  21
BRANCH   4  24
HETATM   24  N2  UNL     1      24.911   6.500  48.758  1.00  0.00    -0.342 N 
HETATM   25  H18 UNL     1      24.959   7.464  49.204  1.00  0.00     0.167 HD
BRANCH  24  26
HETATM   26  C14 UNL     1      26.291   6.433  48.426  1.00  0.00     0.034 A 
HETATM   27  C15 UNL     1      27.012   5.308  48.751  1.00  0.00     0.029 A 
HETATM   28  C16 UNL     1      28.354   5.175  48.460  1.00  0.00     0.004 A 
HETATM   29  C17 UNL     1      28.947   6.255  47.813  1.00  0.00     0.019 A 
HETATM   30  C18 UNL     1      28.291   7.426  47.451  1.00  0.00     0.013 A 
HETATM   31 BR1  UNL     1      29.194   8.838  46.572  1.00  0.00    -0.051 Br
HETATM   32  C19 UNL     1      26.934   7.463  47.788  1.00  0.00     0.048 A 
ENDBRANCH  24  26
ENDBRANCH   4  24
TORSDOF 8
ENDMDL
