MODEL 1
REMARK VINA RESULT:      -9.0      0.000      0.000
REMARK  5 active torsions:
REMARK  status: ('A' for Active; 'I' for Inactive)
REMARK    1  A    between atoms: N1_2  and  N2_3 
REMARK    2  A    between atoms: C7_10  and  C8_11 
REMARK    3  A    between atoms: C8_11  and  N4_12 
REMARK    4  A    between atoms: C10_14  and  C11_15 
REMARK       I    between atoms: C11_15  and  N5_17 
REMARK    5  A    between atoms: N5_17  and  C12_18 
ROOT
HETATM    1  N4  UNL     1      21.645   0.915  52.836  1.00  0.00     0.097 N 
HETATM    2  C9  UNL     1      23.055   0.542  52.944  1.00  0.00     0.287 C 
HETATM    3  C10 UNL     1      23.296  -0.728  53.676  1.00  0.00     0.106 C 
HETATM    4  C18 UNL     1      22.407  -0.968  54.849  1.00  0.00     0.018 C 
HETATM    5  C19 UNL     1      20.961  -0.624  54.591  1.00  0.00     0.036 C 
HETATM    6  C20 UNL     1      20.877  -0.239  53.105  1.00  0.00     0.219 C 
HETATM    7  C21 UNL     1      19.466  -0.260  52.622  1.00  0.00     0.043 C 
ENDROOT
BRANCH   1   8
HETATM    8  C8  UNL     1      21.503   1.564  51.589  1.00  0.00     0.300 C 
BRANCH   8   9
HETATM    9  C7  UNL     1      21.693   3.010  51.522  1.00  0.00     0.006 C 
HETATM   10  C6  UNL     1      22.671   3.615  50.886  1.00  0.00    -0.073 C 
HETATM   11  C5  UNL     1      23.769   2.892  50.110  1.00  0.00     0.074 C 
HETATM   12  C22 UNL     1      23.010   5.059  50.733  1.00  0.00     0.034 C 
HETATM   13  C4  UNL     1      24.199   4.091  49.252  1.00  0.00     0.099 A 
HETATM   14  N2  UNL     1      25.350   4.950  49.212  1.00  0.00    -0.269 N 
HETATM   15  C3  UNL     1      23.289   4.506  48.340  1.00  0.00     0.005 A 
HETATM   16  C2  UNL     1      23.247   5.576  49.375  1.00  0.00     0.119 A 
HETATM   17  N3  UNL     1      24.588   6.170  49.149  1.00  0.00    -0.218 NA
HETATM   18  H3  UNL     1      24.793   6.759  49.981  1.00  0.00     0.148 HD
HETATM   19  C23 UNL     1      21.894   5.874  51.359  1.00  0.00     0.017 C 
BRANCH  14  20
HETATM   20  N1  UNL     1      26.644   4.351  49.254  1.00  0.00    -0.247 NA
HETATM   21  C1  UNL     1      27.557   5.000  48.615  1.00  0.00     0.306 C 
ENDBRANCH  14  20
ENDBRANCH   8   9
ENDBRANCH   1   8
BRANCH   3  22
HETATM   22  C11 UNL     1      24.694  -0.637  54.236  1.00  0.00     0.223 C 
HETATM   23  O1  UNL     1      25.177  -1.040  55.347  1.00  0.00    -0.273 OA
HETATM   24  N5  UNL     1      25.675   0.003  53.408  1.00  0.00    -0.356 N 
HETATM   25  H14 UNL     1      25.381   0.372  52.469  1.00  0.00     0.162 HD
BRANCH  24  26
HETATM   26  C12 UNL     1      27.060   0.212  53.710  1.00  0.00     0.084 C 
HETATM   27  C13 UNL     1      27.921  -0.936  53.234  1.00  0.00     0.025 C 
HETATM   28  C14 UNL     1      29.338  -0.429  53.118  1.00  0.00     0.002 C 
HETATM   29  C15 UNL     1      29.633   0.578  54.235  1.00  0.00     0.000 C 
HETATM   30  C16 UNL     1      28.876   1.853  53.882  1.00  0.00     0.002 C 
HETATM   31  C17 UNL     1      27.607   1.494  53.164  1.00  0.00     0.025 C 
ENDBRANCH  24  26
ENDBRANCH   3  22
TORSDOF 5
ENDMDL
MODEL 2
REMARK VINA RESULT:      -9.0      1.205      1.894
REMARK  5 active torsions:
REMARK  status: ('A' for Active; 'I' for Inactive)
REMARK    1  A    between atoms: N1_2  and  N2_3 
REMARK    2  A    between atoms: C7_10  and  C8_11 
REMARK    3  A    between atoms: C8_11  and  N4_12 
REMARK    4  A    between atoms: C10_14  and  C11_15 
REMARK       I    between atoms: C11_15  and  N5_17 
REMARK    5  A    between atoms: N5_17  and  C12_18 
ROOT
HETATM    1  N4  UNL     1      20.939   1.096  53.214  1.00  0.00     0.097 N 
HETATM    2  C9  UNL     1      22.385   0.879  53.231  1.00  0.00     0.287 C 
HETATM    3  C10 UNL     1      22.788  -0.551  53.235  1.00  0.00     0.106 C 
HETATM    4  C18 UNL     1      21.927  -1.455  54.049  1.00  0.00     0.018 C 
HETATM    5  C19 UNL     1      20.451  -1.190  53.886  1.00  0.00     0.036 C 
HETATM    6  C20 UNL     1      20.332  -0.110  52.798  1.00  0.00     0.219 C 
HETATM    7  C21 UNL     1      18.943  -0.037  52.261  1.00  0.00     0.043 C 
ENDROOT
BRANCH   1   8
HETATM    8  C8  UNL     1      20.725   2.272  52.462  1.00  0.00     0.300 C 
BRANCH   8   9
HETATM    9  C7  UNL     1      21.366   2.400  51.157  1.00  0.00     0.006 C 
HETATM   10  C6  UNL     1      22.332   3.245  50.869  1.00  0.00    -0.073 C 
HETATM   11  C5  UNL     1      22.937   4.230  51.865  1.00  0.00     0.074 C 
HETATM   12  C22 UNL     1      23.075   3.506  49.603  1.00  0.00     0.034 C 
HETATM   13  C4  UNL     1      24.244   4.479  51.097  1.00  0.00     0.099 A 
HETATM   14  N2  UNL     1      24.790   5.579  50.353  1.00  0.00    -0.269 N 
HETATM   15  C3  UNL     1      25.088   3.423  51.035  1.00  0.00     0.005 A 
HETATM   16  C2  UNL     1      24.546   3.509  49.650  1.00  0.00     0.119 A 
HETATM   17  N3  UNL     1      25.192   4.776  49.227  1.00  0.00    -0.218 NA
HETATM   18  H3  UNL     1      24.691   5.090  48.371  1.00  0.00     0.148 HD
HETATM   19  C23 UNL     1      22.638   2.477  48.578  1.00  0.00     0.017 C 
BRANCH  14  20
HETATM   20  N1  UNL     1      24.729   6.883  50.928  1.00  0.00    -0.247 NA
HETATM   21  C1  UNL     1      23.767   7.620  50.486  1.00  0.00     0.306 C 
ENDBRANCH  14  20
ENDBRANCH   8   9
ENDBRANCH   1   8
BRANCH   3  22
HETATM   22  C11 UNL     1      24.154  -0.605  53.874  1.00  0.00     0.223 C 
HETATM   23  O1  UNL     1      24.520  -1.005  55.030  1.00  0.00    -0.273 OA
HETATM   24  N5  UNL     1      25.252  -0.137  53.079  1.00  0.00    -0.356 N 
HETATM   25  H14 UNL     1      25.059   0.217  52.108  1.00  0.00     0.162 HD
BRANCH  24  26
HETATM   26  C12 UNL     1      26.634  -0.086  53.455  1.00  0.00     0.084 C 
HETATM   27  C13 UNL     1      27.347  -1.386  53.159  1.00  0.00     0.025 C 
HETATM   28  C14 UNL     1      28.826  -1.092  53.092  1.00  0.00     0.002 C 
HETATM   29  C15 UNL     1      29.200  -0.018  54.119  1.00  0.00     0.000 C 
HETATM   30  C16 UNL     1      28.653   1.302  53.588  1.00  0.00     0.002 C 
HETATM   31  C17 UNL     1      27.388   1.042  52.822  1.00  0.00     0.025 C 
ENDBRANCH  24  26
ENDBRANCH   3  22
TORSDOF 5
ENDMDL
MODEL 3
REMARK VINA RESULT:      -8.7      3.556      8.088
REMARK  5 active torsions:
REMARK  status: ('A' for Active; 'I' for Inactive)
REMARK    1  A    between atoms: N1_2  and  N2_3 
REMARK    2  A    between atoms: C7_10  and  C8_11 
REMARK    3  A    between atoms: C8_11  and  N4_12 
REMARK    4  A    between atoms: C10_14  and  C11_15 
REMARK       I    between atoms: C11_15  and  N5_17 
REMARK    5  A    between atoms: N5_17  and  C12_18 
ROOT
HETATM    1  N4  UNL     1      25.637   4.196  49.141  1.00  0.00     0.097 N 
HETATM    2  C9  UNL     1      27.036   4.595  48.987  1.00  0.00     0.287 C 
HETATM    3  C10 UNL     1      27.259   6.063  49.026  1.00  0.00     0.106 C 
HETATM    4  C18 UNL     1      26.209   6.887  48.361  1.00  0.00     0.018 C 
HETATM    5  C19 UNL     1      24.803   6.429  48.661  1.00  0.00     0.036 C 
HETATM    6  C20 UNL     1      24.938   5.294  49.689  1.00  0.00     0.219 C 
HETATM    7  C21 UNL     1      23.636   5.020  50.362  1.00  0.00     0.043 C 
ENDROOT
BRANCH   1   8
HETATM    8  C8  UNL     1      25.652   2.968  49.841  1.00  0.00     0.300 C 
BRANCH   8   9
HETATM    9  C7  UNL     1      26.525   2.831  51.003  1.00  0.00     0.006 C 
HETATM   10  C6  UNL     1      26.391   1.925  51.947  1.00  0.00    -0.073 C 
HETATM   11  C5  UNL     1      25.291   0.866  51.971  1.00  0.00     0.074 C 
HETATM   12  C22 UNL     1      27.177   1.661  53.186  1.00  0.00     0.034 C 
HETATM   13  C4  UNL     1      25.992  -0.095  52.942  1.00  0.00     0.099 A 
HETATM   14  N2  UNL     1      25.787  -0.486  54.308  1.00  0.00    -0.269 N 
HETATM   15  C3  UNL     1      27.102  -0.700  52.457  1.00  0.00     0.005 A 
HETATM   16  C2  UNL     1      27.648   0.288  53.428  1.00  0.00     0.119 A 
HETATM   17  N3  UNL     1      27.168  -0.335  54.687  1.00  0.00    -0.218 NA
HETATM   18  H3  UNL     1      27.255   0.392  55.426  1.00  0.00     0.148 HD
HETATM   19  C23 UNL     1      28.382   2.581  53.185  1.00  0.00     0.017 C 
BRANCH  14  20
HETATM   20  N1  UNL     1      24.465  -0.824  54.725  1.00  0.00    -0.247 NA
HETATM   21  C1  UNL     1      24.387  -1.319  55.913  1.00  0.00     0.306 C 
ENDBRANCH  14  20
ENDBRANCH   8   9
ENDBRANCH   1   8
BRANCH   3  22
HETATM   22  C11 UNL     1      28.529   6.320  48.253  1.00  0.00     0.223 C 
HETATM   23  O1  UNL     1      28.727   6.940  47.154  1.00  0.00    -0.273 OA
HETATM   24  N5  UNL     1      29.739   5.797  48.818  1.00  0.00    -0.356 N 
HETATM   25  H14 UNL     1      29.687   5.268  49.724  1.00  0.00     0.162 HD
BRANCH  24  26
HETATM   26  C12 UNL     1      31.063   5.907  48.281  1.00  0.00     0.084 C 
HETATM   27  C13 UNL     1      32.085   6.200  49.355  1.00  0.00     0.025 C 
HETATM   28  C14 UNL     1      33.439   5.795  48.822  1.00  0.00     0.002 C 
HETATM   29  C15 UNL     1      33.528   6.095  47.322  1.00  0.00     0.000 C 
HETATM   30  C16 UNL     1      32.657   5.059  46.619  1.00  0.00     0.002 C 
HETATM   31  C17 UNL     1      31.498   4.703  47.505  1.00  0.00     0.025 C 
ENDBRANCH  24  26
ENDBRANCH   3  22
TORSDOF 5
ENDMDL
MODEL 4
REMARK VINA RESULT:      -8.5      1.340      2.269
REMARK  5 active torsions:
REMARK  status: ('A' for Active; 'I' for Inactive)
REMARK    1  A    between atoms: N1_2  and  N2_3 
REMARK    2  A    between atoms: C7_10  and  C8_11 
REMARK    3  A    between atoms: C8_11  and  N4_12 
REMARK    4  A    between atoms: C10_14  and  C11_15 
REMARK       I    between atoms: C11_15  and  N5_17 
REMARK    5  A    between atoms: N5_17  and  C12_18 
ROOT
HETATM    1  N4  UNL     1      21.975   2.083  52.410  1.00  0.00     0.097 N 
HETATM    2  C9  UNL     1      23.234   1.352  52.548  1.00  0.00     0.287 C 
HETATM    3  C10 UNL     1      23.086  -0.019  53.100  1.00  0.00     0.106 C 
HETATM    4  C18 UNL     1      22.057  -0.170  54.169  1.00  0.00     0.018 C 
HETATM    5  C19 UNL     1      20.770   0.561  53.875  1.00  0.00     0.036 C 
HETATM    6  C20 UNL     1      20.925   1.139  52.459  1.00  0.00     0.219 C 
HETATM    7  C21 UNL     1      19.606   1.540  51.893  1.00  0.00     0.043 C 
ENDROOT
BRANCH   1   8
HETATM    8  C8  UNL     1      22.117   2.899  51.265  1.00  0.00     0.300 C 
BRANCH   8   9
HETATM    9  C7  UNL     1      23.437   3.037  50.658  1.00  0.00     0.006 C 
HETATM   10  C6  UNL     1      23.855   4.090  49.989  1.00  0.00    -0.073 C 
HETATM   11  C5  UNL     1      23.017   5.341  49.745  1.00  0.00     0.074 C 
HETATM   12  C22 UNL     1      25.149   4.380  49.307  1.00  0.00     0.034 C 
HETATM   13  C4  UNL     1      24.189   6.280  49.424  1.00  0.00     0.099 A 
HETATM   14  N2  UNL     1      24.683   6.917  48.236  1.00  0.00    -0.269 N 
HETATM   15  C3  UNL     1      25.008   6.560  50.465  1.00  0.00     0.005 A 
HETATM   16  C2  UNL     1      25.828   5.648  49.620  1.00  0.00     0.119 A 
HETATM   17  N3  UNL     1      26.056   6.547  48.462  1.00  0.00    -0.218 NA
HETATM   18  H3  UNL     1      26.394   5.946  47.683  1.00  0.00     0.148 HD
HETATM   19  C23 UNL     1      26.107   3.244  49.608  1.00  0.00     0.017 C 
BRANCH  14  20
HETATM   20  N1  UNL     1      23.750   7.581  47.384  1.00  0.00    -0.247 NA
HETATM   21  C1  UNL     1      23.119   6.804  46.572  1.00  0.00     0.306 C 
ENDBRANCH  14  20
ENDBRANCH   8   9
ENDBRANCH   1   8
BRANCH   3  22
HETATM   22  C11 UNL     1      24.403  -0.359  53.751  1.00  0.00     0.223 C 
HETATM   23  O1  UNL     1      24.662  -0.952  54.853  1.00  0.00    -0.273 OA
HETATM   24  N5  UNL     1      25.587   0.032  53.044  1.00  0.00    -0.356 N 
HETATM   25  H14 UNL     1      25.486   0.529  52.123  1.00  0.00     0.162 HD
BRANCH  24  26
HETATM   26  C12 UNL     1      26.947  -0.176  53.449  1.00  0.00     0.084 C 
HETATM   27  C13 UNL     1      27.466  -1.525  53.009  1.00  0.00     0.025 C 
HETATM   28  C14 UNL     1      28.975  -1.456  53.006  1.00  0.00     0.002 C 
HETATM   29  C15 UNL     1      29.467  -0.581  54.164  1.00  0.00     0.000 C 
HETATM   30  C16 UNL     1      29.145   0.860  53.787  1.00  0.00     0.002 C 
HETATM   31  C17 UNL     1      27.884   0.890  52.972  1.00  0.00     0.025 C 
ENDBRANCH  24  26
ENDBRANCH   3  22
TORSDOF 5
ENDMDL
MODEL 5
REMARK VINA RESULT:      -8.4      2.097      6.026
REMARK  5 active torsions:
REMARK  status: ('A' for Active; 'I' for Inactive)
REMARK    1  A    between atoms: N1_2  and  N2_3 
REMARK    2  A    between atoms: C7_10  and  C8_11 
REMARK    3  A    between atoms: C8_11  and  N4_12 
REMARK    4  A    between atoms: C10_14  and  C11_15 
REMARK       I    between atoms: C11_15  and  N5_17 
REMARK    5  A    between atoms: N5_17  and  C12_18 
ROOT
HETATM    1  N4  UNL     1      22.621   3.837  50.464  1.00  0.00     0.097 N 
HETATM    2  C9  UNL     1      23.852   3.340  51.079  1.00  0.00     0.287 C 
HETATM    3  C10 UNL     1      25.081   4.053  50.648  1.00  0.00     0.106 C 
HETATM    4  C18 UNL     1      25.118   4.451  49.211  1.00  0.00     0.018 C 
HETATM    5  C19 UNL     1      23.816   5.028  48.712  1.00  0.00     0.036 C 
HETATM    6  C20 UNL     1      22.895   5.120  49.940  1.00  0.00     0.219 C 
HETATM    7  C21 UNL     1      21.739   6.023  49.679  1.00  0.00     0.043 C 
ENDROOT
BRANCH   1   8
HETATM    8  C8  UNL     1      21.607   3.691  51.437  1.00  0.00     0.300 C 
BRANCH   8   9
HETATM    9  C7  UNL     1      20.795   2.479  51.430  1.00  0.00     0.006 C 
HETATM   10  C6  UNL     1      20.998   1.428  52.196  1.00  0.00    -0.073 C 
HETATM   11  C5  UNL     1      22.124   1.316  53.219  1.00  0.00     0.074 C 
HETATM   12  C22 UNL     1      20.279   0.126  52.302  1.00  0.00     0.034 C 
HETATM   13  C4  UNL     1      21.496   0.189  54.051  1.00  0.00     0.099 A 
HETATM   14  N2  UNL     1      21.777  -1.206  54.247  1.00  0.00    -0.269 N 
HETATM   15  C3  UNL     1      20.381   0.530  54.739  1.00  0.00     0.005 A 
HETATM   16  C2  UNL     1      19.856  -0.325  53.638  1.00  0.00     0.119 A 
HETATM   17  N3  UNL     1      20.413  -1.630  54.072  1.00  0.00    -0.218 NA
HETATM   18  H3  UNL     1      20.342  -2.267  53.253  1.00  0.00     0.148 HD
HETATM   19  C23 UNL     1      19.052   0.191  51.414  1.00  0.00     0.017 C 
BRANCH  14  20
HETATM   20  N1  UNL     1      23.126  -1.597  54.499  1.00  0.00    -0.247 NA
HETATM   21  C1  UNL     1      23.543  -1.350  55.694  1.00  0.00     0.306 C 
ENDBRANCH  14  20
ENDBRANCH   8   9
ENDBRANCH   1   8
BRANCH   3  22
HETATM   22  C11 UNL     1      26.221   3.081  50.831  1.00  0.00     0.223 C 
HETATM   23  O1  UNL     1      26.996   2.533  49.976  1.00  0.00    -0.273 OA
HETATM   24  N5  UNL     1      26.515   2.684  52.177  1.00  0.00    -0.356 N 
HETATM   25  H14 UNL     1      25.934   3.078  52.959  1.00  0.00     0.162 HD
BRANCH  24  26
HETATM   26  C12 UNL     1      27.540   1.781  52.609  1.00  0.00     0.084 C 
HETATM   27  C13 UNL     1      28.493   2.434  53.584  1.00  0.00     0.025 C 
HETATM   28  C14 UNL     1      29.183   1.334  54.356  1.00  0.00     0.002 C 
HETATM   29  C15 UNL     1      29.437   0.128  53.445  1.00  0.00     0.000 C 
HETATM   30  C16 UNL     1      28.084  -0.535  53.213  1.00  0.00     0.002 C 
HETATM   31  C17 UNL     1      27.011   0.516  53.212  1.00  0.00     0.025 C 
ENDBRANCH  24  26
ENDBRANCH   3  22
TORSDOF 5
ENDMDL
MODEL 6
REMARK VINA RESULT:      -8.4      1.990      2.674
REMARK  5 active torsions:
REMARK  status: ('A' for Active; 'I' for Inactive)
REMARK    1  A    between atoms: N1_2  and  N2_3 
REMARK    2  A    between atoms: C7_10  and  C8_11 
REMARK    3  A    between atoms: C8_11  and  N4_12 
REMARK    4  A    between atoms: C10_14  and  C11_15 
REMARK       I    between atoms: C11_15  and  N5_17 
REMARK    5  A    between atoms: N5_17  and  C12_18 
ROOT
HETATM    1  N4  UNL     1      21.753   0.627  52.417  1.00  0.00     0.097 N 
HETATM    2  C9  UNL     1      23.081   0.071  52.672  1.00  0.00     0.287 C 
HETATM    3  C10 UNL     1      23.131  -0.898  53.796  1.00  0.00     0.106 C 
HETATM    4  C18 UNL     1      22.266  -0.566  54.964  1.00  0.00     0.018 C 
HETATM    5  C19 UNL     1      20.890  -0.082  54.577  1.00  0.00     0.036 C 
HETATM    6  C20 UNL     1      20.810  -0.214  53.048  1.00  0.00     0.219 C 
HETATM    7  C21 UNL     1      19.397  -0.148  52.575  1.00  0.00     0.043 C 
ENDROOT
BRANCH   1   8
HETATM    8  C8  UNL     1      21.672   0.831  51.021  1.00  0.00     0.300 C 
BRANCH   8   9
HETATM    9  C7  UNL     1      22.610   1.753  50.388  1.00  0.00     0.006 C 
HETATM   10  C6  UNL     1      22.327   2.540  49.373  1.00  0.00    -0.073 C 
HETATM   11  C5  UNL     1      20.962   2.612  48.695  1.00  0.00     0.074 C 
HETATM   12  C22 UNL     1      23.161   3.516  48.614  1.00  0.00     0.034 C 
HETATM   13  C4  UNL     1      21.164   3.983  48.034  1.00  0.00     0.099 A 
HETATM   14  N2  UNL     1      21.362   4.443  46.688  1.00  0.00    -0.269 N 
HETATM   15  C3  UNL     1      21.228   5.032  48.888  1.00  0.00     0.005 A 
HETATM   16  C2  UNL     1      22.636   4.879  48.428  1.00  0.00     0.119 A 
HETATM   17  N3  UNL     1      22.467   5.305  47.017  1.00  0.00    -0.218 NA
HETATM   18  H3  UNL     1      23.322   4.995  46.511  1.00  0.00     0.148 HD
HETATM   19  C23 UNL     1      24.509   3.619  49.301  1.00  0.00     0.017 C 
BRANCH  14  20
HETATM   20  N1  UNL     1      20.510   3.931  45.665  1.00  0.00    -0.247 NA
HETATM   21  C1  UNL     1      21.021   3.953  44.481  1.00  0.00     0.306 C 
ENDBRANCH  14  20
ENDBRANCH   8   9
ENDBRANCH   1   8
BRANCH   3  22
HETATM   22  C11 UNL     1      24.547  -0.870  54.317  1.00  0.00     0.223 C 
HETATM   23  O1  UNL     1      25.016  -1.139  55.474  1.00  0.00    -0.273 OA
HETATM   24  N5  UNL     1      25.565  -0.483  53.385  1.00  0.00    -0.356 N 
HETATM   25  H14 UNL     1      25.285  -0.240  52.402  1.00  0.00     0.162 HD
BRANCH  24  26
HETATM   26  C12 UNL     1      26.973  -0.381  53.633  1.00  0.00     0.084 C 
HETATM   27  C13 UNL     1      27.709  -1.641  53.239  1.00  0.00     0.025 C 
HETATM   28  C14 UNL     1      29.162  -1.281  53.044  1.00  0.00     0.002 C 
HETATM   29  C15 UNL     1      29.584  -0.214  54.060  1.00  0.00     0.000 C 
HETATM   30  C16 UNL     1      28.936   1.092  53.614  1.00  0.00     0.002 C 
HETATM   31  C17 UNL     1      27.617   0.793  52.962  1.00  0.00     0.025 C 
ENDBRANCH  24  26
ENDBRANCH   3  22
TORSDOF 5
ENDMDL
MODEL 7
REMARK VINA RESULT:      -8.3      2.998      7.697
REMARK  5 active torsions:
REMARK  status: ('A' for Active; 'I' for Inactive)
REMARK    1  A    between atoms: N1_2  and  N2_3 
REMARK    2  A    between atoms: C7_10  and  C8_11 
REMARK    3  A    between atoms: C8_11  and  N4_12 
REMARK    4  A    between atoms: C10_14  and  C11_15 
REMARK       I    between atoms: C11_15  and  N5_17 
REMARK    5  A    between atoms: N5_17  and  C12_18 
ROOT
HETATM    1  N4  UNL     1      23.624   4.424  50.489  1.00  0.00     0.097 N 
HETATM    2  C9  UNL     1      24.852   5.208  50.364  1.00  0.00     0.287 C 
HETATM    3  C10 UNL     1      24.766   6.574  50.942  1.00  0.00     0.106 C 
HETATM    4  C18 UNL     1      23.460   7.267  50.749  1.00  0.00     0.018 C 
HETATM    5  C19 UNL     1      22.264   6.378  50.986  1.00  0.00     0.036 C 
HETATM    6  C20 UNL     1      22.826   5.036  51.481  1.00  0.00     0.219 C 
HETATM    7  C21 UNL     1      21.763   4.210  52.121  1.00  0.00     0.043 C 
ENDROOT
BRANCH   1   8
HETATM    8  C8  UNL     1      24.028   3.081  50.658  1.00  0.00     0.300 C 
BRANCH   8   9
HETATM    9  C7  UNL     1      24.970   2.759  51.726  1.00  0.00     0.006 C 
HETATM   10  C6  UNL     1      24.824   1.779  52.592  1.00  0.00    -0.073 C 
HETATM   11  C5  UNL     1      23.639   0.819  52.611  1.00  0.00     0.074 C 
HETATM   12  C22 UNL     1      25.674   1.331  53.732  1.00  0.00     0.034 C 
HETATM   13  C4  UNL     1      24.320  -0.288  53.430  1.00  0.00     0.099 A 
HETATM   14  N2  UNL     1      24.183  -0.792  54.767  1.00  0.00    -0.269 N 
HETATM   15  C3  UNL     1      25.331  -0.933  52.801  1.00  0.00     0.005 A 
HETATM   16  C2  UNL     1      26.036  -0.094  53.809  1.00  0.00     0.119 A 
HETATM   17  N3  UNL     1      25.597  -0.794  55.042  1.00  0.00    -0.218 NA
HETATM   18  H3  UNL     1      25.804  -0.153  55.834  1.00  0.00     0.148 HD
HETATM   19  C23 UNL     1      26.954   2.144  53.715  1.00  0.00     0.017 C 
BRANCH  14  20
HETATM   20  N1  UNL     1      22.871  -1.058  55.260  1.00  0.00    -0.247 NA
HETATM   21  C1  UNL     1      22.102  -1.679  54.432  1.00  0.00     0.306 C 
ENDBRANCH  14  20
ENDBRANCH   8   9
ENDBRANCH   1   8
BRANCH   3  22
HETATM   22  C11 UNL     1      25.784   7.410  50.207  1.00  0.00     0.223 C 
HETATM   23  O1  UNL     1      25.964   8.675  50.181  1.00  0.00    -0.273 OA
HETATM   24  N5  UNL     1      26.727   6.702  49.392  1.00  0.00    -0.356 N 
HETATM   25  H14 UNL     1      26.667   5.654  49.344  1.00  0.00     0.162 HD
BRANCH  24  26
HETATM   26  C12 UNL     1      27.784   7.263  48.603  1.00  0.00     0.084 C 
HETATM   27  C13 UNL     1      28.908   6.277  48.382  1.00  0.00     0.025 C 
HETATM   28  C14 UNL     1      29.686   6.734  47.172  1.00  0.00     0.002 C 
HETATM   29  C15 UNL     1      29.745   8.265  47.128  1.00  0.00     0.000 C 
HETATM   30  C16 UNL     1      28.353   8.743  46.730  1.00  0.00     0.002 C 
HETATM   31  C17 UNL     1      27.328   7.793  47.279  1.00  0.00     0.025 C 
ENDBRANCH  24  26
ENDBRANCH   3  22
TORSDOF 5
ENDMDL
MODEL 8
REMARK VINA RESULT:      -8.2      2.891      6.629
REMARK  5 active torsions:
REMARK  status: ('A' for Active; 'I' for Inactive)
REMARK    1  A    between atoms: N1_2  and  N2_3 
REMARK    2  A    between atoms: C7_10  and  C8_11 
REMARK    3  A    between atoms: C8_11  and  N4_12 
REMARK    4  A    between atoms: C10_14  and  C11_15 
REMARK       I    between atoms: C11_15  and  N5_17 
REMARK    5  A    between atoms: N5_17  and  C12_18 
ROOT
HETATM    1  N4  UNL     1      21.970   1.537  49.841  1.00  0.00     0.097 N 
HETATM    2  C9  UNL     1      22.543   1.247  51.155  1.00  0.00     0.287 C 
HETATM    3  C10 UNL     1      23.576   2.217  51.599  1.00  0.00     0.106 C 
HETATM    4  C18 UNL     1      24.482   2.720  50.526  1.00  0.00     0.018 C 
HETATM    5  C19 UNL     1      23.765   3.065  49.244  1.00  0.00     0.036 C 
HETATM    6  C20 UNL     1      22.267   2.883  49.535  1.00  0.00     0.219 C 
HETATM    7  C21 UNL     1      21.432   3.559  48.501  1.00  0.00     0.043 C 
ENDROOT
BRANCH   1   8
HETATM    8  C8  UNL     1      20.620   1.123  49.899  1.00  0.00     0.300 C 
BRANCH   8   9
HETATM    9  C7  UNL     1      20.156   0.399  51.079  1.00  0.00     0.006 C 
HETATM   10  C6  UNL     1      18.922   0.409  51.535  1.00  0.00    -0.073 C 
HETATM   11  C5  UNL     1      17.776   1.185  50.892  1.00  0.00     0.074 C 
HETATM   12  C22 UNL     1      18.296  -0.255  52.714  1.00  0.00     0.034 C 
HETATM   13  C4  UNL     1      16.636   0.385  51.540  1.00  0.00     0.099 A 
HETATM   14  N2  UNL     1      15.659   0.651  52.558  1.00  0.00    -0.269 N 
HETATM   15  C3  UNL     1      16.518  -0.897  51.121  1.00  0.00     0.005 A 
HETATM   16  C2  UNL     1      17.068  -1.037  52.498  1.00  0.00     0.119 A 
HETATM   17  N3  UNL     1      15.884  -0.581  53.268  1.00  0.00    -0.218 NA
HETATM   18  H3  UNL     1      16.219  -0.380  54.231  1.00  0.00     0.148 HD
HETATM   19  C23 UNL     1      19.331  -1.166  53.347  1.00  0.00     0.017 C 
BRANCH  14  20
HETATM   20  N1  UNL     1      14.936   1.880  52.499  1.00  0.00    -0.247 NA
HETATM   21  C1  UNL     1      13.718   1.807  52.917  1.00  0.00     0.306 C 
ENDBRANCH  14  20
ENDBRANCH   8   9
ENDBRANCH   1   8
BRANCH   3  22
HETATM   22  C11 UNL     1      24.465   1.478  52.568  1.00  0.00     0.223 C 
HETATM   23  O1  UNL     1      24.176   0.725  53.559  1.00  0.00    -0.273 OA
HETATM   24  N5  UNL     1      25.879   1.619  52.377  1.00  0.00    -0.356 N 
HETATM   25  H14 UNL     1      26.225   2.219  51.587  1.00  0.00     0.162 HD
BRANCH  24  26
HETATM   26  C12 UNL     1      26.923   1.022  53.157  1.00  0.00     0.084 C 
HETATM   27  C13 UNL     1      27.232  -0.386  52.701  1.00  0.00     0.025 C 
HETATM   28  C14 UNL     1      28.619  -0.731  53.191  1.00  0.00     0.002 C 
HETATM   29  C15 UNL     1      28.865  -0.103  54.567  1.00  0.00     0.000 C 
HETATM   30  C16 UNL     1      29.041   1.394  54.338  1.00  0.00     0.002 C 
HETATM   31  C17 UNL     1      28.189   1.821  53.178  1.00  0.00     0.025 C 
ENDBRANCH  24  26
ENDBRANCH   3  22
TORSDOF 5
ENDMDL
MODEL 9
REMARK VINA RESULT:      -8.0      4.364      8.484
REMARK  5 active torsions:
REMARK  status: ('A' for Active; 'I' for Inactive)
REMARK    1  A    between atoms: N1_2  and  N2_3 
REMARK    2  A    between atoms: C7_10  and  C8_11 
REMARK    3  A    between atoms: C8_11  and  N4_12 
REMARK    4  A    between atoms: C10_14  and  C11_15 
REMARK       I    between atoms: C11_15  and  N5_17 
REMARK    5  A    between atoms: N5_17  and  C12_18 
ROOT
HETATM    1  N4  UNL     1      27.327   5.221  48.509  1.00  0.00     0.097 N 
HETATM    2  C9  UNL     1      28.781   5.282  48.359  1.00  0.00     0.287 C 
HETATM    3  C10 UNL     1      29.312   6.649  48.120  1.00  0.00     0.106 C 
HETATM    4  C18 UNL     1      28.472   7.517  47.246  1.00  0.00     0.018 C 
HETATM    5  C19 UNL     1      26.997   7.431  47.550  1.00  0.00     0.036 C 
HETATM    6  C20 UNL     1      26.871   6.528  48.788  1.00  0.00     0.219 C 
HETATM    7  C21 UNL     1      25.532   6.673  49.426  1.00  0.00     0.043 C 
ENDROOT
BRANCH   1   8
HETATM    8  C8  UNL     1      27.069   4.187  49.436  1.00  0.00     0.300 C 
BRANCH   8   9
HETATM    9  C7  UNL     1      25.708   3.676  49.561  1.00  0.00     0.006 C 
HETATM   10  C6  UNL     1      25.289   2.864  50.507  1.00  0.00    -0.073 C 
HETATM   11  C5  UNL     1      26.170   2.328  51.632  1.00  0.00     0.074 C 
HETATM   12  C22 UNL     1      23.956   2.249  50.766  1.00  0.00     0.034 C 
HETATM   13  C4  UNL     1      25.028   1.939  52.582  1.00  0.00     0.099 A 
HETATM   14  N2  UNL     1      24.462   0.699  53.034  1.00  0.00    -0.269 N 
HETATM   15  C3  UNL     1      24.328   2.976  53.099  1.00  0.00     0.005 A 
HETATM   16  C2  UNL     1      23.382   2.381  52.115  1.00  0.00     0.119 A 
HETATM   17  N3  UNL     1      23.097   1.102  52.811  1.00  0.00    -0.218 NA
HETATM   18  H3  UNL     1      22.654   0.476  52.108  1.00  0.00     0.148 HD
HETATM   19  C23 UNL     1      22.967   2.830  49.774  1.00  0.00     0.017 C 
BRANCH  14  20
HETATM   20  N1  UNL     1      25.346  -0.332  53.468  1.00  0.00    -0.247 NA
HETATM   21  C1  UNL     1      26.002  -0.060  54.545  1.00  0.00     0.306 C 
ENDBRANCH  14  20
ENDBRANCH   8   9
ENDBRANCH   1   8
BRANCH   3  22
HETATM   22  C11 UNL     1      30.618   6.474  47.386  1.00  0.00     0.223 C 
HETATM   23  O1  UNL     1      31.249   7.262  46.603  1.00  0.00    -0.273 OA
HETATM   24  N5  UNL     1      31.297   5.224  47.575  1.00  0.00    -0.356 N 
HETATM   25  H14 UNL     1      30.862   4.502  48.202  1.00  0.00     0.162 HD
BRANCH  24  26
HETATM   26  C12 UNL     1      32.542   4.818  46.993  1.00  0.00     0.084 C 
HETATM   27  C13 UNL     1      33.173   3.674  47.753  1.00  0.00     0.025 C 
HETATM   28  C14 UNL     1      34.152   2.994  46.825  1.00  0.00     0.002 C 
HETATM   29  C15 UNL     1      34.839   4.030  45.928  1.00  0.00     0.000 C 
HETATM   30  C16 UNL     1      33.797   4.482  44.911  1.00  0.00     0.002 C 
HETATM   31  C17 UNL     1      32.437   4.448  45.546  1.00  0.00     0.025 C 
ENDBRANCH  24  26
ENDBRANCH   3  22
TORSDOF 5
ENDMDL
