MODEL 1
REMARK VINA RESULT:      -7.3      0.000      0.000
REMARK  7 active torsions:
REMARK  status: ('A' for Active; 'I' for Inactive)
REMARK    1  A    between atoms: O1_2  and  C2_3 
REMARK    2  A    between atoms: C6_9  and  N3_10 
REMARK    3  A    between atoms: N3_10  and  C7_11 
REMARK    4  A    between atoms: C9_13  and  O2_14 
REMARK    5  A    between atoms: C11_16  and  O3_17 
REMARK    6  A    between atoms: C13_19  and  O4_20 
REMARK    7  A    between atoms: C18_25  and  O5_26 
ROOT
HETATM    1  C2  UNL     1      27.299   0.738  53.700  1.00  0.00     0.103 A 
HETATM    2  C3  UNL     1      26.749   0.025  54.772  1.00  0.00     0.072 A 
HETATM    3  C4  UNL     1      25.438  -0.363  54.613  1.00  0.00     0.075 A 
HETATM    4  N1  UNL     1      24.964  -1.057  55.694  1.00  0.00    -0.241 NA
HETATM    5  C5  UNL     1      23.668  -1.501  55.650  1.00  0.00     0.236 A 
HETATM    6  N2  UNL     1      22.939  -1.234  54.563  1.00  0.00    -0.224 NA
HETATM    7  C6  UNL     1      23.346  -0.563  53.482  1.00  0.00     0.142 A 
HETATM    8  C16 UNL     1      24.647  -0.113  53.515  1.00  0.00     0.042 A 
HETATM    9  C17 UNL     1      25.258   0.592  52.507  1.00  0.00     0.057 A 
HETATM   10  C18 UNL     1      26.565   1.023  52.572  1.00  0.00     0.102 A 
ENDROOT
BRANCH   7  11
HETATM   11  N3  UNL     1      22.557  -0.302  52.356  1.00  0.00    -0.340 N 
HETATM   12  H6  UNL     1      22.642  -0.818  51.477  1.00  0.00     0.167 HD
BRANCH  11  13
HETATM   13  C7  UNL     1      21.541   0.684  52.241  1.00  0.00     0.039 A 
HETATM   14  C8  UNL     1      20.223   0.380  52.037  1.00  0.00     0.069 A 
HETATM   15  C9  UNL     1      19.214   1.319  51.932  1.00  0.00     0.106 A 
HETATM   16  C11 UNL     1      19.515   2.665  52.035  1.00  0.00     0.135 A 
HETATM   17  C13 UNL     1      20.826   3.033  52.239  1.00  0.00     0.106 A 
HETATM   18  C15 UNL     1      21.773   2.045  52.333  1.00  0.00     0.069 A 
BRANCH  15  19
HETATM   19  O2  UNL     1      17.883   1.010  51.726  1.00  0.00    -0.353 OA
HETATM   20  C10 UNL     1      17.388   0.234  50.680  1.00  0.00     0.210 C 
ENDBRANCH  15  19
BRANCH  16  21
HETATM   21  O3  UNL     1      18.518   3.626  51.931  1.00  0.00    -0.351 OA
HETATM   22  C12 UNL     1      18.256   4.139  50.622  1.00  0.00     0.210 C 
ENDBRANCH  16  21
BRANCH  17  23
HETATM   23  O4  UNL     1      21.123   4.366  52.340  1.00  0.00    -0.353 OA
HETATM   24  C14 UNL     1      22.427   4.874  52.278  1.00  0.00     0.210 C 
ENDBRANCH  17  23
ENDBRANCH  11  13
ENDBRANCH   7  11
BRANCH  10  25
HETATM   25  O5  UNL     1      27.202   1.735  51.569  1.00  0.00    -0.353 OA
HETATM   26  C19 UNL     1      26.479   2.685  50.815  1.00  0.00     0.210 C 
ENDBRANCH  10  25
BRANCH   1  27
HETATM   27  O1  UNL     1      28.635   1.143  53.842  1.00  0.00    -0.353 OA
HETATM   28  C1  UNL     1      29.705   0.239  53.704  1.00  0.00     0.210 C 
ENDBRANCH   1  27
TORSDOF 7
ENDMDL
MODEL 2
REMARK VINA RESULT:      -7.3      0.202      2.434
REMARK  7 active torsions:
REMARK  status: ('A' for Active; 'I' for Inactive)
REMARK    1  A    between atoms: O1_2  and  C2_3 
REMARK    2  A    between atoms: C6_9  and  N3_10 
REMARK    3  A    between atoms: N3_10  and  C7_11 
REMARK    4  A    between atoms: C9_13  and  O2_14 
REMARK    5  A    between atoms: C11_16  and  O3_17 
REMARK    6  A    between atoms: C13_19  and  O4_20 
REMARK    7  A    between atoms: C18_25  and  O5_26 
ROOT
HETATM    1  C2  UNL     1      27.337   0.871  53.694  1.00  0.00     0.103 A 
HETATM    2  C3  UNL     1      26.811   0.132  54.761  1.00  0.00     0.072 A 
HETATM    3  C4  UNL     1      25.507  -0.281  54.607  1.00  0.00     0.075 A 
HETATM    4  N1  UNL     1      25.056  -1.000  55.683  1.00  0.00    -0.241 NA
HETATM    5  C5  UNL     1      23.770  -1.469  55.643  1.00  0.00     0.236 A 
HETATM    6  N2  UNL     1      23.026  -1.204  54.565  1.00  0.00    -0.224 NA
HETATM    7  C6  UNL     1      23.410  -0.510  53.490  1.00  0.00     0.142 A 
HETATM    8  C16 UNL     1      24.702  -0.033  53.518  1.00  0.00     0.042 A 
HETATM    9  C17 UNL     1      25.290   0.697  52.515  1.00  0.00     0.057 A 
HETATM   10  C18 UNL     1      26.588   1.155  52.576  1.00  0.00     0.102 A 
ENDROOT
BRANCH   7  11
HETATM   11  N3  UNL     1      22.607  -0.251  52.374  1.00  0.00    -0.340 N 
HETATM   12  H6  UNL     1      22.680  -0.770  51.495  1.00  0.00     0.167 HD
BRANCH  11  13
HETATM   13  C7  UNL     1      21.592   0.736  52.269  1.00  0.00     0.039 A 
HETATM   14  C8  UNL     1      21.839   2.077  52.378  1.00  0.00     0.069 A 
HETATM   15  C9  UNL     1      20.871   3.059  52.269  1.00  0.00     0.106 A 
HETATM   16  C11 UNL     1      19.555   2.703  52.037  1.00  0.00     0.135 A 
HETATM   17  C13 UNL     1      19.245   1.368  51.919  1.00  0.00     0.106 A 
HETATM   18  C15 UNL     1      20.258   0.450  52.038  1.00  0.00     0.069 A 
BRANCH  15  19
HETATM   19  O2  UNL     1      21.122   4.414  52.379  1.00  0.00    -0.353 OA
HETATM   20  C10 UNL     1      21.994   5.140  51.571  1.00  0.00     0.210 C 
ENDBRANCH  15  19
BRANCH  16  21
HETATM   21  O3  UNL     1      18.566   3.672  51.926  1.00  0.00    -0.351 OA
HETATM   22  C12 UNL     1      18.308   4.176  50.612  1.00  0.00     0.210 C 
ENDBRANCH  16  21
BRANCH  17  23
HETATM   23  O4  UNL     1      17.941   1.016  51.689  1.00  0.00    -0.353 OA
HETATM   24  C14 UNL     1      17.507   0.378  50.519  1.00  0.00     0.210 C 
ENDBRANCH  17  23
ENDBRANCH  11  13
ENDBRANCH   7  11
BRANCH  10  25
HETATM   25  O5  UNL     1      27.202   1.892  51.577  1.00  0.00    -0.353 OA
HETATM   26  C19 UNL     1      26.448   2.822  50.827  1.00  0.00     0.210 C 
ENDBRANCH  10  25
BRANCH   1  27
HETATM   27  O1  UNL     1      28.665   1.302  53.832  1.00  0.00    -0.353 OA
HETATM   28  C1  UNL     1      29.745   0.399  53.822  1.00  0.00     0.210 C 
ENDBRANCH   1  27
TORSDOF 7
ENDMDL
MODEL 3
REMARK VINA RESULT:      -7.1      3.998      7.060
REMARK  7 active torsions:
REMARK  status: ('A' for Active; 'I' for Inactive)
REMARK    1  A    between atoms: O1_2  and  C2_3 
REMARK    2  A    between atoms: C6_9  and  N3_10 
REMARK    3  A    between atoms: N3_10  and  C7_11 
REMARK    4  A    between atoms: C9_13  and  O2_14 
REMARK    5  A    between atoms: C11_16  and  O3_17 
REMARK    6  A    between atoms: C13_19  and  O4_20 
REMARK    7  A    between atoms: C18_25  and  O5_26 
ROOT
HETATM    1  C2  UNL     1      23.005   0.328  52.953  1.00  0.00     0.103 A 
HETATM    2  C3  UNL     1      24.294   0.349  53.500  1.00  0.00     0.072 A 
HETATM    3  C4  UNL     1      25.222   1.082  52.795  1.00  0.00     0.075 A 
HETATM    4  N1  UNL     1      26.459   1.064  53.385  1.00  0.00    -0.241 NA
HETATM    5  C5  UNL     1      27.467   1.764  52.776  1.00  0.00     0.236 A 
HETATM    6  N2  UNL     1      27.195   2.422  51.646  1.00  0.00    -0.224 NA
HETATM    7  C6  UNL     1      26.012   2.476  51.026  1.00  0.00     0.142 A 
HETATM    8  C16 UNL     1      24.991   1.777  51.630  1.00  0.00     0.042 A 
HETATM    9  C17 UNL     1      23.703   1.707  51.158  1.00  0.00     0.057 A 
HETATM   10  C18 UNL     1      22.704   1.000  51.791  1.00  0.00     0.102 A 
ENDROOT
BRANCH   7  11
HETATM   11  N3  UNL     1      25.758   3.179  49.843  1.00  0.00    -0.340 N 
HETATM   12  H6  UNL     1      25.267   2.774  49.042  1.00  0.00     0.167 HD
BRANCH  11  13
HETATM   13  C7  UNL     1      26.123   4.521  49.559  1.00  0.00     0.039 A 
HETATM   14  C8  UNL     1      25.421   5.601  50.019  1.00  0.00     0.069 A 
HETATM   15  C9  UNL     1      25.760   6.917  49.766  1.00  0.00     0.106 A 
HETATM   16  C11 UNL     1      26.875   7.203  49.000  1.00  0.00     0.135 A 
HETATM   17  C13 UNL     1      27.622   6.157  48.507  1.00  0.00     0.106 A 
HETATM   18  C15 UNL     1      27.224   4.877  48.800  1.00  0.00     0.069 A 
BRANCH  15  19
HETATM   19  O2  UNL     1      25.050   8.007  50.233  1.00  0.00    -0.353 OA
HETATM   20  C10 UNL     1      23.662   8.086  50.323  1.00  0.00     0.210 C 
ENDBRANCH  15  19
BRANCH  16  21
HETATM   21  O3  UNL     1      27.235   8.518  48.731  1.00  0.00    -0.351 OA
HETATM   22  C12 UNL     1      28.037   9.177  49.715  1.00  0.00     0.210 C 
ENDBRANCH  16  21
BRANCH  17  23
HETATM   23  O4  UNL     1      28.726   6.441  47.748  1.00  0.00    -0.353 OA
HETATM   24  C14 UNL     1      29.986   5.873  47.974  1.00  0.00     0.210 C 
ENDBRANCH  17  23
ENDBRANCH  11  13
ENDBRANCH   7  11
BRANCH  10  25
HETATM   25  O5  UNL     1      21.400   0.915  51.334  1.00  0.00    -0.353 OA
HETATM   26  C19 UNL     1      21.128   1.064  49.956  1.00  0.00     0.210 C 
ENDBRANCH  10  25
BRANCH   1  27
HETATM   27  O1  UNL     1      22.044  -0.414  53.656  1.00  0.00    -0.353 OA
HETATM   28  C1  UNL     1      22.396  -1.278  54.710  1.00  0.00     0.210 C 
ENDBRANCH   1  27
TORSDOF 7
ENDMDL
MODEL 4
REMARK VINA RESULT:      -7.1      3.926      7.200
REMARK  7 active torsions:
REMARK  status: ('A' for Active; 'I' for Inactive)
REMARK    1  A    between atoms: O1_2  and  C2_3 
REMARK    2  A    between atoms: C6_9  and  N3_10 
REMARK    3  A    between atoms: N3_10  and  C7_11 
REMARK    4  A    between atoms: C9_13  and  O2_14 
REMARK    5  A    between atoms: C11_16  and  O3_17 
REMARK    6  A    between atoms: C13_19  and  O4_20 
REMARK    7  A    between atoms: C18_25  and  O5_26 
ROOT
HETATM    1  C2  UNL     1      22.922   0.359  53.031  1.00  0.00     0.103 A 
HETATM    2  C3  UNL     1      24.219   0.349  53.559  1.00  0.00     0.072 A 
HETATM    3  C4  UNL     1      25.155   1.056  52.839  1.00  0.00     0.075 A 
HETATM    4  N1  UNL     1      26.399   1.008  53.410  1.00  0.00    -0.241 NA
HETATM    5  C5  UNL     1      27.416   1.680  52.784  1.00  0.00     0.236 A 
HETATM    6  N2  UNL     1      27.144   2.342  51.656  1.00  0.00    -0.224 NA
HETATM    7  C6  UNL     1      25.954   2.423  51.053  1.00  0.00     0.142 A 
HETATM    8  C16 UNL     1      24.924   1.752  51.674  1.00  0.00     0.042 A 
HETATM    9  C17 UNL     1      23.629   1.713  51.221  1.00  0.00     0.057 A 
HETATM   10  C18 UNL     1      22.622   1.034  51.871  1.00  0.00     0.102 A 
ENDROOT
BRANCH   7  11
HETATM   11  N3  UNL     1      25.701   3.128  49.871  1.00  0.00    -0.340 N 
HETATM   12  H6  UNL     1      25.181   2.737  49.082  1.00  0.00     0.167 HD
BRANCH  11  13
HETATM   13  C7  UNL     1      26.106   4.456  49.572  1.00  0.00     0.039 A 
HETATM   14  C8  UNL     1      27.200   4.749  48.804  1.00  0.00     0.069 A 
HETATM   15  C9  UNL     1      27.609   6.032  48.489  1.00  0.00     0.106 A 
HETATM   16  C11 UNL     1      26.894   7.116  48.961  1.00  0.00     0.135 A 
HETATM   17  C13 UNL     1      25.784   6.884  49.741  1.00  0.00     0.106 A 
HETATM   18  C15 UNL     1      25.438   5.585  50.012  1.00  0.00     0.069 A 
BRANCH  15  19
HETATM   19  O2  UNL     1      28.715   6.326  47.712  1.00  0.00    -0.353 OA
HETATM   20  C10 UNL     1      30.031   5.996  48.027  1.00  0.00     0.210 C 
ENDBRANCH  15  19
BRANCH  16  21
HETATM   21  O3  UNL     1      27.288   8.414  48.659  1.00  0.00    -0.351 OA
HETATM   22  C12 UNL     1      28.140   9.062  49.607  1.00  0.00     0.210 C 
ENDBRANCH  16  21
BRANCH  17  23
HETATM   23  O4  UNL     1      25.076   7.959  50.209  1.00  0.00    -0.353 OA
HETATM   24  C14 UNL     1      23.779   7.864  50.729  1.00  0.00     0.210 C 
ENDBRANCH  17  23
ENDBRANCH  11  13
ENDBRANCH   7  11
BRANCH  10  25
HETATM   25  O5  UNL     1      21.309   0.981  51.433  1.00  0.00    -0.353 OA
HETATM   26  C19 UNL     1      20.408   2.008  51.790  1.00  0.00     0.210 C 
ENDBRANCH  10  25
BRANCH   1  27
HETATM   27  O1  UNL     1      21.953  -0.356  53.750  1.00  0.00    -0.353 OA
HETATM   28  C1  UNL     1      22.300  -1.255  54.777  1.00  0.00     0.210 C 
ENDBRANCH   1  27
TORSDOF 7
ENDMDL
MODEL 5
REMARK VINA RESULT:      -7.1      2.307      3.891
REMARK  7 active torsions:
REMARK  status: ('A' for Active; 'I' for Inactive)
REMARK    1  A    between atoms: O1_2  and  C2_3 
REMARK    2  A    between atoms: C6_9  and  N3_10 
REMARK    3  A    between atoms: N3_10  and  C7_11 
REMARK    4  A    between atoms: C9_13  and  O2_14 
REMARK    5  A    between atoms: C11_16  and  O3_17 
REMARK    6  A    between atoms: C13_19  and  O4_20 
REMARK    7  A    between atoms: C18_25  and  O5_26 
ROOT
HETATM    1  C2  UNL     1      27.250   0.012  53.613  1.00  0.00     0.103 A 
HETATM    2  C3  UNL     1      27.608   0.829  52.534  1.00  0.00     0.072 A 
HETATM    3  C4  UNL     1      26.627   1.687  52.093  1.00  0.00     0.075 A 
HETATM    4  N1  UNL     1      27.042   2.459  51.040  1.00  0.00    -0.241 NA
HETATM    5  C5  UNL     1      26.151   3.358  50.516  1.00  0.00     0.236 A 
HETATM    6  N2  UNL     1      24.931   3.434  51.054  1.00  0.00    -0.224 NA
HETATM    7  C6  UNL     1      24.470   2.709  52.077  1.00  0.00     0.142 A 
HETATM    8  C16 UNL     1      25.358   1.803  52.613  1.00  0.00     0.042 A 
HETATM    9  C17 UNL     1      25.084   0.968  53.668  1.00  0.00     0.057 A 
HETATM   10  C18 UNL     1      25.999   0.075  54.181  1.00  0.00     0.102 A 
ENDROOT
BRANCH   7  11
HETATM   11  N3  UNL     1      23.185   2.816  52.621  1.00  0.00    -0.340 N 
HETATM   12  H6  UNL     1      22.936   3.487  53.351  1.00  0.00     0.167 HD
BRANCH  11  13
HETATM   13  C7  UNL     1      22.048   2.042  52.268  1.00  0.00     0.039 A 
HETATM   14  C8  UNL     1      21.378   2.192  51.085  1.00  0.00     0.069 A 
HETATM   15  C9  UNL     1      20.275   1.445  50.714  1.00  0.00     0.106 A 
HETATM   16  C11 UNL     1      19.786   0.472  51.566  1.00  0.00     0.135 A 
HETATM   17  C13 UNL     1      20.419   0.275  52.772  1.00  0.00     0.106 A 
HETATM   18  C15 UNL     1      21.507   1.054  53.073  1.00  0.00     0.069 A 
BRANCH  15  19
HETATM   19  O2  UNL     1      19.600   1.598  49.517  1.00  0.00    -0.353 OA
HETATM   20  C10 UNL     1      18.874   2.726  49.140  1.00  0.00     0.210 C 
ENDBRANCH  15  19
BRANCH  16  21
HETATM   21  O3  UNL     1      18.679  -0.290  51.214  1.00  0.00    -0.351 OA
HETATM   22  C12 UNL     1      17.403   0.203  51.632  1.00  0.00     0.210 C 
ENDBRANCH  16  21
BRANCH  17  23
HETATM   23  O4  UNL     1      19.934  -0.689  53.616  1.00  0.00    -0.353 OA
HETATM   24  C14 UNL     1      20.748  -1.610  54.287  1.00  0.00     0.210 C 
ENDBRANCH  17  23
ENDBRANCH  11  13
ENDBRANCH   7  11
BRANCH  10  25
HETATM   25  O5  UNL     1      25.746  -0.777  55.243  1.00  0.00    -0.353 OA
HETATM   26  C19 UNL     1      24.429  -1.224  55.485  1.00  0.00     0.210 C 
ENDBRANCH  10  25
BRANCH   1  27
HETATM   27  O1  UNL     1      28.237  -0.871  54.078  1.00  0.00    -0.353 OA
HETATM   28  C1  UNL     1      29.607  -0.646  53.843  1.00  0.00     0.210 C 
ENDBRANCH   1  27
TORSDOF 7
ENDMDL
MODEL 6
REMARK VINA RESULT:      -7.0      2.353      3.808
REMARK  7 active torsions:
REMARK  status: ('A' for Active; 'I' for Inactive)
REMARK    1  A    between atoms: O1_2  and  C2_3 
REMARK    2  A    between atoms: C6_9  and  N3_10 
REMARK    3  A    between atoms: N3_10  and  C7_11 
REMARK    4  A    between atoms: C9_13  and  O2_14 
REMARK    5  A    between atoms: C11_16  and  O3_17 
REMARK    6  A    between atoms: C13_19  and  O4_20 
REMARK    7  A    between atoms: C18_25  and  O5_26 
ROOT
HETATM    1  C2  UNL     1      27.374   0.190  53.792  1.00  0.00     0.103 A 
HETATM    2  C3  UNL     1      27.719   0.974  52.685  1.00  0.00     0.072 A 
HETATM    3  C4  UNL     1      26.719   1.788  52.203  1.00  0.00     0.075 A 
HETATM    4  N1  UNL     1      27.124   2.530  51.125  1.00  0.00    -0.241 NA
HETATM    5  C5  UNL     1      26.213   3.383  50.559  1.00  0.00     0.236 A 
HETATM    6  N2  UNL     1      24.987   3.447  51.084  1.00  0.00    -0.224 NA
HETATM    7  C6  UNL     1      24.536   2.750  52.131  1.00  0.00     0.142 A 
HETATM    8  C16 UNL     1      25.443   1.889  52.708  1.00  0.00     0.042 A 
HETATM    9  C17 UNL     1      25.182   1.088  53.793  1.00  0.00     0.057 A 
HETATM   10  C18 UNL     1      26.116   0.241  54.347  1.00  0.00     0.102 A 
ENDROOT
BRANCH   7  11
HETATM   11  N3  UNL     1      23.244   2.842  52.659  1.00  0.00    -0.340 N 
HETATM   12  H6  UNL     1      22.980   3.510  53.388  1.00  0.00     0.167 HD
BRANCH  11  13
HETATM   13  C7  UNL     1      22.119   2.058  52.292  1.00  0.00     0.039 A 
HETATM   14  C8  UNL     1      21.642   1.029  53.058  1.00  0.00     0.069 A 
HETATM   15  C9  UNL     1      20.543   0.258  52.729  1.00  0.00     0.106 A 
HETATM   16  C11 UNL     1      19.853   0.509  51.557  1.00  0.00     0.135 A 
HETATM   17  C13 UNL     1      20.287   1.531  50.744  1.00  0.00     0.106 A 
HETATM   18  C15 UNL     1      21.385   2.255  51.135  1.00  0.00     0.069 A 
BRANCH  15  19
HETATM   19  O2  UNL     1      20.062  -0.781  53.504  1.00  0.00    -0.353 OA
HETATM   20  C10 UNL     1      20.839  -1.618  54.301  1.00  0.00     0.210 C 
ENDBRANCH  15  19
BRANCH  16  21
HETATM   21  O3  UNL     1      18.747  -0.254  51.205  1.00  0.00    -0.351 OA
HETATM   22  C12 UNL     1      17.475   0.214  51.662  1.00  0.00     0.210 C 
ENDBRANCH  16  21
BRANCH  17  23
HETATM   23  O4  UNL     1      19.604   1.780  49.583  1.00  0.00    -0.353 OA
HETATM   24  C14 UNL     1      20.148   2.482  48.500  1.00  0.00     0.210 C 
ENDBRANCH  17  23
ENDBRANCH  11  13
ENDBRANCH   7  11
BRANCH  10  25
HETATM   25  O5  UNL     1      25.876  -0.576  55.440  1.00  0.00    -0.353 OA
HETATM   26  C19 UNL     1      24.606  -1.170  55.606  1.00  0.00     0.210 C 
ENDBRANCH  10  25
BRANCH   1  27
HETATM   27  O1  UNL     1      28.379  -0.648  54.299  1.00  0.00    -0.353 OA
HETATM   28  C1  UNL     1      29.296  -1.305  53.456  1.00  0.00     0.210 C 
ENDBRANCH   1  27
TORSDOF 7
ENDMDL
MODEL 7
REMARK VINA RESULT:      -6.9      4.423      7.798
REMARK  7 active torsions:
REMARK  status: ('A' for Active; 'I' for Inactive)
REMARK    1  A    between atoms: O1_2  and  C2_3 
REMARK    2  A    between atoms: C6_9  and  N3_10 
REMARK    3  A    between atoms: N3_10  and  C7_11 
REMARK    4  A    between atoms: C9_13  and  O2_14 
REMARK    5  A    between atoms: C11_16  and  O3_17 
REMARK    6  A    between atoms: C13_19  and  O4_20 
REMARK    7  A    between atoms: C18_25  and  O5_26 
ROOT
HETATM    1  C2  UNL     1      28.426   7.086  47.705  1.00  0.00     0.103 A 
HETATM    2  C3  UNL     1      27.072   7.422  47.817  1.00  0.00     0.072 A 
HETATM    3  C4  UNL     1      26.265   6.450  48.363  1.00  0.00     0.075 A 
HETATM    4  N1  UNL     1      24.955   6.844  48.447  1.00  0.00    -0.241 NA
HETATM    5  C5  UNL     1      24.055   5.959  48.980  1.00  0.00     0.236 A 
HETATM    6  N2  UNL     1      24.497   4.766  49.386  1.00  0.00    -0.224 NA
HETATM    7  C6  UNL     1      25.758   4.327  49.329  1.00  0.00     0.142 A 
HETATM    8  C16 UNL     1      26.672   5.209  48.796  1.00  0.00     0.042 A 
HETATM    9  C17 UNL     1      28.014   4.955  48.653  1.00  0.00     0.057 A 
HETATM   10  C18 UNL     1      28.901   5.863  48.118  1.00  0.00     0.102 A 
ENDROOT
BRANCH   7  11
HETATM   11  N3  UNL     1      26.190   3.070  49.767  1.00  0.00    -0.340 N 
HETATM   12  H6  UNL     1      26.593   2.365  49.145  1.00  0.00     0.167 HD
BRANCH  11  13
HETATM   13  C7  UNL     1      26.147   2.574  51.097  1.00  0.00     0.039 A 
HETATM   14  C8  UNL     1      25.024   2.028  51.655  1.00  0.00     0.069 A 
HETATM   15  C9  UNL     1      24.958   1.528  52.943  1.00  0.00     0.106 A 
HETATM   16  C11 UNL     1      26.078   1.564  53.751  1.00  0.00     0.135 A 
HETATM   17  C13 UNL     1      27.239   2.104  53.245  1.00  0.00     0.106 A 
HETATM   18  C15 UNL     1      27.230   2.580  51.959  1.00  0.00     0.069 A 
BRANCH  15  19
HETATM   19  O2  UNL     1      23.822   0.976  53.505  1.00  0.00    -0.353 OA
HETATM   20  C10 UNL     1      23.263  -0.251  53.154  1.00  0.00     0.210 C 
ENDBRANCH  15  19
BRANCH  16  21
HETATM   21  O3  UNL     1      26.035   1.069  55.049  1.00  0.00    -0.351 OA
HETATM   22  C12 UNL     1      26.276  -0.332  55.208  1.00  0.00     0.210 C 
ENDBRANCH  16  21
BRANCH  17  23
HETATM   23  O4  UNL     1      28.349   2.139  54.047  1.00  0.00    -0.353 OA
HETATM   24  C14 UNL     1      29.377   1.190  53.988  1.00  0.00     0.210 C 
ENDBRANCH  17  23
ENDBRANCH  11  13
ENDBRANCH   7  11
BRANCH  10  25
HETATM   25  O5  UNL     1      30.258   5.629  47.964  1.00  0.00    -0.353 OA
HETATM   26  C19 UNL     1      31.148   5.939  49.015  1.00  0.00     0.210 C 
ENDBRANCH  10  25
BRANCH   1  27
HETATM   27  O1  UNL     1      29.266   8.064  47.151  1.00  0.00    -0.353 OA
HETATM   28  C1  UNL     1      29.548   9.269  47.821  1.00  0.00     0.210 C 
ENDBRANCH   1  27
TORSDOF 7
ENDMDL
MODEL 8
REMARK VINA RESULT:      -6.9      6.544      9.001
REMARK  7 active torsions:
REMARK  status: ('A' for Active; 'I' for Inactive)
REMARK    1  A    between atoms: O1_2  and  C2_3 
REMARK    2  A    between atoms: C6_9  and  N3_10 
REMARK    3  A    between atoms: N3_10  and  C7_11 
REMARK    4  A    between atoms: C9_13  and  O2_14 
REMARK    5  A    between atoms: C11_16  and  O3_17 
REMARK    6  A    between atoms: C13_19  and  O4_20 
REMARK    7  A    between atoms: C18_25  and  O5_26 
ROOT
HETATM    1  C2  UNL     1      33.009   5.931  48.623  1.00  0.00     0.103 A 
HETATM    2  C3  UNL     1      32.720   7.247  49.004  1.00  0.00     0.072 A 
HETATM    3  C4  UNL     1      31.399   7.618  48.893  1.00  0.00     0.075 A 
HETATM    4  N1  UNL     1      31.185   8.913  49.285  1.00  0.00    -0.241 NA
HETATM    5  C5  UNL     1      29.905   9.396  49.222  1.00  0.00     0.236 A 
HETATM    6  N2  UNL     1      28.938   8.586  48.784  1.00  0.00    -0.224 NA
HETATM    7  C6  UNL     1      29.086   7.318  48.389  1.00  0.00     0.142 A 
HETATM    8  C16 UNL     1      30.369   6.821  48.448  1.00  0.00     0.042 A 
HETATM    9  C17 UNL     1      30.733   5.546  48.092  1.00  0.00     0.057 A 
HETATM   10  C18 UNL     1      32.027   5.081  48.169  1.00  0.00     0.102 A 
ENDROOT
BRANCH   7  11
HETATM   11  N3  UNL     1      28.050   6.493  47.937  1.00  0.00    -0.340 N 
HETATM   12  H6  UNL     1      27.900   6.265  46.951  1.00  0.00     0.167 HD
BRANCH  11  13
HETATM   13  C7  UNL     1      27.065   5.854  48.735  1.00  0.00     0.039 A 
HETATM   14  C8  UNL     1      27.137   4.537  49.101  1.00  0.00     0.069 A 
HETATM   15  C9  UNL     1      26.197   3.894  49.885  1.00  0.00     0.106 A 
HETATM   16  C11 UNL     1      25.098   4.591  50.350  1.00  0.00     0.135 A 
HETATM   17  C13 UNL     1      24.970   5.920  50.014  1.00  0.00     0.106 A 
HETATM   18  C15 UNL     1      25.941   6.491  49.232  1.00  0.00     0.069 A 
BRANCH  15  19
HETATM   19  O2  UNL     1      26.272   2.564  50.254  1.00  0.00    -0.353 OA
HETATM   20  C10 UNL     1      26.785   2.089  51.459  1.00  0.00     0.210 C 
ENDBRANCH  15  19
BRANCH  16  21
HETATM   21  O3  UNL     1      24.140   3.965  51.139  1.00  0.00    -0.351 OA
HETATM   22  C12 UNL     1      23.045   3.354  50.451  1.00  0.00     0.210 C 
ENDBRANCH  16  21
BRANCH  17  23
HETATM   23  O4  UNL     1      23.880   6.610  50.475  1.00  0.00    -0.353 OA
HETATM   24  C14 UNL     1      23.774   8.006  50.432  1.00  0.00     0.210 C 
ENDBRANCH  17  23
ENDBRANCH  11  13
ENDBRANCH   7  11
BRANCH  10  25
HETATM   25  O5  UNL     1      32.418   3.800  47.816  1.00  0.00    -0.353 OA
HETATM   26  C19 UNL     1      32.082   3.290  46.542  1.00  0.00     0.210 C 
ENDBRANCH  10  25
BRANCH   1  27
HETATM   27  O1  UNL     1      34.350   5.533  48.729  1.00  0.00    -0.353 OA
HETATM   28  C1  UNL     1      35.407   6.462  48.687  1.00  0.00     0.210 C 
ENDBRANCH   1  27
TORSDOF 7
ENDMDL
MODEL 9
REMARK VINA RESULT:      -6.8      3.881      6.941
REMARK  7 active torsions:
REMARK  status: ('A' for Active; 'I' for Inactive)
REMARK    1  A    between atoms: O1_2  and  C2_3 
REMARK    2  A    between atoms: C6_9  and  N3_10 
REMARK    3  A    between atoms: N3_10  and  C7_11 
REMARK    4  A    between atoms: C9_13  and  O2_14 
REMARK    5  A    between atoms: C11_16  and  O3_17 
REMARK    6  A    between atoms: C13_19  and  O4_20 
REMARK    7  A    between atoms: C18_25  and  O5_26 
ROOT
HETATM    1  C2  UNL     1      25.673  -0.027  53.753  1.00  0.00     0.103 A 
HETATM    2  C3  UNL     1      24.398   0.389  53.353  1.00  0.00     0.072 A 
HETATM    3  C4  UNL     1      24.368   1.251  52.280  1.00  0.00     0.075 A 
HETATM    4  N1  UNL     1      23.093   1.616  51.938  1.00  0.00    -0.241 NA
HETATM    5  C5  UNL     1      22.935   2.470  50.879  1.00  0.00     0.236 A 
HETATM    6  N2  UNL     1      24.026   2.903  50.240  1.00  0.00    -0.224 NA
HETATM    7  C6  UNL     1      25.291   2.583  50.527  1.00  0.00     0.142 A 
HETATM    8  C16 UNL     1      25.461   1.724  51.590  1.00  0.00     0.042 A 
HETATM    9  C17 UNL     1      26.675   1.270  52.044  1.00  0.00     0.057 A 
HETATM   10  C18 UNL     1      26.808   0.406  53.108  1.00  0.00     0.102 A 
ENDROOT
BRANCH   7  11
HETATM   11  N3  UNL     1      26.413   3.051  49.835  1.00  0.00    -0.340 N 
HETATM   12  H6  UNL     1      27.214   2.461  49.596  1.00  0.00     0.167 HD
BRANCH  11  13
HETATM   13  C7  UNL     1      26.629   4.373  49.363  1.00  0.00     0.039 A 
HETATM   14  C8  UNL     1      25.713   5.379  49.511  1.00  0.00     0.069 A 
HETATM   15  C9  UNL     1      25.903   6.676  49.070  1.00  0.00     0.106 A 
HETATM   16  C11 UNL     1      27.081   7.019  48.433  1.00  0.00     0.135 A 
HETATM   17  C13 UNL     1      28.040   6.048  48.254  1.00  0.00     0.106 A 
HETATM   18  C15 UNL     1      27.782   4.783  48.717  1.00  0.00     0.069 A 
BRANCH  15  19
HETATM   19  O2  UNL     1      24.977   7.691  49.221  1.00  0.00    -0.353 OA
HETATM   20  C10 UNL     1      24.378   8.064  50.422  1.00  0.00     0.210 C 
ENDBRANCH  15  19
BRANCH  16  21
HETATM   21  O3  UNL     1      27.293   8.315  47.980  1.00  0.00    -0.351 OA
HETATM   22  C12 UNL     1      27.919   9.219  48.895  1.00  0.00     0.210 C 
ENDBRANCH  16  21
BRANCH  17  23
HETATM   23  O4  UNL     1      29.207   6.389  47.622  1.00  0.00    -0.353 OA
HETATM   24  C14 UNL     1      30.472   6.247  48.206  1.00  0.00     0.210 C 
ENDBRANCH  17  23
ENDBRANCH  11  13
ENDBRANCH   7  11
BRANCH  10  25
HETATM   25  O5  UNL     1      28.021  -0.064  53.584  1.00  0.00    -0.353 OA
HETATM   26  C19 UNL     1      28.727   0.676  54.558  1.00  0.00     0.210 C 
ENDBRANCH  10  25
BRANCH   1  27
HETATM   27  O1  UNL     1      25.726  -0.906  54.845  1.00  0.00    -0.353 OA
HETATM   28  C1  UNL     1      24.574  -1.254  55.577  1.00  0.00     0.210 C 
ENDBRANCH   1  27
TORSDOF 7
ENDMDL
