MODEL 1
REMARK VINA RESULT:      -8.9      0.000      0.000
REMARK  7 active torsions:
REMARK  status: ('A' for Active; 'I' for Inactive)
REMARK    1  A    between atoms: O1_2  and  C2_3 
REMARK    2  A    between atoms: C5_6  and  C6_7 
REMARK    3  A    between atoms: C7_8  and  C8_9 
REMARK    4  A    between atoms: C8_9  and  N1_12 
REMARK    5  A    between atoms: C12_14  and  C13_15 
REMARK    6  A    between atoms: C13_15  and  C14_17 
REMARK    7  A    between atoms: C17_20  and  N2_21 
ROOT
HETATM    1  C2  UNL     1      19.588   1.038  51.926  1.00  0.00     0.082 A 
HETATM    2  C3  UNL     1      18.421   0.931  51.210  1.00  0.00     0.039 A 
HETATM    3  C4  UNL     1      17.571  -0.118  51.468  1.00  0.00     0.023 A 
HETATM    4  C5  UNL     1      17.858  -1.064  52.423  1.00  0.00     0.018 A 
HETATM    5  C11 UNL     1      19.050  -0.873  53.088  1.00  0.00     0.039 A 
HETATM    6  C12 UNL     1      19.989   0.159  52.907  1.00  0.00     0.050 A 
ENDROOT
BRANCH   6   7
HETATM    7  C13 UNL     1      21.137   0.163  53.774  1.00  0.00     0.195 C 
HETATM    8  O2  UNL     1      20.704   0.189  54.981  1.00  0.00    -0.287 OA
BRANCH   7   9
HETATM    9  C14 UNL     1      22.577   0.147  53.617  1.00  0.00     0.015 A 
HETATM   10  C15 UNL     1      23.228  -0.693  54.527  1.00  0.00     0.018 A 
HETATM   11  C16 UNL     1      24.621  -0.789  54.504  1.00  0.00     0.030 A 
HETATM   12  C17 UNL     1      25.369  -0.070  53.599  1.00  0.00     0.034 A 
HETATM   13  C23 UNL     1      24.757   0.757  52.700  1.00  0.00     0.030 A 
HETATM   14  C24 UNL     1      23.390   0.828  52.750  1.00  0.00     0.018 A 
BRANCH  12  15
HETATM   15  N2  UNL     1      26.782  -0.201  53.615  1.00  0.00    -0.350 N 
HETATM   16  C18 UNL     1      27.642   0.786  54.163  1.00  0.00     0.133 A 
HETATM   17  C19 UNL     1      28.964   0.728  54.206  1.00  0.00     0.131 A 
HETATM   18  F1  UNL     1      29.764   1.682  54.733  1.00  0.00    -0.205 F 
HETATM   19  C20 UNL     1      29.624  -0.446  53.647  1.00  0.00     0.041 A 
HETATM   20  C21 UNL     1      28.857  -1.389  53.129  1.00  0.00    -0.004 A 
HETATM   21  C22 UNL     1      27.390  -1.397  53.046  1.00  0.00     0.156 A 
ENDBRANCH  12  15
ENDBRANCH   7   9
ENDBRANCH   6   7
BRANCH   1  22
HETATM   22  O1  UNL     1      20.463   2.080  51.685  1.00  0.00    -0.355 OA
HETATM   23  C1  UNL     1      20.148   3.356  52.191  1.00  0.00     0.210 C 
ENDBRANCH   1  22
BRANCH   4  24
HETATM   24  C6  UNL     1      17.002  -2.175  52.725  1.00  0.00    -0.064 C 
HETATM   25  C7  UNL     1      16.266  -3.102  52.972  1.00  0.00    -0.060 C 
BRANCH  25  26
HETATM   26  C8  UNL     1      15.361  -4.212  53.280  1.00  0.00     0.210 C 
HETATM   27  C9  UNL     1      14.996  -4.906  51.986  1.00  0.00     0.063 C 
HETATM   28  C10 UNL     1      16.070  -5.140  54.235  1.00  0.00     0.063 C 
BRANCH  26  29
HETATM   29  N1  UNL     1      14.150  -3.760  53.926  1.00  0.00     0.099 N 
HETATM   30  H12 UNL     1      13.809  -4.387  54.680  1.00  0.00     0.315 HD
HETATM   31  H13 UNL     1      14.159  -2.754  54.202  1.00  0.00     0.315 HD
ENDBRANCH  26  29
ENDBRANCH  25  26
ENDBRANCH   4  24
TORSDOF 7
ENDMDL
MODEL 2
REMARK VINA RESULT:      -8.7      6.752     12.011
REMARK  7 active torsions:
REMARK  status: ('A' for Active; 'I' for Inactive)
REMARK    1  A    between atoms: O1_2  and  C2_3 
REMARK    2  A    between atoms: C5_6  and  C6_7 
REMARK    3  A    between atoms: C7_8  and  C8_9 
REMARK    4  A    between atoms: C8_9  and  N1_12 
REMARK    5  A    between atoms: C12_14  and  C13_15 
REMARK    6  A    between atoms: C13_15  and  C14_17 
REMARK    7  A    between atoms: C17_20  and  N2_21 
ROOT
HETATM    1  C2  UNL     1      28.293   7.719  48.562  1.00  0.00     0.082 A 
HETATM    2  C3  UNL     1      29.575   8.153  48.336  1.00  0.00     0.039 A 
HETATM    3  C4  UNL     1      30.553   7.231  48.045  1.00  0.00     0.023 A 
HETATM    4  C5  UNL     1      30.281   5.885  47.976  1.00  0.00     0.018 A 
HETATM    5  C11 UNL     1      28.966   5.546  48.218  1.00  0.00     0.039 A 
HETATM    6  C12 UNL     1      27.891   6.403  48.521  1.00  0.00     0.050 A 
ENDROOT
BRANCH   6   7
HETATM    7  C13 UNL     1      26.595   5.799  48.677  1.00  0.00     0.195 C 
HETATM    8  O2  UNL     1      25.769   6.478  47.968  1.00  0.00    -0.287 OA
BRANCH   7   9
HETATM    9  C14 UNL     1      26.035   4.677  49.402  1.00  0.00     0.015 A 
HETATM   10  C15 UNL     1      24.643   4.736  49.533  1.00  0.00     0.018 A 
HETATM   11  C16 UNL     1      23.971   3.729  50.228  1.00  0.00     0.030 A 
HETATM   12  C17 UNL     1      24.654   2.675  50.791  1.00  0.00     0.034 A 
HETATM   13  C23 UNL     1      26.013   2.594  50.676  1.00  0.00     0.030 A 
HETATM   14  C24 UNL     1      26.641   3.598  49.988  1.00  0.00     0.018 A 
BRANCH  12  15
HETATM   15  N2  UNL     1      23.926   1.676  51.489  1.00  0.00    -0.350 N 
HETATM   16  C18 UNL     1      24.472   0.938  52.570  1.00  0.00     0.133 A 
HETATM   17  C19 UNL     1      23.851  -0.006  53.259  1.00  0.00     0.131 A 
HETATM   18  F1  UNL     1      24.392  -0.698  54.287  1.00  0.00    -0.205 F 
HETATM   19  C20 UNL     1      22.479  -0.339  52.896  1.00  0.00     0.041 A 
HETATM   20  C21 UNL     1      21.933   0.327  51.894  1.00  0.00    -0.004 A 
HETATM   21  C22 UNL     1      22.556   1.385  51.086  1.00  0.00     0.156 A 
ENDBRANCH  12  15
ENDBRANCH   7   9
ENDBRANCH   6   7
BRANCH   1  22
HETATM   22  O1  UNL     1      27.291   8.623  48.861  1.00  0.00    -0.355 OA
HETATM   23  C1  UNL     1      27.246   9.176  50.156  1.00  0.00     0.210 C 
ENDBRANCH   1  22
BRANCH   4  24
HETATM   24  C6  UNL     1      31.267   4.888  47.677  1.00  0.00    -0.064 C 
HETATM   25  C7  UNL     1      32.088   4.033  47.434  1.00  0.00    -0.060 C 
BRANCH  25  26
HETATM   26  C8  UNL     1      33.080   2.991  47.158  1.00  0.00     0.210 C 
HETATM   27  C9  UNL     1      32.352   1.747  46.698  1.00  0.00     0.063 C 
HETATM   28  C10 UNL     1      34.023   3.514  46.102  1.00  0.00     0.063 C 
BRANCH  26  29
HETATM   29  N1  UNL     1      33.865   2.669  48.327  1.00  0.00     0.099 N 
HETATM   30  H12 UNL     1      33.965   1.650  48.506  1.00  0.00     0.315 HD
HETATM   31  H13 UNL     1      34.766   3.188  48.397  1.00  0.00     0.315 HD
ENDBRANCH  26  29
ENDBRANCH  25  26
ENDBRANCH   4  24
TORSDOF 7
ENDMDL
MODEL 3
REMARK VINA RESULT:      -8.5      6.157     11.166
REMARK  7 active torsions:
REMARK  status: ('A' for Active; 'I' for Inactive)
REMARK    1  A    between atoms: O1_2  and  C2_3 
REMARK    2  A    between atoms: C5_6  and  C6_7 
REMARK    3  A    between atoms: C7_8  and  C8_9 
REMARK    4  A    between atoms: C8_9  and  N1_12 
REMARK    5  A    between atoms: C12_14  and  C13_15 
REMARK    6  A    between atoms: C13_15  and  C14_17 
REMARK    7  A    between atoms: C17_20  and  N2_21 
ROOT
HETATM    1  C2  UNL     1      26.400   6.932  48.927  1.00  0.00     0.082 A 
HETATM    2  C3  UNL     1      27.420   7.752  48.514  1.00  0.00     0.039 A 
HETATM    3  C4  UNL     1      28.627   7.196  48.163  1.00  0.00     0.023 A 
HETATM    4  C5  UNL     1      28.840   5.839  48.213  1.00  0.00     0.018 A 
HETATM    5  C11 UNL     1      27.759   5.097  48.639  1.00  0.00     0.039 A 
HETATM    6  C12 UNL     1      26.485   5.560  49.020  1.00  0.00     0.050 A 
ENDROOT
BRANCH   6   7
HETATM    7  C13 UNL     1      25.505   4.569  49.374  1.00  0.00     0.195 C 
HETATM    8  O2  UNL     1      24.502   4.726  48.591  1.00  0.00    -0.287 OA
BRANCH   7   9
HETATM    9  C14 UNL     1      25.389   3.503  50.347  1.00  0.00     0.015 A 
HETATM   10  C15 UNL     1      24.103   3.374  50.883  1.00  0.00     0.018 A 
HETATM   11  C16 UNL     1      23.851   2.399  51.850  1.00  0.00     0.030 A 
HETATM   12  C17 UNL     1      24.849   1.558  52.289  1.00  0.00     0.034 A 
HETATM   13  C23 UNL     1      26.113   1.663  51.782  1.00  0.00     0.030 A 
HETATM   14  C24 UNL     1      26.325   2.630  50.835  1.00  0.00     0.018 A 
BRANCH  12  15
HETATM   15  N2  UNL     1      24.544   0.584  53.275  1.00  0.00    -0.350 N 
HETATM   16  C18 UNL     1      23.240   0.056  53.461  1.00  0.00     0.133 A 
HETATM   17  C19 UNL     1      22.888  -0.849  54.361  1.00  0.00     0.131 A 
HETATM   18  F1  UNL     1      21.638  -1.337  54.520  1.00  0.00    -0.205 F 
HETATM   19  C20 UNL     1      23.914  -1.369  55.257  1.00  0.00     0.041 A 
HETATM   20  C21 UNL     1      25.142  -0.903  55.115  1.00  0.00    -0.004 A 
HETATM   21  C22 UNL     1      25.607   0.096  54.143  1.00  0.00     0.156 A 
ENDBRANCH  12  15
ENDBRANCH   7   9
ENDBRANCH   6   7
BRANCH   1  22
HETATM   22  O1  UNL     1      25.177   7.464  49.291  1.00  0.00    -0.355 OA
HETATM   23  C1  UNL     1      24.527   8.334  48.394  1.00  0.00     0.210 C 
ENDBRANCH   1  22
BRANCH   4  24
HETATM   24  C6  UNL     1      30.082   5.215  47.857  1.00  0.00    -0.064 C 
HETATM   25  C7  UNL     1      31.126   4.695  47.538  1.00  0.00    -0.060 C 
BRANCH  25  26
HETATM   26  C8  UNL     1      32.382   4.058  47.136  1.00  0.00     0.210 C 
HETATM   27  C9  UNL     1      32.062   2.710  46.525  1.00  0.00     0.063 C 
HETATM   28  C10 UNL     1      33.074   4.970  46.154  1.00  0.00     0.063 C 
BRANCH  26  29
HETATM   29  N1  UNL     1      33.273   3.863  48.257  1.00  0.00     0.099 N 
HETATM   30  H12 UNL     1      33.468   4.727  48.801  1.00  0.00     0.315 HD
HETATM   31  H13 UNL     1      33.038   3.045  48.858  1.00  0.00     0.315 HD
ENDBRANCH  26  29
ENDBRANCH  25  26
ENDBRANCH   4  24
TORSDOF 7
ENDMDL
MODEL 4
REMARK VINA RESULT:      -8.3      6.244     11.716
REMARK  7 active torsions:
REMARK  status: ('A' for Active; 'I' for Inactive)
REMARK    1  A    between atoms: O1_2  and  C2_3 
REMARK    2  A    between atoms: C5_6  and  C6_7 
REMARK    3  A    between atoms: C7_8  and  C8_9 
REMARK    4  A    between atoms: C8_9  and  N1_12 
REMARK    5  A    between atoms: C12_14  and  C13_15 
REMARK    6  A    between atoms: C13_15  and  C14_17 
REMARK    7  A    between atoms: C17_20  and  N2_21 
ROOT
HETATM    1  C2  UNL     1      25.654   5.987  48.897  1.00  0.00     0.082 A 
HETATM    2  C3  UNL     1      26.343   6.988  48.259  1.00  0.00     0.039 A 
HETATM    3  C4  UNL     1      27.671   6.801  47.959  1.00  0.00     0.023 A 
HETATM    4  C5  UNL     1      28.329   5.638  48.281  1.00  0.00     0.018 A 
HETATM    5  C11 UNL     1      27.555   4.692  48.919  1.00  0.00     0.039 A 
HETATM    6  C12 UNL     1      26.195   4.777  49.271  1.00  0.00     0.050 A 
ENDROOT
BRANCH   6   7
HETATM    7  C13 UNL     1      25.602   3.620  49.886  1.00  0.00     0.195 C 
HETATM    8  O2  UNL     1      26.534   2.999  50.511  1.00  0.00    -0.287 OA
BRANCH   7   9
HETATM    9  C14 UNL     1      24.284   3.025  49.959  1.00  0.00     0.015 A 
HETATM   10  C15 UNL     1      23.922   2.629  51.251  1.00  0.00     0.018 A 
HETATM   11  C16 UNL     1      22.683   2.020  51.467  1.00  0.00     0.030 A 
HETATM   12  C17 UNL     1      21.809   1.801  50.427  1.00  0.00     0.034 A 
HETATM   13  C23 UNL     1      22.138   2.178  49.156  1.00  0.00     0.030 A 
HETATM   14  C24 UNL     1      23.360   2.773  48.980  1.00  0.00     0.018 A 
BRANCH  12  15
HETATM   15  N2  UNL     1      20.562   1.177  50.696  1.00  0.00    -0.350 N 
HETATM   16  C18 UNL     1      20.333   0.373  51.843  1.00  0.00     0.133 A 
HETATM   17  C19 UNL     1      19.200  -0.239  52.149  1.00  0.00     0.131 A 
HETATM   18  F1  UNL     1      19.005  -1.001  53.249  1.00  0.00    -0.205 F 
HETATM   19  C20 UNL     1      18.067  -0.090  51.245  1.00  0.00     0.041 A 
HETATM   20  C21 UNL     1      18.239   0.652  50.166  1.00  0.00    -0.004 A 
HETATM   21  C22 UNL     1      19.461   1.360  49.760  1.00  0.00     0.156 A 
ENDBRANCH  12  15
ENDBRANCH   7   9
ENDBRANCH   6   7
BRANCH   1  22
HETATM   22  O1  UNL     1      24.318   6.149  49.215  1.00  0.00    -0.355 OA
HETATM   23  C1  UNL     1      23.397   6.357  48.170  1.00  0.00     0.210 C 
ENDBRANCH   1  22
BRANCH   4  24
HETATM   24  C6  UNL     1      29.713   5.399  47.989  1.00  0.00    -0.064 C 
HETATM   25  C7  UNL     1      30.875   5.181  47.734  1.00  0.00    -0.060 C 
BRANCH  25  26
HETATM   26  C8  UNL     1      32.280   4.898  47.430  1.00  0.00     0.210 C 
HETATM   27  C9  UNL     1      32.335   3.765  46.427  1.00  0.00     0.063 C 
HETATM   28  C10 UNL     1      32.902   6.160  46.887  1.00  0.00     0.063 C 
BRANCH  26  29
HETATM   29  N1  UNL     1      33.021   4.515  48.609  1.00  0.00     0.099 N 
HETATM   30  H12 UNL     1      32.498   3.896  49.259  1.00  0.00     0.315 HD
HETATM   31  H13 UNL     1      33.992   4.184  48.420  1.00  0.00     0.315 HD
ENDBRANCH  26  29
ENDBRANCH  25  26
ENDBRANCH   4  24
TORSDOF 7
ENDMDL
MODEL 5
REMARK VINA RESULT:      -8.2      2.955      5.224
REMARK  7 active torsions:
REMARK  status: ('A' for Active; 'I' for Inactive)
REMARK    1  A    between atoms: O1_2  and  C2_3 
REMARK    2  A    between atoms: C5_6  and  C6_7 
REMARK    3  A    between atoms: C7_8  and  C8_9 
REMARK    4  A    between atoms: C8_9  and  N1_12 
REMARK    5  A    between atoms: C12_14  and  C13_15 
REMARK    6  A    between atoms: C13_15  and  C14_17 
REMARK    7  A    between atoms: C17_20  and  N2_21 
ROOT
HETATM    1  C2  UNL     1      18.960  -0.255  52.317  1.00  0.00     0.082 A 
HETATM    2  C3  UNL     1      18.044  -0.217  51.295  1.00  0.00     0.039 A 
HETATM    3  C4  UNL     1      18.293   0.578  50.202  1.00  0.00     0.023 A 
HETATM    4  C5  UNL     1      19.435   1.337  50.104  1.00  0.00     0.018 A 
HETATM    5  C11 UNL     1      20.294   1.234  51.178  1.00  0.00     0.039 A 
HETATM    6  C12 UNL     1      20.140   0.455  52.340  1.00  0.00     0.050 A 
ENDROOT
BRANCH   6   7
HETATM    7  C13 UNL     1      21.215   0.481  53.295  1.00  0.00     0.195 C 
HETATM    8  O2  UNL     1      20.689   0.546  54.462  1.00  0.00    -0.287 OA
BRANCH   7   9
HETATM    9  C14 UNL     1      22.663   0.455  53.252  1.00  0.00     0.015 A 
HETATM   10  C15 UNL     1      23.227  -0.541  54.057  1.00  0.00     0.018 A 
HETATM   11  C16 UNL     1      24.616  -0.668  54.129  1.00  0.00     0.030 A 
HETATM   12  C17 UNL     1      25.444   0.172  53.420  1.00  0.00     0.034 A 
HETATM   13  C23 UNL     1      24.918   1.153  52.626  1.00  0.00     0.030 A 
HETATM   14  C24 UNL     1      23.553   1.249  52.579  1.00  0.00     0.018 A 
BRANCH  12  15
HETATM   15  N2  UNL     1      26.849   0.004  53.527  1.00  0.00    -0.350 N 
HETATM   16  C18 UNL     1      27.702   0.984  54.099  1.00  0.00     0.133 A 
HETATM   17  C19 UNL     1      29.017   0.891  54.224  1.00  0.00     0.131 A 
HETATM   18  F1  UNL     1      29.810   1.838  54.774  1.00  0.00    -0.205 F 
HETATM   19  C20 UNL     1      29.676  -0.315  53.739  1.00  0.00     0.041 A 
HETATM   20  C21 UNL     1      28.916  -1.251  53.200  1.00  0.00    -0.004 A 
HETATM   21  C22 UNL     1      27.457  -1.222  53.027  1.00  0.00     0.156 A 
ENDBRANCH  12  15
ENDBRANCH   7   9
ENDBRANCH   6   7
BRANCH   1  22
HETATM   22  O1  UNL     1      18.734  -1.042  53.431  1.00  0.00    -0.355 OA
HETATM   23  C1  UNL     1      17.704  -2.002  53.380  1.00  0.00     0.210 C 
ENDBRANCH   1  22
BRANCH   4  24
HETATM   24  C6  UNL     1      19.736   2.181  48.984  1.00  0.00    -0.064 C 
HETATM   25  C7  UNL     1      20.003   2.903  48.050  1.00  0.00    -0.060 C 
BRANCH  25  26
HETATM   26  C8  UNL     1      20.325   3.792  46.932  1.00  0.00     0.210 C 
HETATM   27  C9  UNL     1      21.742   3.506  46.485  1.00  0.00     0.063 C 
HETATM   28  C10 UNL     1      19.326   3.536  45.831  1.00  0.00     0.063 C 
BRANCH  26  29
HETATM   29  N1  UNL     1      20.223   5.185  47.302  1.00  0.00     0.099 N 
HETATM   30  H12 UNL     1      21.066   5.561  47.780  1.00  0.00     0.315 HD
HETATM   31  H13 UNL     1      19.868   5.807  46.545  1.00  0.00     0.315 HD
ENDBRANCH  26  29
ENDBRANCH  25  26
ENDBRANCH   4  24
TORSDOF 7
ENDMDL
MODEL 6
REMARK VINA RESULT:      -8.2      8.026     11.033
REMARK  7 active torsions:
REMARK  status: ('A' for Active; 'I' for Inactive)
REMARK    1  A    between atoms: O1_2  and  C2_3 
REMARK    2  A    between atoms: C5_6  and  C6_7 
REMARK    3  A    between atoms: C7_8  and  C8_9 
REMARK    4  A    between atoms: C8_9  and  N1_12 
REMARK    5  A    between atoms: C12_14  and  C13_15 
REMARK    6  A    between atoms: C13_15  and  C14_17 
REMARK    7  A    between atoms: C17_20  and  N2_21 
ROOT
HETATM    1  C2  UNL     1      24.582   4.367  49.341  1.00  0.00     0.082 A 
HETATM    2  C3  UNL     1      23.766   3.460  49.969  1.00  0.00     0.039 A 
HETATM    3  C4  UNL     1      24.329   2.490  50.763  1.00  0.00     0.023 A 
HETATM    4  C5  UNL     1      25.689   2.404  50.946  1.00  0.00     0.018 A 
HETATM    5  C11 UNL     1      26.426   3.357  50.276  1.00  0.00     0.039 A 
HETATM    6  C12 UNL     1      25.955   4.390  49.443  1.00  0.00     0.050 A 
ENDROOT
BRANCH   6   7
HETATM    7  C13 UNL     1      26.934   5.294  48.902  1.00  0.00     0.195 C 
HETATM    8  O2  UNL     1      27.959   4.597  48.573  1.00  0.00    -0.287 OA
BRANCH   7   9
HETATM    9  C14 UNL     1      27.032   6.718  48.659  1.00  0.00     0.015 A 
HETATM   10  C15 UNL     1      26.533   7.499  49.708  1.00  0.00     0.018 A 
HETATM   11  C16 UNL     1      26.545   8.891  49.601  1.00  0.00     0.030 A 
HETATM   12  C17 UNL     1      27.039   9.513  48.477  1.00  0.00     0.034 A 
HETATM   13  C23 UNL     1      27.533   8.774  47.439  1.00  0.00     0.030 A 
HETATM   14  C24 UNL     1      27.506   7.412  47.578  1.00  0.00     0.018 A 
BRANCH  12  15
HETATM   15  N2  UNL     1      27.029  10.931  48.414  1.00  0.00    -0.350 N 
HETATM   16  C18 UNL     1      25.879  11.679  48.050  1.00  0.00     0.133 A 
HETATM   17  C19 UNL     1      25.803  12.998  47.968  1.00  0.00     0.131 A 
HETATM   18  F1  UNL     1      24.695  13.689  47.619  1.00  0.00    -0.205 F 
HETATM   19  C20 UNL     1      26.994  13.780  48.274  1.00  0.00     0.041 A 
HETATM   20  C21 UNL     1      28.086  13.121  48.619  1.00  0.00    -0.004 A 
HETATM   21  C22 UNL     1      28.247  11.665  48.732  1.00  0.00     0.156 A 
ENDBRANCH  12  15
ENDBRANCH   7   9
ENDBRANCH   6   7
BRANCH   1  22
HETATM   22  O1  UNL     1      24.044   5.351  48.532  1.00  0.00    -0.355 OA
HETATM   23  C1  UNL     1      23.138   6.268  49.098  1.00  0.00     0.210 C 
ENDBRANCH   1  22
BRANCH   4  24
HETATM   24  C6  UNL     1      26.320   1.409  51.764  1.00  0.00    -0.064 C 
HETATM   25  C7  UNL     1      26.837   0.570  52.466  1.00  0.00    -0.060 C 
BRANCH  25  26
HETATM   26  C8  UNL     1      27.457  -0.435  53.332  1.00  0.00     0.210 C 
HETATM   27  C9  UNL     1      27.222  -1.802  52.724  1.00  0.00     0.063 C 
HETATM   28  C10 UNL     1      28.928  -0.114  53.440  1.00  0.00     0.063 C 
BRANCH  26  29
HETATM   29  N1  UNL     1      26.905  -0.415  54.666  1.00  0.00     0.099 N 
HETATM   30  H12 UNL     1      26.414   0.467  54.911  1.00  0.00     0.315 HD
HETATM   31  H13 UNL     1      26.364  -1.269  54.922  1.00  0.00     0.315 HD
ENDBRANCH  26  29
ENDBRANCH  25  26
ENDBRANCH   4  24
TORSDOF 7
ENDMDL
MODEL 7
REMARK VINA RESULT:      -8.1      3.686      9.662
REMARK  7 active torsions:
REMARK  status: ('A' for Active; 'I' for Inactive)
REMARK    1  A    between atoms: O1_2  and  C2_3 
REMARK    2  A    between atoms: C5_6  and  C6_7 
REMARK    3  A    between atoms: C7_8  and  C8_9 
REMARK    4  A    between atoms: C8_9  and  N1_12 
REMARK    5  A    between atoms: C12_14  and  C13_15 
REMARK    6  A    between atoms: C13_15  and  C14_17 
REMARK    7  A    between atoms: C17_20  and  N2_21 
ROOT
HETATM    1  C2  UNL     1      24.347   3.936  49.736  1.00  0.00     0.082 A 
HETATM    2  C3  UNL     1      25.642   3.789  49.305  1.00  0.00     0.039 A 
HETATM    3  C4  UNL     1      26.564   3.208  50.143  1.00  0.00     0.023 A 
HETATM    4  C5  UNL     1      26.225   2.770  51.401  1.00  0.00     0.018 A 
HETATM    5  C11 UNL     1      24.903   2.961  51.744  1.00  0.00     0.039 A 
HETATM    6  C12 UNL     1      23.880   3.540  50.969  1.00  0.00     0.050 A 
ENDROOT
BRANCH   6   7
HETATM    7  C13 UNL     1      22.561   3.571  51.542  1.00  0.00     0.195 C 
HETATM    8  O2  UNL     1      22.428   4.701  52.134  1.00  0.00    -0.287 OA
BRANCH   7   9
HETATM    9  C14 UNL     1      21.419   2.683  51.606  1.00  0.00     0.015 A 
HETATM   10  C15 UNL     1      21.477   1.776  52.670  1.00  0.00     0.018 A 
HETATM   11  C16 UNL     1      20.451   0.844  52.842  1.00  0.00     0.030 A 
HETATM   12  C17 UNL     1      19.379   0.801  51.980  1.00  0.00     0.034 A 
HETATM   13  C23 UNL     1      19.299   1.676  50.933  1.00  0.00     0.030 A 
HETATM   14  C24 UNL     1      20.321   2.576  50.795  1.00  0.00     0.018 A 
BRANCH  12  15
HETATM   15  N2  UNL     1      18.362  -0.165  52.195  1.00  0.00    -0.350 N 
HETATM   16  C18 UNL     1      18.483  -1.217  53.140  1.00  0.00     0.133 A 
HETATM   17  C19 UNL     1      17.577  -2.149  53.386  1.00  0.00     0.131 A 
HETATM   18  F1  UNL     1      17.715  -3.143  54.292  1.00  0.00    -0.205 F 
HETATM   19  C20 UNL     1      16.329  -2.118  52.632  1.00  0.00     0.041 A 
HETATM   20  C21 UNL     1      16.177  -1.154  51.743  1.00  0.00    -0.004 A 
HETATM   21  C22 UNL     1      17.133  -0.087  51.416  1.00  0.00     0.156 A 
ENDBRANCH  12  15
ENDBRANCH   7   9
ENDBRANCH   6   7
BRANCH   1  22
HETATM   22  O1  UNL     1      23.399   4.521  48.917  1.00  0.00    -0.355 OA
HETATM   23  C1  UNL     1      23.626   5.832  48.453  1.00  0.00     0.210 C 
ENDBRANCH   1  22
BRANCH   4  24
HETATM   24  C6  UNL     1      27.153   2.160  52.308  1.00  0.00    -0.064 C 
HETATM   25  C7  UNL     1      27.924   1.629  53.075  1.00  0.00    -0.060 C 
BRANCH  25  26
HETATM   26  C8  UNL     1      28.842   0.982  54.015  1.00  0.00     0.210 C 
HETATM   27  C9  UNL     1      28.025   0.192  55.015  1.00  0.00     0.063 C 
HETATM   28  C10 UNL     1      29.771   0.095  53.223  1.00  0.00     0.063 C 
BRANCH  26  29
HETATM   29  N1  UNL     1      29.652   1.942  54.727  1.00  0.00     0.099 N 
HETATM   30  H12 UNL     1      30.071   1.578  55.606  1.00  0.00     0.315 HD
HETATM   31  H13 UNL     1      30.335   2.457  54.131  1.00  0.00     0.315 HD
ENDBRANCH  26  29
ENDBRANCH  25  26
ENDBRANCH   4  24
TORSDOF 7
ENDMDL
MODEL 8
REMARK VINA RESULT:      -8.0      4.176      5.322
REMARK  7 active torsions:
REMARK  status: ('A' for Active; 'I' for Inactive)
REMARK    1  A    between atoms: O1_2  and  C2_3 
REMARK    2  A    between atoms: C5_6  and  C6_7 
REMARK    3  A    between atoms: C7_8  and  C8_9 
REMARK    4  A    between atoms: C8_9  and  N1_12 
REMARK    5  A    between atoms: C12_14  and  C13_15 
REMARK    6  A    between atoms: C13_15  and  C14_17 
REMARK    7  A    between atoms: C17_20  and  N2_21 
ROOT
HETATM    1  C2  UNL     1      22.257   0.105  53.106  1.00  0.00     0.082 A 
HETATM    2  C3  UNL     1      21.586  -0.551  54.108  1.00  0.00     0.039 A 
HETATM    3  C4  UNL     1      20.247  -0.820  53.953  1.00  0.00     0.023 A 
HETATM    4  C5  UNL     1      19.560  -0.449  52.822  1.00  0.00     0.018 A 
HETATM    5  C11 UNL     1      20.317   0.204  51.872  1.00  0.00     0.039 A 
HETATM    6  C12 UNL     1      21.686   0.528  51.926  1.00  0.00     0.050 A 
ENDROOT
BRANCH   6   7
HETATM    7  C13 UNL     1      22.256   1.167  50.771  1.00  0.00     0.195 C 
HETATM    8  O2  UNL     1      21.608   0.751  49.745  1.00  0.00    -0.287 OA
BRANCH   7   9
HETATM    9  C14 UNL     1      23.323   2.110  50.507  1.00  0.00     0.015 A 
HETATM   10  C15 UNL     1      23.116   2.880  49.357  1.00  0.00     0.018 A 
HETATM   11  C16 UNL     1      24.077   3.816  48.969  1.00  0.00     0.030 A 
HETATM   12  C17 UNL     1      25.229   3.997  49.700  1.00  0.00     0.034 A 
HETATM   13  C23 UNL     1      25.455   3.258  50.827  1.00  0.00     0.030 A 
HETATM   14  C24 UNL     1      24.492   2.349  51.179  1.00  0.00     0.018 A 
BRANCH  12  15
HETATM   15  N2  UNL     1      26.176   4.961  49.265  1.00  0.00    -0.350 N 
HETATM   16  C18 UNL     1      27.455   4.612  48.760  1.00  0.00     0.133 A 
HETATM   17  C19 UNL     1      28.383   5.459  48.343  1.00  0.00     0.131 A 
HETATM   18  F1  UNL     1      29.597   5.102  47.865  1.00  0.00    -0.205 F 
HETATM   19  C20 UNL     1      28.093   6.886  48.396  1.00  0.00     0.041 A 
HETATM   20  C21 UNL     1      26.911   7.252  48.860  1.00  0.00    -0.004 A 
HETATM   21  C22 UNL     1      25.833   6.375  49.338  1.00  0.00     0.156 A 
ENDBRANCH  12  15
ENDBRANCH   7   9
ENDBRANCH   6   7
BRANCH   1  22
HETATM   22  O1  UNL     1      23.603   0.392  53.236  1.00  0.00    -0.355 OA
HETATM   23  C1  UNL     1      24.438  -0.558  53.856  1.00  0.00     0.210 C 
ENDBRANCH   1  22
BRANCH   4  24
HETATM   24  C6  UNL     1      18.164  -0.706  52.617  1.00  0.00    -0.064 C 
HETATM   25  C7  UNL     1      16.989  -0.942  52.450  1.00  0.00    -0.060 C 
BRANCH  25  26
HETATM   26  C8  UNL     1      15.572  -1.245  52.237  1.00  0.00     0.210 C 
HETATM   27  C9  UNL     1      15.173  -0.732  50.870  1.00  0.00     0.063 C 
HETATM   28  C10 UNL     1      15.392  -2.738  52.352  1.00  0.00     0.063 C 
BRANCH  26  29
HETATM   29  N1  UNL     1      14.731  -0.623  53.234  1.00  0.00     0.099 N 
HETATM   30  H12 UNL     1      14.960  -0.890  54.212  1.00  0.00     0.315 HD
HETATM   31  H13 UNL     1      14.601   0.403  53.109  1.00  0.00     0.315 HD
ENDBRANCH  26  29
ENDBRANCH  25  26
ENDBRANCH   4  24
TORSDOF 7
ENDMDL
MODEL 9
REMARK VINA RESULT:      -8.0      6.539     11.484
REMARK  7 active torsions:
REMARK  status: ('A' for Active; 'I' for Inactive)
REMARK    1  A    between atoms: O1_2  and  C2_3 
REMARK    2  A    between atoms: C5_6  and  C6_7 
REMARK    3  A    between atoms: C7_8  and  C8_9 
REMARK    4  A    between atoms: C8_9  and  N1_12 
REMARK    5  A    between atoms: C12_14  and  C13_15 
REMARK    6  A    between atoms: C13_15  and  C14_17 
REMARK    7  A    between atoms: C17_20  and  N2_21 
ROOT
HETATM    1  C2  UNL     1      25.291   5.968  49.163  1.00  0.00     0.082 A 
HETATM    2  C3  UNL     1      25.563   7.214  48.654  1.00  0.00     0.039 A 
HETATM    3  C4  UNL     1      26.817   7.475  48.155  1.00  0.00     0.023 A 
HETATM    4  C5  UNL     1      27.807   6.522  48.153  1.00  0.00     0.018 A 
HETATM    5  C11 UNL     1      27.441   5.303  48.684  1.00  0.00     0.039 A 
HETATM    6  C12 UNL     1      26.193   4.929  49.218  1.00  0.00     0.050 A 
ENDROOT
BRANCH   6   7
HETATM    7  C13 UNL     1      26.050   3.569  49.662  1.00  0.00     0.195 C 
HETATM    8  O2  UNL     1      27.099   2.932  49.287  1.00  0.00    -0.287 OA
BRANCH   7   9
HETATM    9  C14 UNL     1      25.063   2.794  50.385  1.00  0.00     0.015 A 
HETATM   10  C15 UNL     1      25.579   2.144  51.511  1.00  0.00     0.018 A 
HETATM   11  C16 UNL     1      24.742   1.344  52.292  1.00  0.00     0.030 A 
HETATM   12  C17 UNL     1      23.414   1.181  51.972  1.00  0.00     0.034 A 
HETATM   13  C23 UNL     1      22.885   1.805  50.878  1.00  0.00     0.030 A 
HETATM   14  C24 UNL     1      23.733   2.582  50.135  1.00  0.00     0.018 A 
BRANCH  12  15
HETATM   15  N2  UNL     1      22.604   0.356  52.796  1.00  0.00    -0.350 N 
HETATM   16  C18 UNL     1      21.192   0.290  52.672  1.00  0.00     0.133 A 
HETATM   17  C19 UNL     1      20.381  -0.452  53.408  1.00  0.00     0.131 A 
HETATM   18  F1  UNL     1      19.036  -0.499  53.271  1.00  0.00    -0.205 F 
HETATM   19  C20 UNL     1      20.962  -1.289  54.450  1.00  0.00     0.041 A 
HETATM   20  C21 UNL     1      22.275  -1.257  54.597  1.00  0.00    -0.004 A 
HETATM   21  C22 UNL     1      23.237  -0.463  53.822  1.00  0.00     0.156 A 
ENDBRANCH  12  15
ENDBRANCH   7   9
ENDBRANCH   6   7
BRANCH   1  22
HETATM   22  O1  UNL     1      24.040   5.679  49.676  1.00  0.00    -0.355 OA
HETATM   23  C1  UNL     1      23.588   6.402  50.797  1.00  0.00     0.210 C 
ENDBRANCH   1  22
BRANCH   4  24
HETATM   24  C6  UNL     1      29.129   6.749  47.645  1.00  0.00    -0.064 C 
HETATM   25  C7  UNL     1      30.240   6.960  47.215  1.00  0.00    -0.060 C 
BRANCH  25  26
HETATM   26  C8  UNL     1      31.577   7.227  46.680  1.00  0.00     0.210 C 
HETATM   27  C9  UNL     1      32.358   8.012  47.712  1.00  0.00     0.063 C 
HETATM   28  C10 UNL     1      32.229   5.901  46.372  1.00  0.00     0.063 C 
BRANCH  26  29
HETATM   29  N1  UNL     1      31.527   7.987  45.453  1.00  0.00     0.099 N 
HETATM   30  H12 UNL     1      31.982   8.919  45.510  1.00  0.00     0.315 HD
HETATM   31  H13 UNL     1      31.799   7.450  44.602  1.00  0.00     0.315 HD
ENDBRANCH  26  29
ENDBRANCH  25  26
ENDBRANCH   4  24
TORSDOF 7
ENDMDL
