MODEL 1
REMARK VINA RESULT:      -9.0      0.000      0.000
REMARK  0 active torsions:
REMARK  status: ('A' for Active; 'I' for Inactive)
ROOT
HETATM    1  O1  UNL     1      22.553  -1.642  55.450  1.00  0.00    -0.292 OA
HETATM    2  C1  UNL     1      22.866  -0.751  54.570  1.00  0.00     0.163 C 
HETATM    3  C2  UNL     1      24.291  -0.965  54.421  1.00  0.00     0.034 C 
HETATM    4  C3  UNL     1      25.482  -0.723  53.930  1.00  0.00     0.045 C 
HETATM    5  C4  UNL     1      26.562  -0.124  53.155  1.00  0.00    -0.019 C 
HETATM    6  C5  UNL     1      27.040   0.752  52.291  1.00  0.00    -0.004 C 
HETATM    7  C6  UNL     1      26.143   1.757  51.653  1.00  0.00     0.197 C 
HETATM    8  O2  UNL     1      24.857   1.643  52.069  1.00  0.00    -0.363 OA
HETATM    9  C7  UNL     1      24.036   2.579  51.486  1.00  0.00     0.127 C 
HETATM   10  C8  UNL     1      23.695   3.612  52.510  1.00  0.00     0.032 C 
HETATM   11  C9  UNL     1      23.430   4.895  52.338  1.00  0.00    -0.026 C 
HETATM   12  C10 UNL     1      23.957   5.449  51.289  1.00  0.00     0.012 C 
HETATM   13  C11 UNL     1      24.624   4.640  50.257  1.00  0.00     0.000 C 
HETATM   14  C12 UNL     1      24.648   3.301  50.370  1.00  0.00     0.020 C 
HETATM   15  C13 UNL     1      22.785   1.861  51.050  1.00  0.00     0.010 A 
HETATM   16  C14 UNL     1      22.545   1.872  49.693  1.00  0.00     0.013 A 
HETATM   17  C15 UNL     1      21.476   1.313  49.036  1.00  0.00     0.001 A 
HETATM   18  C16 UNL     1      20.527   0.668  49.798  1.00  0.00     0.002 A 
HETATM   19  C17 UNL     1      20.780   0.664  51.172  1.00  0.00     0.030 A 
HETATM   20  C18 UNL     1      21.884   1.242  51.827  1.00  0.00     0.038 A 
HETATM   21  N1  UNL     1      21.674   0.947  53.191  1.00  0.00    -0.382 N 
HETATM   22  C19 UNL     1      21.658  -0.048  54.226  1.00  0.00     0.202 C 
HETATM   23  H15 UNL     1      21.421   1.943  53.315  1.00  0.00     0.160 HD
ENDROOT
TORSDOF 0
ENDMDL
MODEL 2
REMARK VINA RESULT:      -8.5      1.781      4.520
REMARK  0 active torsions:
REMARK  status: ('A' for Active; 'I' for Inactive)
ROOT
HETATM    1  O1  UNL     1      25.599  -0.936  54.528  1.00  0.00    -0.292 OA
HETATM    2  C1  UNL     1      24.638  -0.388  53.866  1.00  0.00     0.163 C 
HETATM    3  C2  UNL     1      23.480  -1.088  54.384  1.00  0.00     0.034 C 
HETATM    4  C3  UNL     1      22.203  -1.369  54.467  1.00  0.00     0.045 C 
HETATM    5  C4  UNL     1      20.765  -1.352  54.225  1.00  0.00    -0.019 C 
HETATM    6  C5  UNL     1      19.684  -0.912  53.607  1.00  0.00    -0.004 C 
HETATM    7  C6  UNL     1      19.786   0.135  52.552  1.00  0.00     0.197 C 
HETATM    8  O2  UNL     1      21.065   0.534  52.338  1.00  0.00    -0.363 OA
HETATM    9  C7  UNL     1      21.153   1.492  51.355  1.00  0.00     0.127 C 
HETATM   10  C8  UNL     1      21.729   0.861  50.130  1.00  0.00     0.032 C 
HETATM   11  C9  UNL     1      21.518   1.165  48.862  1.00  0.00    -0.026 C 
HETATM   12  C10 UNL     1      20.377   1.725  48.594  1.00  0.00     0.012 C 
HETATM   13  C11 UNL     1      19.482   2.178  49.670  1.00  0.00     0.000 C 
HETATM   14  C12 UNL     1      19.866   2.059  50.952  1.00  0.00     0.020 C 
HETATM   15  C13 UNL     1      22.086   2.562  51.863  1.00  0.00     0.010 A 
HETATM   16  C14 UNL     1      21.520   3.809  52.013  1.00  0.00     0.013 A 
HETATM   17  C15 UNL     1      22.145   4.957  52.437  1.00  0.00     0.001 A 
HETATM   18  C16 UNL     1      23.483   4.873  52.753  1.00  0.00     0.002 A 
HETATM   19  C17 UNL     1      24.046   3.604  52.597  1.00  0.00     0.030 A 
HETATM   20  C18 UNL     1      23.388   2.439  52.160  1.00  0.00     0.038 A 
HETATM   21  N1  UNL     1      24.385   1.441  52.194  1.00  0.00    -0.382 N 
HETATM   22  C19 UNL     1      25.225   0.595  52.993  1.00  0.00     0.202 C 
HETATM   23  H15 UNL     1      24.402   1.495  51.160  1.00  0.00     0.160 HD
ENDROOT
TORSDOF 0
ENDMDL
MODEL 3
REMARK VINA RESULT:      -8.3      1.543      4.520
REMARK  0 active torsions:
REMARK  status: ('A' for Active; 'I' for Inactive)
ROOT
HETATM    1  O1  UNL     1      27.387   0.049  52.853  1.00  0.00    -0.292 OA
HETATM    2  C1  UNL     1      26.145   0.362  52.697  1.00  0.00     0.163 C 
HETATM    3  C2  UNL     1      25.509  -0.404  53.751  1.00  0.00     0.034 C 
HETATM    4  C3  UNL     1      24.491  -0.837  54.452  1.00  0.00     0.045 C 
HETATM    5  C4  UNL     1      23.128  -1.047  54.927  1.00  0.00    -0.019 C 
HETATM    6  C5  UNL     1      21.824  -0.849  54.875  1.00  0.00    -0.004 C 
HETATM    7  C6  UNL     1      21.232   0.037  53.835  1.00  0.00     0.197 C 
HETATM    8  O2  UNL     1      22.168   0.567  53.009  1.00  0.00    -0.363 OA
HETATM    9  C7  UNL     1      21.615   1.376  52.045  1.00  0.00     0.127 C 
HETATM   10  C8  UNL     1      21.668   0.656  50.737  1.00  0.00     0.032 C 
HETATM   11  C9  UNL     1      20.843   0.742  49.708  1.00  0.00    -0.026 C 
HETATM   12  C10 UNL     1      19.626   1.100  49.983  1.00  0.00     0.012 C 
HETATM   13  C11 UNL     1      19.260   1.581  51.324  1.00  0.00     0.000 C 
HETATM   14  C12 UNL     1      20.207   1.702  52.271  1.00  0.00     0.020 C 
HETATM   15  C13 UNL     1      22.459   2.622  51.973  1.00  0.00     0.010 A 
HETATM   16  C14 UNL     1      21.805   3.792  52.294  1.00  0.00     0.013 A 
HETATM   17  C15 UNL     1      22.328   5.062  52.293  1.00  0.00     0.001 A 
HETATM   18  C16 UNL     1      23.651   5.204  51.933  1.00  0.00     0.002 A 
HETATM   19  C17 UNL     1      24.304   4.012  51.610  1.00  0.00     0.030 A 
HETATM   20  C18 UNL     1      23.748   2.719  51.619  1.00  0.00     0.038 A 
HETATM   21  N1  UNL     1      24.815   1.878  51.235  1.00  0.00    -0.382 N 
HETATM   22  C19 UNL     1      26.070   1.277  51.588  1.00  0.00     0.202 C 
HETATM   23  H15 UNL     1      24.343   1.783  50.319  1.00  0.00     0.160 HD
ENDROOT
TORSDOF 0
ENDMDL
MODEL 4
REMARK VINA RESULT:      -8.0      1.961      5.849
REMARK  0 active torsions:
REMARK  status: ('A' for Active; 'I' for Inactive)
ROOT
HETATM    1  O1  UNL     1      23.320   6.250  50.695  1.00  0.00    -0.292 OA
HETATM    2  C1  UNL     1      23.161   5.029  51.080  1.00  0.00     0.163 C 
HETATM    3  C2  UNL     1      22.563   4.421  49.908  1.00  0.00     0.034 C 
HETATM    4  C3  UNL     1      22.043   3.436  49.218  1.00  0.00     0.045 C 
HETATM    5  C4  UNL     1      21.551   2.113  48.853  1.00  0.00    -0.019 C 
HETATM    6  C5  UNL     1      21.297   0.844  49.110  1.00  0.00    -0.004 C 
HETATM    7  C6  UNL     1      21.613   0.261  50.444  1.00  0.00     0.197 C 
HETATM    8  O2  UNL     1      22.160   1.169  51.291  1.00  0.00    -0.363 OA
HETATM    9  C7  UNL     1      22.440   0.628  52.524  1.00  0.00     0.127 C 
HETATM   10  C8  UNL     1      21.436   1.141  53.504  1.00  0.00     0.032 C 
HETATM   11  C9  UNL     1      20.958   0.553  54.587  1.00  0.00    -0.026 C 
HETATM   12  C10 UNL     1      20.969  -0.745  54.581  1.00  0.00     0.012 C 
HETATM   13  C11 UNL     1      21.666  -1.495  53.524  1.00  0.00     0.000 C 
HETATM   14  C12 UNL     1      22.347  -0.831  52.574  1.00  0.00     0.020 C 
HETATM   15  C13 UNL     1      23.817   1.101  52.912  1.00  0.00     0.010 A 
HETATM   16  C14 UNL     1      24.755   0.104  53.071  1.00  0.00     0.013 A 
HETATM   17  C15 UNL     1      26.071   0.255  53.437  1.00  0.00     0.001 A 
HETATM   18  C16 UNL     1      26.522   1.535  53.676  1.00  0.00     0.002 A 
HETATM   19  C17 UNL     1      25.562   2.536  53.512  1.00  0.00     0.030 A 
HETATM   20  C18 UNL     1      24.218   2.361  53.135  1.00  0.00     0.038 A 
HETATM   21  N1  UNL     1      23.691   3.670  53.099  1.00  0.00    -0.382 N 
HETATM   22  C19 UNL     1      23.650   4.940  52.431  1.00  0.00     0.202 C 
HETATM   23  H15 UNL     1      23.195   3.440  53.977  1.00  0.00     0.160 HD
ENDROOT
TORSDOF 0
ENDMDL
MODEL 5
REMARK VINA RESULT:      -7.7      2.733      5.983
REMARK  0 active torsions:
REMARK  status: ('A' for Active; 'I' for Inactive)
ROOT
HETATM    1  O1  UNL     1      20.671   7.350  50.206  1.00  0.00    -0.292 OA
HETATM    2  C1  UNL     1      21.480   6.366  50.412  1.00  0.00     0.163 C 
HETATM    3  C2  UNL     1      20.662   5.226  50.050  1.00  0.00     0.034 C 
HETATM    4  C3  UNL     1      20.412   3.950  49.884  1.00  0.00     0.045 C 
HETATM    5  C4  UNL     1      20.576   2.502  49.857  1.00  0.00    -0.019 C 
HETATM    6  C5  UNL     1      21.272   1.396  50.048  1.00  0.00    -0.004 C 
HETATM    7  C6  UNL     1      22.666   1.456  50.570  1.00  0.00     0.197 C 
HETATM    8  O2  UNL     1      23.078   2.727  50.805  1.00  0.00    -0.363 OA
HETATM    9  C7  UNL     1      24.361   2.776  51.297  1.00  0.00     0.127 C 
HETATM   10  C8  UNL     1      24.297   3.116  52.751  1.00  0.00     0.032 C 
HETATM   11  C9  UNL     1      25.122   2.766  53.722  1.00  0.00    -0.026 C 
HETATM   12  C10 UNL     1      25.777   1.660  53.540  1.00  0.00     0.012 C 
HETATM   13  C11 UNL     1      25.754   0.968  52.243  1.00  0.00     0.000 C 
HETATM   14  C12 UNL     1      25.086   1.509  51.210  1.00  0.00     0.020 C 
HETATM   15  C13 UNL     1      25.081   3.869  50.550  1.00  0.00     0.010 A 
HETATM   16  C14 UNL     1      26.161   3.454  49.803  1.00  0.00     0.013 A 
HETATM   17  C15 UNL     1      26.997   4.240  49.046  1.00  0.00     0.001 A 
HETATM   18  C16 UNL     1      26.744   5.594  49.020  1.00  0.00     0.002 A 
HETATM   19  C17 UNL     1      25.647   6.003  49.781  1.00  0.00     0.030 A 
HETATM   20  C18 UNL     1      24.802   5.181  50.549  1.00  0.00     0.038 A 
HETATM   21  N1  UNL     1      23.855   6.071  51.100  1.00  0.00    -0.382 N 
HETATM   22  C19 UNL     1      22.723   6.924  50.877  1.00  0.00     0.202 C 
HETATM   23  H15 UNL     1      24.345   5.952  52.004  1.00  0.00     0.160 HD
ENDROOT
TORSDOF 0
ENDMDL
MODEL 6
REMARK VINA RESULT:      -7.5      3.151      6.539
REMARK  0 active torsions:
REMARK  status: ('A' for Active; 'I' for Inactive)
ROOT
HETATM    1  O1  UNL     1      20.861   7.119  47.203  1.00  0.00    -0.292 OA
HETATM    2  C1  UNL     1      21.548   6.287  47.910  1.00  0.00     0.163 C 
HETATM    3  C2  UNL     1      20.895   5.028  47.611  1.00  0.00     0.034 C 
HETATM    4  C3  UNL     1      20.711   3.735  47.711  1.00  0.00     0.045 C 
HETATM    5  C4  UNL     1      20.868   2.343  48.117  1.00  0.00    -0.019 C 
HETATM    6  C5  UNL     1      21.453   1.381  48.805  1.00  0.00    -0.004 C 
HETATM    7  C6  UNL     1      22.590   1.685  49.719  1.00  0.00     0.197 C 
HETATM    8  O2  UNL     1      22.904   3.004  49.737  1.00  0.00    -0.363 OA
HETATM    9  C7  UNL     1      23.946   3.280  50.591  1.00  0.00     0.127 C 
HETATM   10  C8  UNL     1      23.397   3.961  51.802  1.00  0.00     0.032 C 
HETATM   11  C9  UNL     1      23.844   3.932  53.045  1.00  0.00    -0.026 C 
HETATM   12  C10 UNL     1      24.518   2.874  53.381  1.00  0.00     0.012 C 
HETATM   13  C11 UNL     1      24.931   1.883  52.375  1.00  0.00     0.000 C 
HETATM   14  C12 UNL     1      24.652   2.095  51.077  1.00  0.00     0.020 C 
HETATM   15  C13 UNL     1      24.880   4.212  49.863  1.00  0.00     0.010 A 
HETATM   16  C14 UNL     1      26.148   3.717  49.645  1.00  0.00     0.013 A 
HETATM   17  C15 UNL     1      27.193   4.360  49.026  1.00  0.00     0.001 A 
HETATM   18  C16 UNL     1      26.970   5.640  48.567  1.00  0.00     0.002 A 
HETATM   19  C17 UNL     1      25.683   6.130  48.794  1.00  0.00     0.030 A 
HETATM   20  C18 UNL     1      24.624   5.455  49.429  1.00  0.00     0.038 A 
HETATM   21  N1  UNL     1      23.551   6.371  49.389  1.00  0.00    -0.382 N 
HETATM   22  C19 UNL     1      22.564   7.044  48.594  1.00  0.00     0.202 C 
HETATM   23  H15 UNL     1      23.707   6.520  50.401  1.00  0.00     0.160 HD
ENDROOT
TORSDOF 0
ENDMDL
MODEL 7
REMARK VINA RESULT:      -7.4      9.884     12.883
REMARK  0 active torsions:
REMARK  status: ('A' for Active; 'I' for Inactive)
ROOT
HETATM    1  O1  UNL     1      31.969  10.909  46.526  1.00  0.00    -0.292 OA
HETATM    2  C1  UNL     1      32.128   9.629  46.541  1.00  0.00     0.163 C 
HETATM    3  C2  UNL     1      30.888   9.180  47.143  1.00  0.00     0.034 C 
HETATM    4  C3  UNL     1      30.049   8.285  47.602  1.00  0.00     0.045 C 
HETATM    5  C4  UNL     1      29.465   7.004  47.981  1.00  0.00    -0.019 C 
HETATM    6  C5  UNL     1      29.492   5.689  48.092  1.00  0.00    -0.004 C 
HETATM    7  C6  UNL     1      30.682   4.913  47.642  1.00  0.00     0.197 C 
HETATM    8  O2  UNL     1      31.660   5.708  47.140  1.00  0.00    -0.363 OA
HETATM    9  C7  UNL     1      32.760   4.988  46.736  1.00  0.00     0.127 C 
HETATM   10  C8  UNL     1      33.857   5.204  47.727  1.00  0.00     0.032 C 
HETATM   11  C9  UNL     1      34.830   4.383  48.080  1.00  0.00    -0.026 C 
HETATM   12  C10 UNL     1      34.584   3.116  47.941  1.00  0.00     0.012 C 
HETATM   13  C11 UNL     1      33.380   2.649  47.236  1.00  0.00     0.000 C 
HETATM   14  C12 UNL     1      32.543   3.542  46.681  1.00  0.00     0.020 C 
HETATM   15  C13 UNL     1      33.174   5.529  45.392  1.00  0.00     0.010 A 
HETATM   16  C14 UNL     1      33.110   4.627  44.353  1.00  0.00     0.013 A 
HETATM   17  C15 UNL     1      33.445   4.851  43.039  1.00  0.00     0.001 A 
HETATM   18  C16 UNL     1      33.899   6.108  42.704  1.00  0.00     0.002 A 
HETATM   19  C17 UNL     1      33.960   7.013  43.766  1.00  0.00     0.030 A 
HETATM   20  C18 UNL     1      33.611   6.764  45.106  1.00  0.00     0.038 A 
HETATM   21  N1  UNL     1      33.838   7.994  45.761  1.00  0.00    -0.382 N 
HETATM   22  C19 UNL     1      33.419   9.351  45.967  1.00  0.00     0.202 C 
HETATM   23  H15 UNL     1      34.678   7.557  46.180  1.00  0.00     0.160 HD
ENDROOT
TORSDOF 0
ENDMDL
MODEL 8
REMARK VINA RESULT:      -7.4      2.588      5.601
REMARK  0 active torsions:
REMARK  status: ('A' for Active; 'I' for Inactive)
ROOT
HETATM    1  O1  UNL     1      21.687   4.228  46.032  1.00  0.00    -0.292 OA
HETATM    2  C1  UNL     1      22.132   3.994  47.220  1.00  0.00     0.163 C 
HETATM    3  C2  UNL     1      22.256   5.332  47.762  1.00  0.00     0.034 C 
HETATM    4  C3  UNL     1      22.554   6.216  48.682  1.00  0.00     0.045 C 
HETATM    5  C4  UNL     1      22.999   6.808  49.938  1.00  0.00    -0.019 C 
HETATM    6  C5  UNL     1      23.482   6.732  51.165  1.00  0.00    -0.004 C 
HETATM    7  C6  UNL     1      23.816   5.411  51.769  1.00  0.00     0.197 C 
HETATM    8  O2  UNL     1      23.568   4.377  50.927  1.00  0.00    -0.363 OA
HETATM    9  C7  UNL     1      23.888   3.162  51.486  1.00  0.00     0.127 C 
HETATM   10  C8  UNL     1      25.142   2.662  50.845  1.00  0.00     0.032 C 
HETATM   11  C9  UNL     1      26.089   1.898  51.359  1.00  0.00    -0.026 C 
HETATM   12  C10 UNL     1      26.226   1.954  52.649  1.00  0.00     0.012 C 
HETATM   13  C11 UNL     1      25.246   2.660  53.488  1.00  0.00     0.000 C 
HETATM   14  C12 UNL     1      24.162   3.216  52.922  1.00  0.00     0.020 C 
HETATM   15  C13 UNL     1      22.751   2.221  51.182  1.00  0.00     0.010 A 
HETATM   16  C14 UNL     1      22.085   1.732  52.284  1.00  0.00     0.013 A 
HETATM   17  C15 UNL     1      21.031   0.850  52.293  1.00  0.00     0.001 A 
HETATM   18  C16 UNL     1      20.575   0.393  51.075  1.00  0.00     0.002 A 
HETATM   19  C17 UNL     1      21.258   0.896  49.965  1.00  0.00     0.030 A 
HETATM   20  C18 UNL     1      22.336   1.800  49.978  1.00  0.00     0.038 A 
HETATM   21  N1  UNL     1      22.645   1.995  48.615  1.00  0.00    -0.382 N 
HETATM   22  C19 UNL     1      22.260   2.566  47.356  1.00  0.00     0.202 C 
HETATM   23  H15 UNL     1      23.485   1.410  48.774  1.00  0.00     0.160 HD
ENDROOT
TORSDOF 0
ENDMDL
MODEL 9
REMARK VINA RESULT:      -7.3      4.008      7.578
REMARK  0 active torsions:
REMARK  status: ('A' for Active; 'I' for Inactive)
ROOT
HETATM    1  O1  UNL     1      22.485   8.559  45.913  1.00  0.00    -0.292 OA
HETATM    2  C1  UNL     1      22.875   7.606  46.690  1.00  0.00     0.163 C 
HETATM    3  C2  UNL     1      22.109   6.481  46.193  1.00  0.00     0.034 C 
HETATM    4  C3  UNL     1      21.709   5.234  46.175  1.00  0.00     0.045 C 
HETATM    5  C4  UNL     1      21.561   3.824  46.520  1.00  0.00    -0.019 C 
HETATM    6  C5  UNL     1      21.837   2.760  47.250  1.00  0.00    -0.004 C 
HETATM    7  C6  UNL     1      22.794   2.847  48.388  1.00  0.00     0.197 C 
HETATM    8  O2  UNL     1      23.300   4.096  48.547  1.00  0.00    -0.363 OA
HETATM    9  C7  UNL     1      24.174   4.173  49.605  1.00  0.00     0.127 C 
HETATM   10  C8  UNL     1      23.502   4.901  50.723  1.00  0.00     0.032 C 
HETATM   11  C9  UNL     1      23.674   4.764  52.026  1.00  0.00    -0.026 C 
HETATM   12  C10 UNL     1      24.092   3.601  52.424  1.00  0.00     0.012 C 
HETATM   13  C11 UNL     1      24.543   2.584  51.462  1.00  0.00     0.000 C 
HETATM   14  C12 UNL     1      24.573   2.875  50.150  1.00  0.00     0.020 C 
HETATM   15  C13 UNL     1      25.372   4.958  49.134  1.00  0.00     0.010 A 
HETATM   16  C14 UNL     1      26.564   4.268  49.142  1.00  0.00     0.013 A 
HETATM   17  C15 UNL     1      27.801   4.746  48.782  1.00  0.00     0.001 A 
HETATM   18  C16 UNL     1      27.879   6.058  48.366  1.00  0.00     0.002 A 
HETATM   19  C17 UNL     1      26.664   6.747  48.363  1.00  0.00     0.030 A 
HETATM   20  C18 UNL     1      25.406   6.238  48.735  1.00  0.00     0.038 A 
HETATM   21  N1  UNL     1      24.520   7.318  48.539  1.00  0.00    -0.382 N 
HETATM   22  C19 UNL     1      23.834   8.167  47.606  1.00  0.00     0.202 C 
HETATM   23  H15 UNL     1      24.486   7.412  49.569  1.00  0.00     0.160 HD
ENDROOT
TORSDOF 0
ENDMDL
