MODEL 1
REMARK VINA RESULT:      -8.4      0.000      0.000
REMARK  6 active torsions:
REMARK  status: ('A' for Active; 'I' for Inactive)
REMARK    1  A    between atoms: C2_2  and  C3_3 
REMARK    2  A    between atoms: C5_6  and  C6_7 
REMARK    3  A    between atoms: C6_7  and  C7_8 
REMARK    4  A    between atoms: C7_8  and  N1_9 
REMARK    5  A    between atoms: N1_9  and  C8_10 
REMARK       I    between atoms: N4_20  and  C15_21 
REMARK    6  A    between atoms: C15_21  and  C16_23 
ROOT
HETATM    1  C8  UNL     1      24.731   3.325  50.269  1.00  0.00     0.112 C 
HETATM    2  C9  UNL     1      23.631   3.439  49.569  1.00  0.00    -0.018 C 
HETATM    3  C10 UNL     1      22.754   4.281  48.760  1.00  0.00     0.071 C 
HETATM    4  C11 UNL     1      21.304   4.167  49.330  1.00  0.00     0.034 C 
HETATM    5  C12 UNL     1      21.646   3.839  50.534  1.00  0.00     0.146 C 
HETATM    6  O1  UNL     1      21.911   4.592  51.816  1.00  0.00    -0.303 OA
HETATM    7  C13 UNL     1      23.272   4.346  52.234  1.00  0.00     0.304 C 
HETATM    8  N2  UNL     1      23.453   5.181  51.254  1.00  0.00    -0.246 NA
HETATM    9  C14 UNL     1      24.667   5.672  50.773  1.00  0.00     0.231 C 
HETATM   10  N3  UNL     1      25.334   4.687  50.252  1.00  0.00    -0.230 NA
HETATM   11  N4  UNL     1      21.879   2.411  50.882  1.00  0.00    -0.293 N 
HETATM   12  C15 UNL     1      21.567   1.379  51.746  1.00  0.00     0.251 C 
HETATM   13  O2  UNL     1      22.203   0.282  51.567  1.00  0.00    -0.271 OA
HETATM   14  C19 UNL     1      22.834   2.158  49.754  1.00  0.00     0.172 C 
ENDROOT
BRANCH   1  15
HETATM   15  N1  UNL     1      25.848   3.281  50.958  1.00  0.00    -0.254 NA
HETATM   16  H9  UNL     1      25.489   2.256  50.862  1.00  0.00     0.134 HD
BRANCH  15  17
HETATM   17  C7  UNL     1      26.714   2.566  51.699  1.00  0.00     0.064 C 
BRANCH  17  18
HETATM   18  C6  UNL     1      27.260   1.639  52.443  1.00  0.00     0.012 C 
BRANCH  18  19
HETATM   19  C5  UNL     1      26.766   0.259  52.195  1.00  0.00     0.007 C 
HETATM   20  C2  UNL     1      27.391  -0.739  52.784  1.00  0.00    -0.063 C 
HETATM   21  C1  UNL     1      26.801  -2.033  52.421  1.00  0.00     0.048 C 
BRANCH  20  22
HETATM   22  C3  UNL     1      28.495  -0.298  53.693  1.00  0.00     0.018 C 
HETATM   23  C4  UNL     1      29.802  -0.598  53.845  1.00  0.00     0.442 C 
HETATM   24  F1  UNL     1      29.475  -1.395  52.816  1.00  0.00    -0.452 F 
ENDBRANCH  20  22
ENDBRANCH  18  19
ENDBRANCH  17  18
ENDBRANCH  15  17
ENDBRANCH   1  15
BRANCH  12  25
HETATM   25  C16 UNL     1      20.704   1.069  52.872  1.00  0.00     0.203 C 
HETATM   26  C17 UNL     1      19.683  -0.016  52.502  1.00  0.00     0.215 C 
HETATM   27  O3  UNL     1      19.420  -0.563  53.778  1.00  0.00    -0.301 OA
HETATM   28  C18 UNL     1      20.692  -0.878  54.291  1.00  0.00     0.361 C 
HETATM   29  O4  UNL     1      21.594  -1.594  54.856  1.00  0.00    -0.238 OA
HETATM   30  N5  UNL     1      21.346   0.372  53.977  1.00  0.00    -0.321 N 
HETATM   31  H18 UNL     1      22.148   0.966  54.271  1.00  0.00     0.165 HD
ENDBRANCH  12  25
TORSDOF 6
ENDMDL
MODEL 2
REMARK VINA RESULT:      -7.9      3.753      6.257
REMARK  6 active torsions:
REMARK  status: ('A' for Active; 'I' for Inactive)
REMARK    1  A    between atoms: C2_2  and  C3_3 
REMARK    2  A    between atoms: C5_6  and  C6_7 
REMARK    3  A    between atoms: C6_7  and  C7_8 
REMARK    4  A    between atoms: C7_8  and  N1_9 
REMARK    5  A    between atoms: N1_9  and  C8_10 
REMARK       I    between atoms: N4_20  and  C15_21 
REMARK    6  A    between atoms: C15_21  and  C16_23 
ROOT
HETATM    1  C8  UNL     1      24.601   4.924  50.482  1.00  0.00     0.112 C 
HETATM    2  C9  UNL     1      24.225   3.699  50.220  1.00  0.00    -0.018 C 
HETATM    3  C10 UNL     1      23.141   2.770  49.912  1.00  0.00     0.071 C 
HETATM    4  C11 UNL     1      23.233   1.565  50.902  1.00  0.00     0.034 C 
HETATM    5  C12 UNL     1      23.853   2.197  51.845  1.00  0.00     0.146 C 
HETATM    6  O1  UNL     1      23.433   2.963  53.077  1.00  0.00    -0.303 OA
HETATM    7  C13 UNL     1      23.901   4.325  52.969  1.00  0.00     0.304 C 
HETATM    8  N2  UNL     1      22.891   4.336  52.149  1.00  0.00    -0.246 NA
HETATM    9  C14 UNL     1      22.430   5.409  51.387  1.00  0.00     0.231 C 
HETATM   10  N3  UNL     1      23.337   5.712  50.508  1.00  0.00    -0.230 NA
HETATM   11  N4  UNL     1      25.338   2.285  51.836  1.00  0.00    -0.293 N 
HETATM   12  C15 UNL     1      26.499   2.084  52.557  1.00  0.00     0.251 C 
HETATM   13  O2  UNL     1      27.587   2.443  51.985  1.00  0.00    -0.271 OA
HETATM   14  C19 UNL     1      25.429   2.795  50.429  1.00  0.00     0.172 C 
ENDROOT
BRANCH   1  15
HETATM   15  N1  UNL     1      24.909   6.174  50.741  1.00  0.00    -0.254 NA
HETATM   16  H9  UNL     1      25.311   5.942  49.755  1.00  0.00     0.134 HD
BRANCH  15  17
HETATM   17  C7  UNL     1      25.585   7.286  50.400  1.00  0.00     0.064 C 
BRANCH  17  18
HETATM   18  C6  UNL     1      26.501   8.112  49.964  1.00  0.00     0.012 C 
BRANCH  18  19
HETATM   19  C5  UNL     1      26.361   8.514  48.539  1.00  0.00     0.007 C 
HETATM   20  C2  UNL     1      26.939   7.765  47.623  1.00  0.00    -0.063 C 
HETATM   21  C1  UNL     1      26.731   8.305  46.275  1.00  0.00     0.048 C 
BRANCH  20  22
HETATM   22  C3  UNL     1      27.608   6.548  48.184  1.00  0.00     0.018 C 
HETATM   23  C4  UNL     1      28.845   6.012  48.127  1.00  0.00     0.442 C 
HETATM   24  F1  UNL     1      29.010   7.114  47.378  1.00  0.00    -0.452 F 
ENDBRANCH  20  22
ENDBRANCH  18  19
ENDBRANCH  17  18
ENDBRANCH  15  17
ENDBRANCH   1  15
BRANCH  12  25
HETATM   25  C16 UNL     1      26.964   1.566  53.832  1.00  0.00     0.203 C 
HETATM   26  C17 UNL     1      26.462   0.134  54.062  1.00  0.00     0.215 C 
HETATM   27  O3  UNL     1      27.456  -0.345  54.943  1.00  0.00    -0.301 OA
HETATM   28  C18 UNL     1      28.667  -0.076  54.280  1.00  0.00     0.361 C 
HETATM   29  O4  UNL     1      29.841  -0.316  53.818  1.00  0.00    -0.238 OA
HETATM   30  N5  UNL     1      28.391   1.294  53.912  1.00  0.00    -0.321 N 
HETATM   31  H18 UNL     1      28.873   2.183  53.670  1.00  0.00     0.165 HD
ENDBRANCH  12  25
TORSDOF 6
ENDMDL
MODEL 3
REMARK VINA RESULT:      -7.8      7.340     10.369
REMARK  6 active torsions:
REMARK  status: ('A' for Active; 'I' for Inactive)
REMARK    1  A    between atoms: C2_2  and  C3_3 
REMARK    2  A    between atoms: C5_6  and  C6_7 
REMARK    3  A    between atoms: C6_7  and  C7_8 
REMARK    4  A    between atoms: C7_8  and  N1_9 
REMARK    5  A    between atoms: N1_9  and  C8_10 
REMARK       I    between atoms: N4_20  and  C15_21 
REMARK    6  A    between atoms: C15_21  and  C16_23 
ROOT
HETATM    1  C8  UNL     1      29.187   8.784  49.181  1.00  0.00     0.112 C 
HETATM    2  C9  UNL     1      30.424   9.123  48.921  1.00  0.00    -0.018 C 
HETATM    3  C10 UNL     1      31.350  10.060  48.291  1.00  0.00     0.071 C 
HETATM    4  C11 UNL     1      32.344   9.242  47.404  1.00  0.00     0.034 C 
HETATM    5  C12 UNL     1      31.566   8.227  47.212  1.00  0.00     0.146 C 
HETATM    6  O1  UNL     1      30.561   7.831  46.156  1.00  0.00    -0.303 OA
HETATM    7  C13 UNL     1      29.265   7.673  46.775  1.00  0.00     0.304 C 
HETATM    8  N2  UNL     1      29.372   8.968  46.736  1.00  0.00    -0.246 NA
HETATM    9  C14 UNL     1      28.449   9.909  47.192  1.00  0.00     0.231 C 
HETATM   10  N3  UNL     1      28.359   9.808  48.484  1.00  0.00    -0.230 NA
HETATM   11  N4  UNL     1      31.543   7.107  48.191  1.00  0.00    -0.293 N 
HETATM   12  C15 UNL     1      31.648   5.741  48.368  1.00  0.00     0.251 C 
HETATM   13  O2  UNL     1      31.450   5.311  49.559  1.00  0.00    -0.271 OA
HETATM   14  C19 UNL     1      31.319   7.986  49.386  1.00  0.00     0.172 C 
ENDROOT
BRANCH   1  15
HETATM   15  N1  UNL     1      27.924   8.503  49.404  1.00  0.00    -0.254 NA
HETATM   16  H9  UNL     1      28.376   7.619  48.952  1.00  0.00     0.134 HD
BRANCH  15  17
HETATM   17  C7  UNL     1      26.887   7.661  49.239  1.00  0.00     0.064 C 
BRANCH  17  18
HETATM   18  C6  UNL     1      26.103   6.708  48.807  1.00  0.00     0.012 C 
BRANCH  18  19
HETATM   19  C5  UNL     1      26.646   5.331  48.949  1.00  0.00     0.007 C 
HETATM   20  C2  UNL     1      25.887   4.420  49.521  1.00  0.00    -0.063 C 
HETATM   21  C1  UNL     1      26.572   3.125  49.608  1.00  0.00     0.048 C 
BRANCH  20  22
HETATM   22  C3  UNL     1      24.525   4.923  49.887  1.00  0.00     0.018 C 
HETATM   23  C4  UNL     1      23.260   4.660  49.498  1.00  0.00     0.442 C 
HETATM   24  F1  UNL     1      23.948   3.807  48.723  1.00  0.00    -0.452 F 
ENDBRANCH  20  22
ENDBRANCH  18  19
ENDBRANCH  17  18
ENDBRANCH  15  17
ENDBRANCH   1  15
BRANCH  12  25
HETATM   25  C16 UNL     1      31.927   4.522  47.629  1.00  0.00     0.203 C 
HETATM   26  C17 UNL     1      32.619   4.833  46.295  1.00  0.00     0.215 C 
HETATM   27  O3  UNL     1      33.306   3.618  46.076  1.00  0.00    -0.301 OA
HETATM   28  C18 UNL     1      34.032   3.412  47.263  1.00  0.00     0.361 C 
HETATM   29  O4  UNL     1      35.053   3.137  47.992  1.00  0.00    -0.238 OA
HETATM   30  N5  UNL     1      32.961   3.671  48.198  1.00  0.00    -0.321 N 
HETATM   31  H18 UNL     1      32.663   3.459  49.172  1.00  0.00     0.165 HD
ENDBRANCH  12  25
TORSDOF 6
ENDMDL
MODEL 4
REMARK VINA RESULT:      -7.7      9.392     12.619
REMARK  6 active torsions:
REMARK  status: ('A' for Active; 'I' for Inactive)
REMARK    1  A    between atoms: C2_2  and  C3_3 
REMARK    2  A    between atoms: C5_6  and  C6_7 
REMARK    3  A    between atoms: C6_7  and  C7_8 
REMARK    4  A    between atoms: C7_8  and  N1_9 
REMARK    5  A    between atoms: N1_9  and  C8_10 
REMARK       I    between atoms: N4_20  and  C15_21 
REMARK    6  A    between atoms: C15_21  and  C16_23 
ROOT
HETATM    1  C8  UNL     1      31.527   4.875  47.450  1.00  0.00     0.112 C 
HETATM    2  C9  UNL     1      32.456   3.958  47.369  1.00  0.00    -0.018 C 
HETATM    3  C10 UNL     1      33.442   3.123  48.050  1.00  0.00     0.071 C 
HETATM    4  C11 UNL     1      34.813   3.288  47.317  1.00  0.00     0.034 C 
HETATM    5  C12 UNL     1      34.574   4.459  46.823  1.00  0.00     0.146 C 
HETATM    6  O1  UNL     1      34.828   5.881  47.264  1.00  0.00    -0.303 OA
HETATM    7  C13 UNL     1      33.565   6.571  47.385  1.00  0.00     0.304 C 
HETATM    8  N2  UNL     1      33.557   5.833  48.455  1.00  0.00    -0.246 NA
HETATM    9  C14 UNL     1      32.560   5.763  49.428  1.00  0.00     0.231 C 
HETATM   10  N3  UNL     1      31.492   5.253  48.891  1.00  0.00    -0.230 NA
HETATM   11  N4  UNL     1      33.876   4.591  45.515  1.00  0.00    -0.293 N 
HETATM   12  C15 UNL     1      33.910   5.150  44.252  1.00  0.00     0.251 C 
HETATM   13  O2  UNL     1      32.884   4.939  43.515  1.00  0.00    -0.271 OA
HETATM   14  C19 UNL     1      32.725   3.706  45.894  1.00  0.00     0.172 C 
ENDROOT
BRANCH   1  15
HETATM   15  N1  UNL     1      30.606   5.799  47.603  1.00  0.00    -0.254 NA
HETATM   16  H9  UNL     1      30.210   4.876  48.029  1.00  0.00     0.134 HD
BRANCH  15  17
HETATM   17  C7  UNL     1      29.347   6.120  47.950  1.00  0.00     0.064 C 
BRANCH  17  18
HETATM   18  C6  UNL     1      28.063   6.071  48.195  1.00  0.00     0.012 C 
BRANCH  18  19
HETATM   19  C5  UNL     1      27.570   4.773  48.728  1.00  0.00     0.007 C 
HETATM   20  C2  UNL     1      26.317   4.700  49.125  1.00  0.00    -0.063 C 
HETATM   21  C1  UNL     1      25.994   3.366  49.645  1.00  0.00     0.048 C 
BRANCH  20  22
HETATM   22  C3  UNL     1      25.547   5.964  48.903  1.00  0.00     0.018 C 
HETATM   23  C4  UNL     1      24.928   6.871  49.688  1.00  0.00     0.442 C 
HETATM   24  F1  UNL     1      25.402   6.017  50.609  1.00  0.00    -0.452 F 
ENDBRANCH  20  22
ENDBRANCH  18  19
ENDBRANCH  17  18
ENDBRANCH  15  17
ENDBRANCH   1  15
BRANCH  12  25
HETATM   25  C16 UNL     1      34.762   5.954  43.394  1.00  0.00     0.203 C 
HETATM   26  C17 UNL     1      34.110   6.176  42.022  1.00  0.00     0.215 C 
HETATM   27  O3  UNL     1      34.735   7.383  41.636  1.00  0.00    -0.301 OA
HETATM   28  C18 UNL     1      34.511   8.252  42.719  1.00  0.00     0.361 C 
HETATM   29  O4  UNL     1      34.176   9.341  43.312  1.00  0.00    -0.238 OA
HETATM   30  N5  UNL     1      34.898   7.350  43.780  1.00  0.00    -0.321 N 
HETATM   31  H18 UNL     1      35.246   7.350  44.760  1.00  0.00     0.165 HD
ENDBRANCH  12  25
TORSDOF 6
ENDMDL
MODEL 5
REMARK VINA RESULT:      -7.5      1.886      2.336
REMARK  6 active torsions:
REMARK  status: ('A' for Active; 'I' for Inactive)
REMARK    1  A    between atoms: C2_2  and  C3_3 
REMARK    2  A    between atoms: C5_6  and  C6_7 
REMARK    3  A    between atoms: C6_7  and  C7_8 
REMARK    4  A    between atoms: C7_8  and  N1_9 
REMARK    5  A    between atoms: N1_9  and  C8_10 
REMARK       I    between atoms: N4_20  and  C15_21 
REMARK    6  A    between atoms: C15_21  and  C16_23 
ROOT
HETATM    1  C8  UNL     1      24.640   4.163  49.686  1.00  0.00     0.112 C 
HETATM    2  C9  UNL     1      23.809   4.641  48.796  1.00  0.00    -0.018 C 
HETATM    3  C10 UNL     1      23.226   5.808  48.139  1.00  0.00     0.071 C 
HETATM    4  C11 UNL     1      21.670   5.670  48.189  1.00  0.00     0.034 C 
HETATM    5  C12 UNL     1      21.625   4.904  49.230  1.00  0.00     0.146 C 
HETATM    6  O1  UNL     1      21.485   5.126  50.718  1.00  0.00    -0.303 OA
HETATM    7  C13 UNL     1      22.651   4.594  51.385  1.00  0.00     0.304 C 
HETATM    8  N2  UNL     1      23.127   5.692  50.877  1.00  0.00    -0.246 NA
HETATM    9  C14 UNL     1      24.430   6.177  50.978  1.00  0.00     0.231 C 
HETATM   10  N3  UNL     1      25.223   5.366  50.344  1.00  0.00    -0.230 NA
HETATM   11  N4  UNL     1      21.736   3.429  49.080  1.00  0.00    -0.293 N 
HETATM   12  C15 UNL     1      21.170   2.203  49.376  1.00  0.00     0.251 C 
HETATM   13  O2  UNL     1      21.828   1.172  48.994  1.00  0.00    -0.271 OA
HETATM   14  C19 UNL     1      22.991   3.477  48.260  1.00  0.00     0.172 C 
ENDROOT
BRANCH   1  15
HETATM   15  N1  UNL     1      25.491   3.752  50.598  1.00  0.00    -0.254 NA
HETATM   16  H9  UNL     1      25.212   2.882  50.003  1.00  0.00     0.134 HD
BRANCH  15  17
HETATM   17  C7  UNL     1      26.109   2.730  51.216  1.00  0.00     0.064 C 
BRANCH  17  18
HETATM   18  C6  UNL     1      26.692   1.972  52.109  1.00  0.00     0.012 C 
BRANCH  18  19
HETATM   19  C5  UNL     1      26.481   0.511  51.932  1.00  0.00     0.007 C 
HETATM   20  C2  UNL     1      27.114  -0.311  52.743  1.00  0.00    -0.063 C 
HETATM   21  C1  UNL     1      26.822  -1.713  52.425  1.00  0.00     0.048 C 
BRANCH  20  22
HETATM   22  C3  UNL     1      27.918   0.390  53.793  1.00  0.00     0.018 C 
HETATM   23  C4  UNL     1      29.220   0.436  54.144  1.00  0.00     0.442 C 
HETATM   24  F1  UNL     1      29.267  -0.407  53.101  1.00  0.00    -0.452 F 
ENDBRANCH  20  22
ENDBRANCH  18  19
ENDBRANCH  17  18
ENDBRANCH  15  17
ENDBRANCH   1  15
BRANCH  12  25
HETATM   25  C16 UNL     1      20.003   1.620  50.012  1.00  0.00     0.203 C 
HETATM   26  C17 UNL     1      20.322   1.170  51.444  1.00  0.00     0.215 C 
HETATM   27  O3  UNL     1      19.035   1.235  52.024  1.00  0.00    -0.301 OA
HETATM   28  C18 UNL     1      18.589   2.537  51.733  1.00  0.00     0.361 C 
HETATM   29  O4  UNL     1      18.072   3.689  51.965  1.00  0.00    -0.238 OA
HETATM   30  N5  UNL     1      18.933   2.555  50.330  1.00  0.00    -0.321 N 
HETATM   31  H18 UNL     1      18.680   3.024  49.437  1.00  0.00     0.165 HD
ENDBRANCH  12  25
TORSDOF 6
ENDMDL
MODEL 6
REMARK VINA RESULT:      -7.2      3.125      6.120
REMARK  6 active torsions:
REMARK  status: ('A' for Active; 'I' for Inactive)
REMARK    1  A    between atoms: C2_2  and  C3_3 
REMARK    2  A    between atoms: C5_6  and  C6_7 
REMARK    3  A    between atoms: C6_7  and  C7_8 
REMARK    4  A    between atoms: C7_8  and  N1_9 
REMARK    5  A    between atoms: N1_9  and  C8_10 
REMARK       I    between atoms: N4_20  and  C15_21 
REMARK    6  A    between atoms: C15_21  and  C16_23 
ROOT
HETATM    1  C8  UNL     1      21.465   4.792  51.396  1.00  0.00     0.112 C 
HETATM    2  C9  UNL     1      22.598   5.444  51.373  1.00  0.00    -0.018 C 
HETATM    3  C10 UNL     1      23.423   6.483  50.762  1.00  0.00     0.071 C 
HETATM    4  C11 UNL     1      24.816   5.864  50.420  1.00  0.00     0.034 C 
HETATM    5  C12 UNL     1      24.413   4.638  50.330  1.00  0.00     0.146 C 
HETATM    6  O1  UNL     1      23.929   3.749  49.209  1.00  0.00    -0.303 OA
HETATM    7  C13 UNL     1      22.583   3.315  49.498  1.00  0.00     0.304 C 
HETATM    8  N2  UNL     1      22.380   4.544  49.127  1.00  0.00    -0.246 NA
HETATM    9  C14 UNL     1      21.161   5.217  49.052  1.00  0.00     0.231 C 
HETATM   10  N3  UNL     1      20.685   5.346  50.254  1.00  0.00    -0.230 NA
HETATM   11  N4  UNL     1      24.346   3.781  51.544  1.00  0.00    -0.293 N 
HETATM   12  C15 UNL     1      24.715   2.579  52.117  1.00  0.00     0.251 C 
HETATM   13  O2  UNL     1      24.254   2.349  53.289  1.00  0.00    -0.271 OA
HETATM   14  C19 UNL     1      23.543   4.760  52.348  1.00  0.00     0.172 C 
ENDROOT
BRANCH   1  15
HETATM   15  N1  UNL     1      20.306   4.176  51.361  1.00  0.00    -0.254 NA
HETATM   16  H9  UNL     1      21.049   3.444  51.678  1.00  0.00     0.134 HD
BRANCH  15  17
HETATM   17  C7  UNL     1      19.612   3.026  51.434  1.00  0.00     0.064 C 
BRANCH  17  18
HETATM   18  C6  UNL     1      19.075   1.910  51.856  1.00  0.00     0.012 C 
BRANCH  18  19
HETATM   19  C5  UNL     1      19.977   1.038  52.655  1.00  0.00     0.007 C 
HETATM   20  C2  UNL     1      19.599  -0.202  52.883  1.00  0.00    -0.063 C 
HETATM   21  C1  UNL     1      20.581  -0.923  53.701  1.00  0.00     0.048 C 
BRANCH  20  22
HETATM   22  C3  UNL     1      18.308  -0.564  52.217  1.00  0.00     0.018 C 
HETATM   23  C4  UNL     1      17.144  -1.126  52.605  1.00  0.00     0.442 C 
HETATM   24  F1  UNL     1      17.823  -1.123  53.763  1.00  0.00    -0.452 F 
ENDBRANCH  20  22
ENDBRANCH  18  19
ENDBRANCH  17  18
ENDBRANCH  15  17
ENDBRANCH   1  15
BRANCH  12  25
HETATM   25  C16 UNL     1      25.504   1.391  51.844  1.00  0.00     0.203 C 
HETATM   26  C17 UNL     1      26.971   1.600  52.244  1.00  0.00     0.215 C 
HETATM   27  O3  UNL     1      27.363   0.263  52.478  1.00  0.00    -0.301 OA
HETATM   28  C18 UNL     1      26.405  -0.226  53.384  1.00  0.00     0.361 C 
HETATM   29  O4  UNL     1      25.965  -0.827  54.430  1.00  0.00    -0.238 OA
HETATM   30  N5  UNL     1      25.224   0.246  52.697  1.00  0.00    -0.321 N 
HETATM   31  H18 UNL     1      24.207   0.052  52.601  1.00  0.00     0.165 HD
ENDBRANCH  12  25
TORSDOF 6
ENDMDL
MODEL 7
REMARK VINA RESULT:      -6.9      7.811     11.254
REMARK  6 active torsions:
REMARK  status: ('A' for Active; 'I' for Inactive)
REMARK    1  A    between atoms: C2_2  and  C3_3 
REMARK    2  A    between atoms: C5_6  and  C6_7 
REMARK    3  A    between atoms: C6_7  and  C7_8 
REMARK    4  A    between atoms: C7_8  and  N1_9 
REMARK    5  A    between atoms: N1_9  and  C8_10 
REMARK       I    between atoms: N4_20  and  C15_21 
REMARK    6  A    between atoms: C15_21  and  C16_23 
ROOT
HETATM    1  C8  UNL     1      30.617   6.237  47.578  1.00  0.00     0.112 C 
HETATM    2  C9  UNL     1      31.692   6.600  46.926  1.00  0.00    -0.018 C 
HETATM    3  C10 UNL     1      33.124   6.429  46.699  1.00  0.00     0.071 C 
HETATM    4  C11 UNL     1      33.804   7.833  46.787  1.00  0.00     0.034 C 
HETATM    5  C12 UNL     1      32.907   8.383  47.539  1.00  0.00     0.146 C 
HETATM    6  O1  UNL     1      32.720   8.565  49.026  1.00  0.00    -0.303 OA
HETATM    7  C13 UNL     1      31.494   7.918  49.431  1.00  0.00     0.304 C 
HETATM    8  N2  UNL     1      32.279   6.896  49.266  1.00  0.00    -0.246 NA
HETATM    9  C14 UNL     1      31.964   5.548  49.442  1.00  0.00     0.231 C 
HETATM   10  N3  UNL     1      31.088   5.207  48.545  1.00  0.00    -0.230 NA
HETATM   11  N4  UNL     1      31.707   9.018  46.930  1.00  0.00    -0.293 N 
HETATM   12  C15 UNL     1      30.928  10.157  46.859  1.00  0.00     0.251 C 
HETATM   13  O2  UNL     1      29.871  10.072  46.140  1.00  0.00    -0.271 OA
HETATM   14  C19 UNL     1      31.337   7.825  46.100  1.00  0.00     0.172 C 
ENDROOT
BRANCH   1  15
HETATM   15  N1  UNL     1      29.578   5.826  48.268  1.00  0.00    -0.254 NA
HETATM   16  H9  UNL     1      29.297   5.794  47.215  1.00  0.00     0.134 HD
BRANCH  15  17
HETATM   17  C7  UNL     1      28.279   5.478  48.294  1.00  0.00     0.064 C 
BRANCH  17  18
HETATM   18  C6  UNL     1      27.065   5.194  48.689  1.00  0.00     0.012 C 
BRANCH  18  19
HETATM   19  C5  UNL     1      26.931   3.928  49.458  1.00  0.00     0.007 C 
HETATM   20  C2  UNL     1      25.751   3.627  49.957  1.00  0.00    -0.063 C 
HETATM   21  C1  UNL     1      25.788   2.366  50.706  1.00  0.00     0.048 C 
BRANCH  20  22
HETATM   22  C3  UNL     1      24.682   4.611  49.596  1.00  0.00     0.018 C 
HETATM   23  C4  UNL     1      23.522   4.570  48.907  1.00  0.00     0.442 C 
HETATM   24  F1  UNL     1      23.924   3.294  48.806  1.00  0.00    -0.452 F 
ENDBRANCH  20  22
ENDBRANCH  18  19
ENDBRANCH  17  18
ENDBRANCH  15  17
ENDBRANCH   1  15
BRANCH  12  25
HETATM   25  C16 UNL     1      30.877  11.524  47.344  1.00  0.00     0.203 C 
HETATM   26  C17 UNL     1      30.004  12.400  46.435  1.00  0.00     0.215 C 
HETATM   27  O3  UNL     1      29.609  13.402  47.349  1.00  0.00    -0.301 OA
HETATM   28  C18 UNL     1      29.072  12.688  48.436  1.00  0.00     0.361 C 
HETATM   29  O4  UNL     1      28.223  12.390  49.351  1.00  0.00    -0.238 OA
HETATM   30  N5  UNL     1      30.137  11.720  48.582  1.00  0.00    -0.321 N 
HETATM   31  H18 UNL     1      30.570  11.088  49.285  1.00  0.00     0.165 HD
ENDBRANCH  12  25
TORSDOF 6
ENDMDL
MODEL 8
REMARK VINA RESULT:      -6.8      2.061      2.564
REMARK  6 active torsions:
REMARK  status: ('A' for Active; 'I' for Inactive)
REMARK    1  A    between atoms: C2_2  and  C3_3 
REMARK    2  A    between atoms: C5_6  and  C6_7 
REMARK    3  A    between atoms: C6_7  and  C7_8 
REMARK    4  A    between atoms: C7_8  and  N1_9 
REMARK    5  A    between atoms: N1_9  and  C8_10 
REMARK       I    between atoms: N4_20  and  C15_21 
REMARK    6  A    between atoms: C15_21  and  C16_23 
ROOT
HETATM    1  C8  UNL     1      24.055   3.298  50.753  1.00  0.00     0.112 C 
HETATM    2  C9  UNL     1      23.326   3.363  49.669  1.00  0.00    -0.018 C 
HETATM    3  C10 UNL     1      22.849   4.153  48.537  1.00  0.00     0.071 C 
HETATM    4  C11 UNL     1      21.291   4.044  48.487  1.00  0.00     0.034 C 
HETATM    5  C12 UNL     1      21.123   3.778  49.741  1.00  0.00     0.146 C 
HETATM    6  O1  UNL     1      20.860   4.594  50.985  1.00  0.00    -0.303 OA
HETATM    7  C13 UNL     1      21.939   4.389  51.922  1.00  0.00     0.304 C 
HETATM    8  N2  UNL     1      22.500   5.180  51.056  1.00  0.00    -0.246 NA
HETATM    9  C14 UNL     1      23.808   5.665  51.074  1.00  0.00     0.231 C 
HETATM   10  N3  UNL     1      24.623   4.667  50.911  1.00  0.00    -0.230 NA
HETATM   11  N4  UNL     1      21.191   2.372  50.224  1.00  0.00    -0.293 N 
HETATM   12  C15 UNL     1      20.555   1.377  50.941  1.00  0.00     0.251 C 
HETATM   13  O2  UNL     1      21.205   0.283  51.084  1.00  0.00    -0.271 OA
HETATM   14  C19 UNL     1      22.515   2.080  49.583  1.00  0.00     0.172 C 
ENDROOT
BRANCH   1  15
HETATM   15  N1  UNL     1      24.805   3.303  51.831  1.00  0.00    -0.254 NA
HETATM   16  H9  UNL     1      25.109   2.444  51.232  1.00  0.00     0.134 HD
BRANCH  15  17
HETATM   17  C7  UNL     1      25.713   2.679  52.603  1.00  0.00     0.064 C 
BRANCH  17  18
HETATM   18  C6  UNL     1      26.366   2.193  53.626  1.00  0.00     0.012 C 
BRANCH  18  19
HETATM   19  C5  UNL     1      27.441   1.222  53.286  1.00  0.00     0.007 C 
HETATM   20  C2  UNL     1      27.436   0.054  53.891  1.00  0.00    -0.063 C 
HETATM   21  C1  UNL     1      28.569  -0.777  53.468  1.00  0.00     0.048 C 
BRANCH  20  22
HETATM   22  C3  UNL     1      26.266  -0.140  54.806  1.00  0.00     0.018 C 
HETATM   23  C4  UNL     1      25.103  -0.822  54.757  1.00  0.00     0.442 C 
HETATM   24  F1  UNL     1      25.634  -1.138  53.566  1.00  0.00    -0.452 F 
ENDBRANCH  20  22
ENDBRANCH  18  19
ENDBRANCH  17  18
ENDBRANCH  15  17
ENDBRANCH   1  15
BRANCH  12  25
HETATM   25  C16 UNL     1      19.313   1.107  51.644  1.00  0.00     0.203 C 
HETATM   26  C17 UNL     1      18.280   2.212  51.384  1.00  0.00     0.215 C 
HETATM   27  O3  UNL     1      17.082   1.496  51.601  1.00  0.00    -0.301 OA
HETATM   28  C18 UNL     1      17.195   0.369  50.767  1.00  0.00     0.361 C 
HETATM   29  O4  UNL     1      16.827  -0.500  49.897  1.00  0.00    -0.238 OA
HETATM   30  N5  UNL     1      18.540  -0.015  51.136  1.00  0.00    -0.321 N 
HETATM   31  H18 UNL     1      19.171  -0.841  51.159  1.00  0.00     0.165 HD
ENDBRANCH  12  25
TORSDOF 6
ENDMDL
MODEL 9
REMARK VINA RESULT:      -6.7      7.845     11.263
REMARK  6 active torsions:
REMARK  status: ('A' for Active; 'I' for Inactive)
REMARK    1  A    between atoms: C2_2  and  C3_3 
REMARK    2  A    between atoms: C5_6  and  C6_7 
REMARK    3  A    between atoms: C6_7  and  C7_8 
REMARK    4  A    between atoms: C7_8  and  N1_9 
REMARK    5  A    between atoms: N1_9  and  C8_10 
REMARK       I    between atoms: N4_20  and  C15_21 
REMARK    6  A    between atoms: C15_21  and  C16_23 
ROOT
HETATM    1  C8  UNL     1      30.933   7.629  47.311  1.00  0.00     0.112 C 
HETATM    2  C9  UNL     1      31.503   8.682  46.784  1.00  0.00    -0.018 C 
HETATM    3  C10 UNL     1      32.698   9.511  46.647  1.00  0.00     0.071 C 
HETATM    4  C11 UNL     1      32.299  10.994  46.935  1.00  0.00     0.034 C 
HETATM    5  C12 UNL     1      31.270  10.728  47.672  1.00  0.00     0.146 C 
HETATM    6  O1  UNL     1      31.029  10.551  49.153  1.00  0.00    -0.303 OA
HETATM    7  C13 UNL     1      30.526   9.219  49.393  1.00  0.00     0.304 C 
HETATM    8  N2  UNL     1      31.786   8.981  49.179  1.00  0.00    -0.246 NA
HETATM    9  C14 UNL     1      32.428   7.743  49.186  1.00  0.00     0.231 C 
HETATM   10  N3  UNL     1      31.975   7.036  48.196  1.00  0.00    -0.230 NA
HETATM   11  N4  UNL     1      29.938  10.507  47.047  1.00  0.00    -0.293 N 
HETATM   12  C15 UNL     1      28.604  10.866  47.040  1.00  0.00     0.251 C 
HETATM   13  O2  UNL     1      27.849  10.211  46.239  1.00  0.00    -0.271 OA
HETATM   14  C19 UNL     1      30.425   9.479  46.069  1.00  0.00     0.172 C 
ENDROOT
BRANCH   1  15
HETATM   15  N1  UNL     1      30.423   6.558  47.874  1.00  0.00    -0.254 NA
HETATM   16  H9  UNL     1      29.588   7.173  47.538  1.00  0.00     0.134 HD
BRANCH  15  17
HETATM   17  C7  UNL     1      29.339   5.904  48.329  1.00  0.00     0.064 C 
BRANCH  17  18
HETATM   18  C6  UNL     1      28.323   5.088  48.443  1.00  0.00     0.012 C 
BRANCH  18  19
HETATM   19  C5  UNL     1      27.001   5.747  48.623  1.00  0.00     0.007 C 
HETATM   20  C2  UNL     1      26.008   5.026  49.097  1.00  0.00    -0.063 C 
HETATM   21  C1  UNL     1      24.771   5.809  49.192  1.00  0.00     0.048 C 
BRANCH  20  22
HETATM   22  C3  UNL     1      26.404   3.627  49.455  1.00  0.00     0.018 C 
HETATM   23  C4  UNL     1      26.352   2.862  50.565  1.00  0.00     0.442 C 
HETATM   24  F1  UNL     1      25.805   4.001  51.016  1.00  0.00    -0.452 F 
ENDBRANCH  20  22
ENDBRANCH  18  19
ENDBRANCH  17  18
ENDBRANCH  15  17
ENDBRANCH   1  15
BRANCH  12  25
HETATM   25  C16 UNL     1      27.681  11.797  47.663  1.00  0.00     0.203 C 
HETATM   26  C17 UNL     1      28.237  12.318  48.995  1.00  0.00     0.215 C 
HETATM   27  O3  UNL     1      27.561  13.555  49.087  1.00  0.00    -0.301 OA
HETATM   28  C18 UNL     1      27.835  14.192  47.863  1.00  0.00     0.361 C 
HETATM   29  O4  UNL     1      28.182  15.148  47.080  1.00  0.00    -0.238 OA
HETATM   30  N5  UNL     1      27.538  13.079  46.990  1.00  0.00    -0.321 N 
HETATM   31  H18 UNL     1      27.254  12.867  46.012  1.00  0.00     0.165 HD
ENDBRANCH  12  25
TORSDOF 6
ENDMDL
