MODEL 1
REMARK VINA RESULT:      -7.9      0.000      0.000
REMARK  4 active torsions:
REMARK  status: ('A' for Active; 'I' for Inactive)
REMARK    1  A    between atoms: O1_2  and  C2_3 
REMARK    2  A    between atoms: C6_9  and  N3_10 
REMARK    3  A    between atoms: N3_10  and  C7_11 
REMARK    4  A    between atoms: C15_20  and  O2_21 
ROOT
HETATM    1  C2  UNL     1      27.659   0.138  53.967  1.00  0.00     0.174 C 
HETATM    2  C3  UNL     1      28.397   1.108  53.162  1.00  0.00     0.024 C 
HETATM    3  C4  UNL     1      27.995   2.368  53.142  1.00  0.00     0.087 C 
HETATM    4  N1  UNL     1      26.860   2.780  53.888  1.00  0.00    -0.361 N 
HETATM    5  C5  UNL     1      25.497   2.794  53.576  1.00  0.00     0.209 C 
HETATM    6  N2  UNL     1      25.090   2.528  52.405  1.00  0.00    -0.227 NA
HETATM    7  C6  UNL     1      25.880   2.193  51.296  1.00  0.00     0.125 C 
HETATM    8  C13 UNL     1      26.070   0.872  51.462  1.00  0.00     0.026 C 
HETATM    9  C14 UNL     1      25.617  -0.070  52.493  1.00  0.00     0.066 C 
HETATM   10  C15 UNL     1      26.726  -0.755  53.222  1.00  0.00     0.157 C 
HETATM   11  H7  UNL     1      27.346   3.076  54.760  1.00  0.00     0.166 HD
ENDROOT
BRANCH   7  12
HETATM   12  N3  UNL     1      26.476   2.779  50.152  1.00  0.00    -0.341 N 
HETATM   13  H9  UNL     1      26.985   2.093  49.523  1.00  0.00     0.167 HD
BRANCH  12  14
HETATM   14  C7  UNL     1      26.483   4.131  49.733  1.00  0.00     0.034 A 
HETATM   15  C8  UNL     1      27.451   4.602  48.860  1.00  0.00     0.029 A 
HETATM   16  C9  UNL     1      27.481   5.909  48.433  1.00  0.00     0.004 A 
HETATM   17  C10 UNL     1      26.542   6.830  48.852  1.00  0.00     0.019 A 
HETATM   18  C11 UNL     1      25.560   6.396  49.725  1.00  0.00     0.013 A 
HETATM   19 BR1  UNL     1      24.257   7.629  50.320  1.00  0.00    -0.051 Br
HETATM   20  C12 UNL     1      25.575   5.084  50.119  1.00  0.00     0.048 A 
ENDBRANCH  12  14
ENDBRANCH   7  12
BRANCH  10  21
HETATM   21  O2  UNL     1      26.109  -1.580  54.192  1.00  0.00    -0.388 OA
HETATM   22  C16 UNL     1      25.046  -0.908  54.794  1.00  0.00     0.202 C 
ENDBRANCH  10  21
BRANCH   1  23
HETATM   23  O1  UNL     1      28.574  -0.687  54.622  1.00  0.00    -0.384 OA
HETATM   24  C1  UNL     1      29.654  -1.053  53.860  1.00  0.00     0.202 C 
ENDBRANCH   1  23
TORSDOF 4
ENDMDL
MODEL 2
REMARK VINA RESULT:      -7.7      1.573      1.972
REMARK  4 active torsions:
REMARK  status: ('A' for Active; 'I' for Inactive)
REMARK    1  A    between atoms: O1_2  and  C2_3 
REMARK    2  A    between atoms: C6_9  and  N3_10 
REMARK    3  A    between atoms: N3_10  and  C7_11 
REMARK    4  A    between atoms: C15_20  and  O2_21 
ROOT
HETATM    1  C2  UNL     1      25.665  -0.121  53.434  1.00  0.00     0.174 C 
HETATM    2  C3  UNL     1      26.367   0.479  52.302  1.00  0.00     0.024 C 
HETATM    3  C4  UNL     1      26.558   1.787  52.282  1.00  0.00     0.087 C 
HETATM    4  N1  UNL     1      26.088   2.606  53.341  1.00  0.00    -0.361 N 
HETATM    5  C5  UNL     1      24.855   3.227  53.560  1.00  0.00     0.209 C 
HETATM    6  N2  UNL     1      23.955   3.231  52.667  1.00  0.00    -0.227 NA
HETATM    7  C6  UNL     1      24.034   2.652  51.392  1.00  0.00     0.125 C 
HETATM    8  C13 UNL     1      23.699   1.372  51.632  1.00  0.00     0.026 C 
HETATM    9  C14 UNL     1      23.331   0.661  52.863  1.00  0.00     0.066 C 
HETATM   10  C15 UNL     1      24.236  -0.478  53.203  1.00  0.00     0.157 C 
HETATM   11  H7  UNL     1      26.949   2.612  53.927  1.00  0.00     0.166 HD
ENDROOT
BRANCH   7  12
HETATM   12  N3  UNL     1      24.326   2.987  50.046  1.00  0.00    -0.341 N 
HETATM   13  H9  UNL     1      23.802   2.410  49.327  1.00  0.00     0.167 HD
BRANCH  12  14
HETATM   14  C7  UNL     1      25.202   3.974  49.534  1.00  0.00     0.034 A 
HETATM   15  C8  UNL     1      26.553   3.711  49.368  1.00  0.00     0.029 A 
HETATM   16  C9  UNL     1      27.427   4.650  48.870  1.00  0.00     0.004 A 
HETATM   17  C10 UNL     1      27.005   5.912  48.506  1.00  0.00     0.019 A 
HETATM   18  C11 UNL     1      25.662   6.211  48.658  1.00  0.00     0.013 A 
HETATM   19 BR1  UNL     1      25.047   7.930  48.169  1.00  0.00    -0.051 Br
HETATM   20  C12 UNL     1      24.834   5.241  49.158  1.00  0.00     0.048 A 
ENDBRANCH  12  14
ENDBRANCH   7  12
BRANCH  10  21
HETATM   21  O2  UNL     1      23.759  -1.009  54.424  1.00  0.00    -0.388 OA
HETATM   22  C16 UNL     1      22.370  -0.900  54.490  1.00  0.00     0.202 C 
ENDBRANCH  10  21
BRANCH   1  23
HETATM   23  O1  UNL     1      26.324  -1.297  53.795  1.00  0.00    -0.384 OA
HETATM   24  C1  UNL     1      26.954  -1.936  52.757  1.00  0.00     0.202 C 
ENDBRANCH   1  23
TORSDOF 4
ENDMDL
MODEL 3
REMARK VINA RESULT:      -7.3      2.041      2.566
REMARK  4 active torsions:
REMARK  status: ('A' for Active; 'I' for Inactive)
REMARK    1  A    between atoms: O1_2  and  C2_3 
REMARK    2  A    between atoms: C6_9  and  N3_10 
REMARK    3  A    between atoms: N3_10  and  C7_11 
REMARK    4  A    between atoms: C15_20  and  O2_21 
ROOT
HETATM    1  C2  UNL     1      25.298   0.053  53.431  1.00  0.00     0.174 C 
HETATM    2  C3  UNL     1      26.119   0.631  52.369  1.00  0.00     0.024 C 
HETATM    3  C4  UNL     1      26.307   1.939  52.340  1.00  0.00     0.087 C 
HETATM    4  N1  UNL     1      25.723   2.779  53.323  1.00  0.00    -0.361 N 
HETATM    5  C5  UNL     1      24.471   3.399  53.390  1.00  0.00     0.209 C 
HETATM    6  N2  UNL     1      23.675   3.379  52.404  1.00  0.00    -0.227 NA
HETATM    7  C6  UNL     1      23.894   2.772  51.159  1.00  0.00     0.125 C 
HETATM    8  C13 UNL     1      23.538   1.496  51.391  1.00  0.00     0.026 C 
HETATM    9  C14 UNL     1      23.039   0.811  52.591  1.00  0.00     0.066 C 
HETATM   10  C15 UNL     1      23.904  -0.315  53.053  1.00  0.00     0.157 C 
HETATM   11  H7  UNL     1      26.514   2.803  53.999  1.00  0.00     0.166 HD
ENDROOT
BRANCH   7  12
HETATM   12  N3  UNL     1      24.332   3.077  49.846  1.00  0.00    -0.341 N 
HETATM   13  H9  UNL     1      24.113   2.330  49.127  1.00  0.00     0.167 HD
BRANCH  12  14
HETATM   14  C7  UNL     1      25.005   4.227  49.367  1.00  0.00     0.034 A 
HETATM   15  C8  UNL     1      24.315   5.402  49.113  1.00  0.00     0.029 A 
HETATM   16  C9  UNL     1      24.943   6.535  48.650  1.00  0.00     0.004 A 
HETATM   17  C10 UNL     1      26.301   6.565  48.411  1.00  0.00     0.019 A 
HETATM   18  C11 UNL     1      27.023   5.409  48.653  1.00  0.00     0.013 A 
HETATM   19 BR1  UNL     1      28.886   5.412  48.338  1.00  0.00    -0.051 Br
HETATM   20  C12 UNL     1      26.350   4.308  49.114  1.00  0.00     0.048 A 
ENDBRANCH  12  14
ENDBRANCH   7  12
BRANCH  10  21
HETATM   21  O2  UNL     1      23.297  -0.821  54.227  1.00  0.00    -0.388 OA
HETATM   22  C16 UNL     1      21.913  -0.660  54.165  1.00  0.00     0.202 C 
ENDBRANCH  10  21
BRANCH   1  23
HETATM   23  O1  UNL     1      25.916  -1.111  53.889  1.00  0.00    -0.384 OA
HETATM   24  C1  UNL     1      26.882  -1.609  53.051  1.00  0.00     0.202 C 
ENDBRANCH   1  23
TORSDOF 4
ENDMDL
MODEL 4
REMARK VINA RESULT:      -7.1      2.062      2.602
REMARK  4 active torsions:
REMARK  status: ('A' for Active; 'I' for Inactive)
REMARK    1  A    between atoms: O1_2  and  C2_3 
REMARK    2  A    between atoms: C6_9  and  N3_10 
REMARK    3  A    between atoms: N3_10  and  C7_11 
REMARK    4  A    between atoms: C15_20  and  O2_21 
ROOT
HETATM    1  C2  UNL     1      25.536  -0.038  53.371  1.00  0.00     0.174 C 
HETATM    2  C3  UNL     1      26.070   0.548  52.144  1.00  0.00     0.024 C 
HETATM    3  C4  UNL     1      26.176   1.863  52.051  1.00  0.00     0.087 C 
HETATM    4  N1  UNL     1      25.777   2.702  53.124  1.00  0.00    -0.361 N 
HETATM    5  C5  UNL     1      24.539   3.261  53.456  1.00  0.00     0.209 C 
HETATM    6  N2  UNL     1      23.548   3.172  52.671  1.00  0.00    -0.227 NA
HETATM    7  C6  UNL     1      23.520   2.541  51.419  1.00  0.00     0.125 C 
HETATM    8  C13 UNL     1      23.294   1.256  51.746  1.00  0.00     0.026 C 
HETATM    9  C14 UNL     1      23.110   0.583  53.038  1.00  0.00     0.066 C 
HETATM   10  C15 UNL     1      24.115  -0.486  53.317  1.00  0.00     0.157 C 
HETATM   11  H7  UNL     1      26.695   2.784  53.607  1.00  0.00     0.166 HD
ENDROOT
BRANCH   7  12
HETATM   12  N3  UNL     1      23.641   2.830  50.037  1.00  0.00    -0.341 N 
HETATM   13  H9  UNL     1      23.480   1.997  49.400  1.00  0.00     0.167 HD
BRANCH  12  14
HETATM   14  C7  UNL     1      23.935   4.057  49.396  1.00  0.00     0.034 A 
HETATM   15  C8  UNL     1      22.930   4.823  48.827  1.00  0.00     0.029 A 
HETATM   16  C9  UNL     1      23.186   6.021  48.202  1.00  0.00     0.004 A 
HETATM   17  C10 UNL     1      24.465   6.529  48.105  1.00  0.00     0.019 A 
HETATM   18  C11 UNL     1      25.495   5.792  48.661  1.00  0.00     0.013 A 
HETATM   19 BR1  UNL     1      27.260   6.457  48.549  1.00  0.00    -0.051 Br
HETATM   20  C12 UNL     1      25.187   4.606  49.274  1.00  0.00     0.048 A 
ENDBRANCH  12  14
ENDBRANCH   7  12
BRANCH  10  21
HETATM   21  O2  UNL     1      23.810  -0.986  54.605  1.00  0.00    -0.388 OA
HETATM   22  C16 UNL     1      22.430  -1.115  54.760  1.00  0.00     0.202 C 
ENDBRANCH  10  21
BRANCH   1  23
HETATM   23  O1  UNL     1      26.302  -1.156  53.701  1.00  0.00    -0.384 OA
HETATM   24  C1  UNL     1      27.480  -1.263  53.005  1.00  0.00     0.202 C 
ENDBRANCH   1  23
TORSDOF 4
ENDMDL
MODEL 5
REMARK VINA RESULT:      -6.9      4.242      6.791
REMARK  4 active torsions:
REMARK  status: ('A' for Active; 'I' for Inactive)
REMARK    1  A    between atoms: O1_2  and  C2_3 
REMARK    2  A    between atoms: C6_9  and  N3_10 
REMARK    3  A    between atoms: N3_10  and  C7_11 
REMARK    4  A    between atoms: C15_20  and  O2_21 
ROOT
HETATM    1  C2  UNL     1      21.647   4.418  51.063  1.00  0.00     0.174 C 
HETATM    2  C3  UNL     1      22.448   4.035  52.224  1.00  0.00     0.024 C 
HETATM    3  C4  UNL     1      23.487   4.778  52.563  1.00  0.00     0.087 C 
HETATM    4  N1  UNL     1      23.829   5.934  51.815  1.00  0.00    -0.361 N 
HETATM    5  C5  UNL     1      24.629   6.104  50.681  1.00  0.00     0.209 C 
HETATM    6  N2  UNL     1      25.322   5.149  50.217  1.00  0.00    -0.227 NA
HETATM    7  C6  UNL     1      25.400   3.843  50.725  1.00  0.00     0.125 C 
HETATM    8  C13 UNL     1      24.328   3.251  50.170  1.00  0.00     0.026 C 
HETATM    9  C14 UNL     1      23.285   3.745  49.260  1.00  0.00     0.066 C 
HETATM   10  C15 UNL     1      21.900   3.648  49.811  1.00  0.00     0.157 C 
HETATM   11  H7  UNL     1      23.298   6.640  52.366  1.00  0.00     0.166 HD
ENDROOT
BRANCH   7  12
HETATM   12  N3  UNL     1      26.204   3.035  51.566  1.00  0.00    -0.341 N 
HETATM   13  H9  UNL     1      27.104   3.496  51.886  1.00  0.00     0.167 HD
BRANCH  12  14
HETATM   14  C7  UNL     1      25.976   1.719  52.036  1.00  0.00     0.034 A 
HETATM   15  C8  UNL     1      26.944   0.736  51.900  1.00  0.00     0.029 A 
HETATM   16  C9  UNL     1      26.751  -0.549  52.350  1.00  0.00     0.004 A 
HETATM   17  C10 UNL     1      25.578  -0.933  52.966  1.00  0.00     0.019 A 
HETATM   18  C11 UNL     1      24.589   0.022  53.120  1.00  0.00     0.013 A 
HETATM   19 BR1  UNL     1      22.968  -0.467  53.959  1.00  0.00    -0.051 Br
HETATM   20  C12 UNL     1      24.830   1.288  52.654  1.00  0.00     0.048 A 
ENDBRANCH  12  14
ENDBRANCH   7  12
BRANCH  10  21
HETATM   21  O2  UNL     1      21.046   4.201  48.828  1.00  0.00    -0.388 OA
HETATM   22  C16 UNL     1      21.634   5.329  48.255  1.00  0.00     0.202 C 
ENDBRANCH  10  21
BRANCH   1  23
HETATM   23  O1  UNL     1      20.298   4.251  51.376  1.00  0.00    -0.384 OA
HETATM   24  C1  UNL     1      20.005   3.071  52.012  1.00  0.00     0.202 C 
ENDBRANCH   1  23
TORSDOF 4
ENDMDL
MODEL 6
REMARK VINA RESULT:      -6.6      5.995      8.550
REMARK  4 active torsions:
REMARK  status: ('A' for Active; 'I' for Inactive)
REMARK    1  A    between atoms: O1_2  and  C2_3 
REMARK    2  A    between atoms: C6_9  and  N3_10 
REMARK    3  A    between atoms: N3_10  and  C7_11 
REMARK    4  A    between atoms: C15_20  and  O2_21 
ROOT
HETATM    1  C2  UNL     1      33.526   5.342  45.717  1.00  0.00     0.174 C 
HETATM    2  C3  UNL     1      32.517   6.344  45.381  1.00  0.00     0.024 C 
HETATM    3  C4  UNL     1      32.286   7.334  46.227  1.00  0.00     0.087 C 
HETATM    4  N1  UNL     1      33.002   7.429  47.448  1.00  0.00    -0.361 N 
HETATM    5  C5  UNL     1      32.767   6.874  48.710  1.00  0.00     0.209 C 
HETATM    6  N2  UNL     1      31.690   6.256  48.964  1.00  0.00    -0.227 NA
HETATM    7  C6  UNL     1      30.620   6.034  48.084  1.00  0.00     0.125 C 
HETATM    8  C13 UNL     1      31.017   4.937  47.415  1.00  0.00     0.026 C 
HETATM    9  C14 UNL     1      32.229   4.110  47.502  1.00  0.00     0.066 C 
HETATM   10  C15 UNL     1      33.011   4.041  46.231  1.00  0.00     0.157 C 
HETATM   11  H7  UNL     1      33.776   8.046  47.127  1.00  0.00     0.166 HD
ENDROOT
BRANCH   7  12
HETATM   12  N3  UNL     1      29.357   6.568  47.729  1.00  0.00    -0.341 N 
HETATM   13  H9  UNL     1      29.399   7.361  47.025  1.00  0.00     0.167 HD
BRANCH  12  14
HETATM   14  C7  UNL     1      28.065   6.193  48.169  1.00  0.00     0.034 A 
HETATM   15  C8  UNL     1      26.969   7.011  47.940  1.00  0.00     0.029 A 
HETATM   16  C9  UNL     1      25.702   6.671  48.354  1.00  0.00     0.004 A 
HETATM   17  C10 UNL     1      25.450   5.491  49.023  1.00  0.00     0.019 A 
HETATM   18  C11 UNL     1      26.520   4.649  49.269  1.00  0.00     0.013 A 
HETATM   19 BR1  UNL     1      26.213   3.023  50.182  1.00  0.00    -0.051 Br
HETATM   20  C12 UNL     1      27.762   5.034  48.836  1.00  0.00     0.048 A 
ENDBRANCH  12  14
ENDBRANCH   7  12
BRANCH  10  21
HETATM   21  O2  UNL     1      34.149   3.248  46.512  1.00  0.00    -0.388 OA
HETATM   22  C16 UNL     1      34.592   3.482  47.813  1.00  0.00     0.202 C 
ENDBRANCH  10  21
BRANCH   1  23
HETATM   23  O1  UNL     1      34.272   5.060  44.573  1.00  0.00    -0.384 OA
HETATM   24  C1  UNL     1      33.521   4.801  43.454  1.00  0.00     0.202 C 
ENDBRANCH   1  23
TORSDOF 4
ENDMDL
MODEL 7
REMARK VINA RESULT:      -6.5      4.170      7.192
REMARK  4 active torsions:
REMARK  status: ('A' for Active; 'I' for Inactive)
REMARK    1  A    between atoms: O1_2  and  C2_3 
REMARK    2  A    between atoms: C6_9  and  N3_10 
REMARK    3  A    between atoms: N3_10  and  C7_11 
REMARK    4  A    between atoms: C15_20  and  O2_21 
ROOT
HETATM    1  C2  UNL     1      24.899   5.879  49.032  1.00  0.00     0.174 C 
HETATM    2  C3  UNL     1      25.767   4.941  49.740  1.00  0.00     0.024 C 
HETATM    3  C4  UNL     1      25.367   3.692  49.907  1.00  0.00     0.087 C 
HETATM    4  N1  UNL     1      24.109   3.260  49.411  1.00  0.00    -0.361 N 
HETATM    5  C5  UNL     1      22.829   3.288  49.972  1.00  0.00     0.209 C 
HETATM    6  N2  UNL     1      22.650   3.626  51.181  1.00  0.00    -0.227 NA
HETATM    7  C6  UNL     1      23.636   4.007  52.102  1.00  0.00     0.125 C 
HETATM    8  C13 UNL     1      23.801   5.313  51.828  1.00  0.00     0.026 C 
HETATM    9  C14 UNL     1      23.170   6.205  50.846  1.00  0.00     0.066 C 
HETATM   10  C15 UNL     1      24.129   6.829  49.885  1.00  0.00     0.157 C 
HETATM   11  H7  UNL     1      24.421   2.907  48.482  1.00  0.00     0.166 HD
ENDROOT
BRANCH   7  12
HETATM   12  N3  UNL     1      24.432   3.475  53.147  1.00  0.00    -0.341 N 
HETATM   13  H9  UNL     1      24.585   4.137  53.961  1.00  0.00     0.167 HD
BRANCH  12  14
HETATM   14  C7  UNL     1      25.036   2.200  53.258  1.00  0.00     0.034 A 
HETATM   15  C8  UNL     1      24.295   1.042  53.081  1.00  0.00     0.029 A 
HETATM   16  C9  UNL     1      24.856  -0.210  53.179  1.00  0.00     0.004 A 
HETATM   17  C10 UNL     1      26.195  -0.384  53.460  1.00  0.00     0.019 A 
HETATM   18  C11 UNL     1      26.967   0.749  53.643  1.00  0.00     0.013 A 
HETATM   19 BR1  UNL     1      28.807   0.550  54.029  1.00  0.00    -0.051 Br
HETATM   20  C12 UNL     1      26.360   1.973  53.534  1.00  0.00     0.048 A 
ENDBRANCH  12  14
ENDBRANCH   7  12
BRANCH  10  21
HETATM   21  O2  UNL     1      23.347   7.610  49.001  1.00  0.00    -0.388 OA
HETATM   22  C16 UNL     1      22.278   8.190  49.684  1.00  0.00     0.202 C 
ENDBRANCH  10  21
BRANCH   1  23
HETATM   23  O1  UNL     1      25.681   6.649  48.171  1.00  0.00    -0.384 OA
HETATM   24  C1  UNL     1      26.925   6.961  48.660  1.00  0.00     0.202 C 
ENDBRANCH   1  23
TORSDOF 4
ENDMDL
MODEL 8
REMARK VINA RESULT:      -6.4      3.236      3.715
REMARK  4 active torsions:
REMARK  status: ('A' for Active; 'I' for Inactive)
REMARK    1  A    between atoms: O1_2  and  C2_3 
REMARK    2  A    between atoms: C6_9  and  N3_10 
REMARK    3  A    between atoms: N3_10  and  C7_11 
REMARK    4  A    between atoms: C15_20  and  O2_21 
ROOT
HETATM    1  C2  UNL     1      25.065   0.454  53.338  1.00  0.00     0.174 C 
HETATM    2  C3  UNL     1      25.638   0.904  52.072  1.00  0.00     0.024 C 
HETATM    3  C4  UNL     1      25.574   2.186  51.755  1.00  0.00     0.087 C 
HETATM    4  N1  UNL     1      24.958   3.120  52.628  1.00  0.00    -0.361 N 
HETATM    5  C5  UNL     1      23.628   3.533  52.758  1.00  0.00     0.209 C 
HETATM    6  N2  UNL     1      22.744   3.168  51.926  1.00  0.00    -0.227 NA
HETATM    7  C6  UNL     1      22.930   2.343  50.808  1.00  0.00     0.125 C 
HETATM    8  C13 UNL     1      22.848   1.110  51.339  1.00  0.00     0.026 C 
HETATM    9  C14 UNL     1      22.624   0.638  52.712  1.00  0.00     0.066 C 
HETATM   10  C15 UNL     1      23.730  -0.205  53.255  1.00  0.00     0.157 C 
HETATM   11  H7  UNL     1      25.802   3.419  53.159  1.00  0.00     0.166 HD
ENDROOT
BRANCH   7  12
HETATM   12  N3  UNL     1      23.152   2.415  49.410  1.00  0.00    -0.341 N 
HETATM   13  H9  UNL     1      23.578   1.540  48.989  1.00  0.00     0.167 HD
BRANCH  12  14
HETATM   14  C7  UNL     1      22.883   3.474  48.510  1.00  0.00     0.034 A 
HETATM   15  C8  UNL     1      23.318   4.763  48.776  1.00  0.00     0.029 A 
HETATM   16  C9  UNL     1      23.075   5.810  47.918  1.00  0.00     0.004 A 
HETATM   17  C10 UNL     1      22.381   5.635  46.739  1.00  0.00     0.019 A 
HETATM   18  C11 UNL     1      21.931   4.361  46.440  1.00  0.00     0.013 A 
HETATM   19 BR1  UNL     1      20.977   4.082  44.832  1.00  0.00    -0.051 Br
HETATM   20  C12 UNL     1      22.200   3.352  47.327  1.00  0.00     0.048 A 
ENDBRANCH  12  14
ENDBRANCH   7  12
BRANCH  10  21
HETATM   21  O2  UNL     1      23.365  -0.528  54.583  1.00  0.00    -0.388 OA
HETATM   22  C16 UNL     1      22.014  -0.869  54.644  1.00  0.00     0.202 C 
ENDBRANCH  10  21
BRANCH   1  23
HETATM   23  O1  UNL     1      25.937  -0.466  53.920  1.00  0.00    -0.384 OA
HETATM   24  C1  UNL     1      26.914   0.095  54.704  1.00  0.00     0.202 C 
ENDBRANCH   1  23
TORSDOF 4
ENDMDL
MODEL 9
REMARK VINA RESULT:      -6.4      7.010      8.411
REMARK  4 active torsions:
REMARK  status: ('A' for Active; 'I' for Inactive)
REMARK    1  A    between atoms: O1_2  and  C2_3 
REMARK    2  A    between atoms: C6_9  and  N3_10 
REMARK    3  A    between atoms: N3_10  and  C7_11 
REMARK    4  A    between atoms: C15_20  and  O2_21 
ROOT
HETATM    1  C2  UNL     1      31.821   5.531  48.061  1.00  0.00     0.174 C 
HETATM    2  C3  UNL     1      30.432   5.763  48.449  1.00  0.00     0.024 C 
HETATM    3  C4  UNL     1      29.727   6.678  47.806  1.00  0.00     0.087 C 
HETATM    4  N1  UNL     1      30.306   7.432  46.752  1.00  0.00    -0.361 N 
HETATM    5  C5  UNL     1      31.039   8.623  46.755  1.00  0.00     0.209 C 
HETATM    6  N2  UNL     1      31.174   9.308  47.813  1.00  0.00    -0.227 NA
HETATM    7  C6  UNL     1      30.649   9.011  49.079  1.00  0.00     0.125 C 
HETATM    8  C13 UNL     1      31.567   8.168  49.584  1.00  0.00     0.026 C 
HETATM    9  C14 UNL     1      32.823   7.633  49.041  1.00  0.00     0.066 C 
HETATM   10  C15 UNL     1      32.857   6.143  48.941  1.00  0.00     0.157 C 
HETATM   11  H7  UNL     1      30.021   6.828  45.954  1.00  0.00     0.166 HD
ENDROOT
BRANCH   7  12
HETATM   12  N3  UNL     1      29.544   9.315  49.912  1.00  0.00    -0.341 N 
HETATM   13  H9  UNL     1      29.775   9.364  50.946  1.00  0.00     0.167 HD
BRANCH  12  14
HETATM   14  C7  UNL     1      28.195   9.564  49.563  1.00  0.00     0.034 A 
HETATM   15  C8  UNL     1      27.863  10.588  48.690  1.00  0.00     0.029 A 
HETATM   16  C9  UNL     1      26.562  10.851  48.330  1.00  0.00     0.004 A 
HETATM   17  C10 UNL     1      25.509  10.106  48.819  1.00  0.00     0.019 A 
HETATM   18  C11 UNL     1      25.803   9.074  49.693  1.00  0.00     0.013 A 
HETATM   19 BR1  UNL     1      24.386   8.030  50.384  1.00  0.00    -0.051 Br
HETATM   20  C12 UNL     1      27.115   8.853  50.020  1.00  0.00     0.048 A 
ENDBRANCH  12  14
ENDBRANCH   7  12
BRANCH  10  21
HETATM   21  O2  UNL     1      34.108   5.816  48.365  1.00  0.00    -0.388 OA
HETATM   22  C16 UNL     1      34.955   6.923  48.387  1.00  0.00     0.202 C 
ENDBRANCH  10  21
BRANCH   1  23
HETATM   23  O1  UNL     1      32.058   4.156  48.051  1.00  0.00    -0.384 OA
HETATM   24  C1  UNL     1      31.892   3.559  46.827  1.00  0.00     0.202 C 
ENDBRANCH   1  23
TORSDOF 4
ENDMDL
