MODEL 1
REMARK VINA RESULT:      -8.6      0.000      0.000
REMARK  4 active torsions:
REMARK  status: ('A' for Active; 'I' for Inactive)
REMARK    1  A    between atoms: O1_2  and  C2_3 
REMARK    2  A    between atoms: C2_3  and  C3_4 
REMARK    3  A    between atoms: C3_4  and  O2_5 
REMARK    4  A    between atoms: O2_5  and  C4_6 
ROOT
HETATM    1  C4  UNL     1      26.969   1.463  53.400  1.00  0.00     0.071 A 
HETATM    2  C5  UNL     1      27.090   2.047  52.167  1.00  0.00     0.038 A 
HETATM    3  C6  UNL     1      25.955   2.173  51.400  1.00  0.00     0.018 A 
HETATM    4  C7  UNL     1      24.767   1.704  51.920  1.00  0.00     0.015 A 
HETATM    5  C8  UNL     1      24.600   1.111  53.153  1.00  0.00     0.083 A 
HETATM    6  C9  UNL     1      25.759   1.009  53.879  1.00  0.00     0.074 A 
HETATM    7  O3  UNL     1      23.520   0.683  53.632  1.00  0.00    -0.348 OA
HETATM    8  C10 UNL     1      22.411   0.243  54.125  1.00  0.00     0.203 C 
HETATM    9  C11 UNL     1      22.355  -1.283  54.261  1.00  0.00     0.214 C 
HETATM   10  O4  UNL     1      21.006  -1.606  54.770  1.00  0.00    -0.301 OA
HETATM   11  C12 UNL     1      20.112  -1.133  53.871  1.00  0.00     0.059 C 
HETATM   12  C13 UNL     1      19.395  -0.736  53.125  1.00  0.00    -0.037 C 
HETATM   13  C14 UNL     1      18.542  -0.240  52.210  1.00  0.00     0.022 A 
HETATM   14  C15 UNL     1      17.260  -0.021  51.939  1.00  0.00     0.021 A 
HETATM   15  C16 UNL     1      17.041   0.654  50.771  1.00  0.00     0.004 A 
HETATM   16  C17 UNL     1      18.016   1.092  49.912  1.00  0.00     0.029 A 
HETATM   17  C18 UNL     1      19.350   0.882  50.163  1.00  0.00     0.030 A 
HETATM   18  C19 UNL     1      19.599   0.180  51.370  1.00  0.00     0.050 A 
HETATM   19  N1  UNL     1      20.590   1.237  49.499  1.00  0.00    -0.375 N 
HETATM   20  C20 UNL     1      21.355   2.117  50.360  1.00  0.00     0.232 C 
HETATM   21  N2  UNL     1      22.789   2.078  50.100  1.00  0.00    -0.405 NA
HETATM   22  C21 UNL     1      23.656   1.898  51.010  1.00  0.00     0.290 C 
HETATM   23  H19 UNL     1      20.312   0.657  48.686  1.00  0.00     0.161 HD
ENDROOT
BRANCH   1  24
HETATM   24  O2  UNL     1      28.101   1.335  54.173  1.00  0.00    -0.349 OA
BRANCH  24  25
HETATM   25  C3  UNL     1      28.450   0.043  54.656  1.00  0.00     0.201 C 
BRANCH  25  26
HETATM   26  C2  UNL     1      29.102  -0.773  53.592  1.00  0.00     0.193 C 
BRANCH  26  27
HETATM   27  O1  UNL     1      28.571  -2.036  53.507  1.00  0.00    -0.394 OA
HETATM   28  C1  UNL     1      27.426  -2.111  52.741  1.00  0.00     0.201 C 
ENDBRANCH  26  27
ENDBRANCH  25  26
ENDBRANCH  24  25
ENDBRANCH   1  24
TORSDOF 4
ENDMDL
MODEL 2
REMARK VINA RESULT:      -8.5      2.060      3.326
REMARK  4 active torsions:
REMARK  status: ('A' for Active; 'I' for Inactive)
REMARK    1  A    between atoms: O1_2  and  C2_3 
REMARK    2  A    between atoms: C2_3  and  C3_4 
REMARK    3  A    between atoms: C3_4  and  O2_5 
REMARK    4  A    between atoms: O2_5  and  C4_6 
ROOT
HETATM    1  C4  UNL     1      27.019   0.918  53.602  1.00  0.00     0.071 A 
HETATM    2  C5  UNL     1      26.782   0.126  54.694  1.00  0.00     0.038 A 
HETATM    3  C6  UNL     1      25.514  -0.385  54.856  1.00  0.00     0.018 A 
HETATM    4  C7  UNL     1      24.563  -0.068  53.908  1.00  0.00     0.015 A 
HETATM    5  C8  UNL     1      24.759   0.722  52.796  1.00  0.00     0.083 A 
HETATM    6  C9  UNL     1      26.036   1.206  52.680  1.00  0.00     0.074 A 
HETATM    7  O3  UNL     1      23.897   1.013  51.929  1.00  0.00    -0.348 OA
HETATM    8  C10 UNL     1      23.012   1.312  51.038  1.00  0.00     0.203 C 
HETATM    9  C11 UNL     1      22.601   2.789  51.044  1.00  0.00     0.214 C 
HETATM   10  O4  UNL     1      21.546   2.930  50.019  1.00  0.00    -0.301 OA
HETATM   11  C12 UNL     1      20.529   2.110  50.371  1.00  0.00     0.059 C 
HETATM   12  C13 UNL     1      19.710   1.429  50.674  1.00  0.00    -0.037 C 
HETATM   13  C14 UNL     1      18.728   0.591  51.057  1.00  0.00     0.022 A 
HETATM   14  C15 UNL     1      17.561   0.065  50.703  1.00  0.00     0.021 A 
HETATM   15  C16 UNL     1      17.078  -0.868  51.576  1.00  0.00     0.004 A 
HETATM   16  C17 UNL     1      17.696  -1.270  52.732  1.00  0.00     0.029 A 
HETATM   17  C18 UNL     1      18.903  -0.746  53.127  1.00  0.00     0.030 A 
HETATM   18  C19 UNL     1      19.421   0.228  52.235  1.00  0.00     0.050 A 
HETATM   19  N1  UNL     1      19.809  -0.973  54.237  1.00  0.00    -0.375 N 
HETATM   20  C20 UNL     1      21.068  -1.480  53.728  1.00  0.00     0.232 C 
HETATM   21  N2  UNL     1      22.200  -1.206  54.604  1.00  0.00    -0.405 NA
HETATM   22  C21 UNL     1      23.277  -0.669  54.201  1.00  0.00     0.290 C 
HETATM   23  H19 UNL     1      19.077  -0.643  54.893  1.00  0.00     0.161 HD
ENDROOT
BRANCH   1  24
HETATM   24  O2  UNL     1      28.286   1.430  53.435  1.00  0.00    -0.349 OA
BRANCH  24  25
HETATM   25  C3  UNL     1      29.346   0.882  54.207  1.00  0.00     0.201 C 
BRANCH  25  26
HETATM   26  C2  UNL     1      30.077  -0.174  53.449  1.00  0.00     0.193 C 
BRANCH  26  27
HETATM   27  O1  UNL     1      29.856  -1.429  53.960  1.00  0.00    -0.394 OA
HETATM   28  C1  UNL     1      29.100  -2.242  53.142  1.00  0.00     0.201 C 
ENDBRANCH  26  27
ENDBRANCH  25  26
ENDBRANCH  24  25
ENDBRANCH   1  24
TORSDOF 4
ENDMDL
MODEL 3
REMARK VINA RESULT:      -8.3      3.697      5.647
REMARK  4 active torsions:
REMARK  status: ('A' for Active; 'I' for Inactive)
REMARK    1  A    between atoms: O1_2  and  C2_3 
REMARK    2  A    between atoms: C2_3  and  C3_4 
REMARK    3  A    between atoms: C3_4  and  O2_5 
REMARK    4  A    between atoms: O2_5  and  C4_6 
ROOT
HETATM    1  C4  UNL     1      26.681   5.510  48.795  1.00  0.00     0.071 A 
HETATM    2  C5  UNL     1      25.445   5.985  48.439  1.00  0.00     0.038 A 
HETATM    3  C6  UNL     1      24.342   5.414  49.032  1.00  0.00     0.018 A 
HETATM    4  C7  UNL     1      24.549   4.403  49.947  1.00  0.00     0.015 A 
HETATM    5  C8  UNL     1      25.772   3.897  50.333  1.00  0.00     0.083 A 
HETATM    6  C9  UNL     1      26.839   4.497  49.715  1.00  0.00     0.074 A 
HETATM    7  O3  UNL     1      25.966   2.977  51.167  1.00  0.00    -0.348 OA
HETATM    8  C10 UNL     1      26.167   2.032  52.023  1.00  0.00     0.203 C 
HETATM    9  C11 UNL     1      26.712   0.740  51.403  1.00  0.00     0.214 C 
HETATM   10  O4  UNL     1      26.814  -0.239  52.506  1.00  0.00    -0.301 OA
HETATM   11  C12 UNL     1      25.572  -0.396  53.021  1.00  0.00     0.059 C 
HETATM   12  C13 UNL     1      24.549  -0.508  53.431  1.00  0.00    -0.037 C 
HETATM   13  C14 UNL     1      23.300  -0.624  53.918  1.00  0.00     0.022 A 
HETATM   14  C15 UNL     1      22.566  -1.166  54.885  1.00  0.00     0.021 A 
HETATM   15  C16 UNL     1      21.250  -0.800  54.861  1.00  0.00     0.004 A 
HETATM   16  C17 UNL     1      20.676   0.046  53.947  1.00  0.00     0.029 A 
HETATM   17  C18 UNL     1      21.407   0.622  52.936  1.00  0.00     0.030 A 
HETATM   18  C19 UNL     1      22.777   0.253  52.941  1.00  0.00     0.050 A 
HETATM   19  N1  UNL     1      21.121   1.557  51.865  1.00  0.00    -0.375 N 
HETATM   20  C20 UNL     1      21.893   2.767  52.071  1.00  0.00     0.232 C 
HETATM   21  N2  UNL     1      22.149   3.508  50.842  1.00  0.00    -0.405 NA
HETATM   22  C21 UNL     1      23.306   3.894  50.492  1.00  0.00     0.290 C 
HETATM   23  H19 UNL     1      20.467   0.869  51.448  1.00  0.00     0.161 HD
ENDROOT
BRANCH   1  24
HETATM   24  O2  UNL     1      27.788   6.078  48.205  1.00  0.00    -0.349 OA
BRANCH  24  25
HETATM   25  C3  UNL     1      28.990   5.320  48.152  1.00  0.00     0.201 C 
BRANCH  25  26
HETATM   26  C2  UNL     1      30.170   6.152  48.526  1.00  0.00     0.193 C 
BRANCH  26  27
HETATM   27  O1  UNL     1      31.249   5.387  48.895  1.00  0.00    -0.394 OA
HETATM   28  C1  UNL     1      31.885   4.770  47.840  1.00  0.00     0.201 C 
ENDBRANCH  26  27
ENDBRANCH  25  26
ENDBRANCH  24  25
ENDBRANCH   1  24
TORSDOF 4
ENDMDL
MODEL 4
REMARK VINA RESULT:      -8.2      2.189      7.701
REMARK  4 active torsions:
REMARK  status: ('A' for Active; 'I' for Inactive)
REMARK    1  A    between atoms: O1_2  and  C2_3 
REMARK    2  A    between atoms: C2_3  and  C3_4 
REMARK    3  A    between atoms: C3_4  and  O2_5 
REMARK    4  A    between atoms: O2_5  and  C4_6 
ROOT
HETATM    1  C4  UNL     1      19.232   0.809  50.621  1.00  0.00     0.071 A 
HETATM    2  C5  UNL     1      19.638   1.906  49.907  1.00  0.00     0.038 A 
HETATM    3  C6  UNL     1      20.941   2.322  50.052  1.00  0.00     0.018 A 
HETATM    4  C7  UNL     1      21.757   1.609  50.907  1.00  0.00     0.015 A 
HETATM    5  C8  UNL     1      21.390   0.503  51.643  1.00  0.00     0.083 A 
HETATM    6  C9  UNL     1      20.083   0.128  51.464  1.00  0.00     0.074 A 
HETATM    7  O3  UNL     1      22.129  -0.150  52.422  1.00  0.00    -0.348 OA
HETATM    8  C10 UNL     1      22.887  -0.821  53.222  1.00  0.00     0.203 C 
HETATM    9  C11 UNL     1      22.501  -0.688  54.700  1.00  0.00     0.214 C 
HETATM   10  O4  UNL     1      23.505  -1.458  55.463  1.00  0.00    -0.301 OA
HETATM   11  C12 UNL     1      24.717  -0.918  55.194  1.00  0.00     0.059 C 
HETATM   12  C13 UNL     1      25.700  -0.464  54.958  1.00  0.00    -0.037 C 
HETATM   13  C14 UNL     1      26.884   0.098  54.652  1.00  0.00     0.022 A 
HETATM   14  C15 UNL     1      28.200  -0.012  54.803  1.00  0.00     0.021 A 
HETATM   15  C16 UNL     1      28.923   0.918  54.112  1.00  0.00     0.004 A 
HETATM   16  C17 UNL     1      28.397   1.903  53.317  1.00  0.00     0.029 A 
HETATM   17  C18 UNL     1      27.041   2.044  53.140  1.00  0.00     0.030 A 
HETATM   18  C19 UNL     1      26.271   1.088  53.852  1.00  0.00     0.050 A 
HETATM   19  N1  UNL     1      26.192   2.927  52.364  1.00  0.00    -0.375 N 
HETATM   20  C20 UNL     1      25.462   2.145  51.385  1.00  0.00     0.232 C 
HETATM   21  N2  UNL     1      24.211   2.765  50.965  1.00  0.00    -0.405 NA
HETATM   22  C21 UNL     1      23.099   2.155  50.965  1.00  0.00     0.290 C 
HETATM   23  H19 UNL     1      26.537   3.733  52.916  1.00  0.00     0.161 HD
ENDROOT
BRANCH   1  24
HETATM   24  O2  UNL     1      17.928   0.388  50.479  1.00  0.00    -0.349 OA
BRANCH  24  25
HETATM   25  C3  UNL     1      17.029   0.593  51.561  1.00  0.00     0.201 C 
BRANCH  25  26
HETATM   26  C2  UNL     1      16.582  -0.705  52.145  1.00  0.00     0.193 C 
BRANCH  26  27
HETATM   27  O1  UNL     1      17.073  -0.902  53.411  1.00  0.00    -0.394 OA
HETATM   28  C1  UNL     1      17.838  -2.042  53.544  1.00  0.00     0.201 C 
ENDBRANCH  26  27
ENDBRANCH  25  26
ENDBRANCH  24  25
ENDBRANCH   1  24
TORSDOF 4
ENDMDL
MODEL 5
REMARK VINA RESULT:      -8.2      2.930      8.729
REMARK  4 active torsions:
REMARK  status: ('A' for Active; 'I' for Inactive)
REMARK    1  A    between atoms: O1_2  and  C2_3 
REMARK    2  A    between atoms: C2_3  and  C3_4 
REMARK    3  A    between atoms: C3_4  and  O2_5 
REMARK    4  A    between atoms: O2_5  and  C4_6 
ROOT
HETATM    1  C4  UNL     1      19.071   0.623  52.152  1.00  0.00     0.071 A 
HETATM    2  C5  UNL     1      19.119  -0.500  52.935  1.00  0.00     0.038 A 
HETATM    3  C6  UNL     1      20.330  -0.848  53.488  1.00  0.00     0.018 A 
HETATM    4  C7  UNL     1      21.419  -0.045  53.220  1.00  0.00     0.015 A 
HETATM    5  C8  UNL     1      21.415   1.092  52.440  1.00  0.00     0.083 A 
HETATM    6  C9  UNL     1      20.187   1.396  51.913  1.00  0.00     0.074 A 
HETATM    7  O3  UNL     1      22.404   1.828  52.194  1.00  0.00    -0.348 OA
HETATM    8  C10 UNL     1      23.418   2.585  51.941  1.00  0.00     0.203 C 
HETATM    9  C11 UNL     1      23.879   2.535  50.479  1.00  0.00     0.214 C 
HETATM   10  O4  UNL     1      25.075   3.398  50.392  1.00  0.00    -0.301 OA
HETATM   11  C12 UNL     1      25.999   2.894  51.243  1.00  0.00     0.059 C 
HETATM   12  C13 UNL     1      26.740   2.469  51.947  1.00  0.00    -0.037 C 
HETATM   13  C14 UNL     1      27.624   1.940  52.814  1.00  0.00     0.022 A 
HETATM   14  C15 UNL     1      28.810   2.117  53.387  1.00  0.00     0.021 A 
HETATM   15  C16 UNL     1      29.126   1.174  54.323  1.00  0.00     0.004 A 
HETATM   16  C17 UNL     1      28.334   0.115  54.685  1.00  0.00     0.029 A 
HETATM   17  C18 UNL     1      27.103  -0.096  54.111  1.00  0.00     0.030 A 
HETATM   18  C19 UNL     1      26.756   0.871  53.133  1.00  0.00     0.050 A 
HETATM   19  N1  UNL     1      26.039  -1.066  54.289  1.00  0.00    -0.375 N 
HETATM   20  C20 UNL     1      24.848  -0.385  54.759  1.00  0.00     0.232 C 
HETATM   21  N2  UNL     1      23.613  -1.086  54.431  1.00  0.00    -0.405 NA
HETATM   22  C21 UNL     1      22.626  -0.526  53.862  1.00  0.00     0.290 C 
HETATM   23  H19 UNL     1      26.681  -1.817  53.976  1.00  0.00     0.161 HD
ENDROOT
BRANCH   1  24
HETATM   24  O2  UNL     1      17.862   0.977  51.597  1.00  0.00    -0.349 OA
BRANCH  24  25
HETATM   25  C3  UNL     1      17.682   2.319  51.164  1.00  0.00     0.201 C 
BRANCH  25  26
HETATM   26  C2  UNL     1      16.357   2.853  51.594  1.00  0.00     0.193 C 
BRANCH  26  27
HETATM   27  O1  UNL     1      16.479   3.889  52.487  1.00  0.00    -0.394 OA
HETATM   28  C1  UNL     1      15.286   4.282  53.055  1.00  0.00     0.201 C 
ENDBRANCH  26  27
ENDBRANCH  25  26
ENDBRANCH  24  25
ENDBRANCH   1  24
TORSDOF 4
ENDMDL
MODEL 6
REMARK VINA RESULT:      -8.0      4.980      7.241
REMARK  4 active torsions:
REMARK  status: ('A' for Active; 'I' for Inactive)
REMARK    1  A    between atoms: O1_2  and  C2_3 
REMARK    2  A    between atoms: C2_3  and  C3_4 
REMARK    3  A    between atoms: C3_4  and  O2_5 
REMARK    4  A    between atoms: O2_5  and  C4_6 
ROOT
HETATM    1  C4  UNL     1      26.140   7.009  47.913  1.00  0.00     0.071 A 
HETATM    2  C5  UNL     1      27.375   6.455  48.131  1.00  0.00     0.038 A 
HETATM    3  C6  UNL     1      27.441   5.313  48.895  1.00  0.00     0.018 A 
HETATM    4  C7  UNL     1      26.263   4.797  49.393  1.00  0.00     0.015 A 
HETATM    5  C8  UNL     1      25.003   5.321  49.198  1.00  0.00     0.083 A 
HETATM    6  C9  UNL     1      24.989   6.457  48.431  1.00  0.00     0.074 A 
HETATM    7  O3  UNL     1      23.926   4.854  49.648  1.00  0.00    -0.348 OA
HETATM    8  C10 UNL     1      22.819   4.376  50.109  1.00  0.00     0.203 C 
HETATM    9  C11 UNL     1      22.161   5.257  51.178  1.00  0.00     0.214 C 
HETATM   10  O4  UNL     1      20.959   4.529  51.634  1.00  0.00    -0.301 OA
HETATM   11  C12 UNL     1      21.372   3.338  52.127  1.00  0.00     0.059 C 
HETATM   12  C13 UNL     1      21.729   2.367  52.523  1.00  0.00    -0.037 C 
HETATM   13  C14 UNL     1      22.184   1.190  52.992  1.00  0.00     0.022 A 
HETATM   14  C15 UNL     1      21.816   0.003  53.464  1.00  0.00     0.021 A 
HETATM   15  C16 UNL     1      22.854  -0.850  53.706  1.00  0.00     0.004 A 
HETATM   16  C17 UNL     1      24.180  -0.566  53.502  1.00  0.00     0.029 A 
HETATM   17  C18 UNL     1      24.593   0.651  53.016  1.00  0.00     0.030 A 
HETATM   18  C19 UNL     1      23.529   1.553  52.760  1.00  0.00     0.050 A 
HETATM   19  N1  UNL     1      25.873   1.237  52.665  1.00  0.00    -0.375 N 
HETATM   20  C20 UNL     1      25.888   1.530  51.245  1.00  0.00     0.232 C 
HETATM   21  N2  UNL     1      26.813   2.597  50.883  1.00  0.00    -0.405 NA
HETATM   22  C21 UNL     1      26.478   3.598  50.179  1.00  0.00     0.290 C 
HETATM   23  H19 UNL     1      26.173   1.158  53.654  1.00  0.00     0.161 HD
ENDROOT
BRANCH   1  24
HETATM   24  O2  UNL     1      26.068   8.151  47.148  1.00  0.00    -0.349 OA
BRANCH  24  25
HETATM   25  C3  UNL     1      26.748   9.315  47.602  1.00  0.00     0.201 C 
BRANCH  25  26
HETATM   26  C2  UNL     1      26.025   9.954  48.739  1.00  0.00     0.193 C 
BRANCH  26  27
HETATM   27  O1  UNL     1      26.840  10.157  49.825  1.00  0.00    -0.394 OA
HETATM   28  C1  UNL     1      28.128   9.696  49.652  1.00  0.00     0.201 C 
ENDBRANCH  26  27
ENDBRANCH  25  26
ENDBRANCH  24  25
ENDBRANCH   1  24
TORSDOF 4
ENDMDL
MODEL 7
REMARK VINA RESULT:      -7.9      2.399      3.988
REMARK  4 active torsions:
REMARK  status: ('A' for Active; 'I' for Inactive)
REMARK    1  A    between atoms: O1_2  and  C2_3 
REMARK    2  A    between atoms: C2_3  and  C3_4 
REMARK    3  A    between atoms: C3_4  and  O2_5 
REMARK    4  A    between atoms: O2_5  and  C4_6 
ROOT
HETATM    1  C4  UNL     1      24.933  -0.110  54.030  1.00  0.00     0.071 A 
HETATM    2  C5  UNL     1      24.518  -0.833  55.118  1.00  0.00     0.038 A 
HETATM    3  C6  UNL     1      23.213  -1.266  55.142  1.00  0.00     0.018 A 
HETATM    4  C7  UNL     1      22.404  -0.946  54.071  1.00  0.00     0.015 A 
HETATM    5  C8  UNL     1      22.780  -0.224  52.959  1.00  0.00     0.083 A 
HETATM    6  C9  UNL     1      24.089   0.185  52.982  1.00  0.00     0.074 A 
HETATM    7  O3  UNL     1      22.048   0.069  51.980  1.00  0.00    -0.348 OA
HETATM    8  C10 UNL     1      21.298   0.370  50.975  1.00  0.00     0.203 C 
HETATM    9  C11 UNL     1      20.977   1.865  50.866  1.00  0.00     0.214 C 
HETATM   10  O4  UNL     1      20.065   2.012  49.713  1.00  0.00    -0.301 OA
HETATM   11  C12 UNL     1      18.966   1.265  49.971  1.00  0.00     0.059 C 
HETATM   12  C13 UNL     1      18.077   0.645  50.198  1.00  0.00    -0.037 C 
HETATM   13  C14 UNL     1      17.009  -0.120  50.492  1.00  0.00     0.022 A 
HETATM   14  C15 UNL     1      15.864  -0.600  50.018  1.00  0.00     0.021 A 
HETATM   15  C16 UNL     1      15.224  -1.461  50.863  1.00  0.00     0.004 A 
HETATM   16  C17 UNL     1      15.672  -1.837  52.104  1.00  0.00     0.029 A 
HETATM   17  C18 UNL     1      16.851  -1.359  52.622  1.00  0.00     0.030 A 
HETATM   18  C19 UNL     1      17.530  -0.460  51.761  1.00  0.00     0.050 A 
HETATM   19  N1  UNL     1      17.600  -1.579  53.845  1.00  0.00    -0.375 N 
HETATM   20  C20 UNL     1      18.880  -2.178  53.518  1.00  0.00     0.232 C 
HETATM   21  N2  UNL     1      19.911  -1.921  54.516  1.00  0.00    -0.405 NA
HETATM   22  C21 UNL     1      21.059  -1.463  54.227  1.00  0.00     0.290 C 
HETATM   23  H19 UNL     1      16.814  -1.179  54.390  1.00  0.00     0.161 HD
ENDROOT
BRANCH   1  24
HETATM   24  O2  UNL     1      26.239   0.326  54.000  1.00  0.00    -0.349 OA
BRANCH  24  25
HETATM   25  C3  UNL     1      27.020   0.046  52.845  1.00  0.00     0.201 C 
BRANCH  25  26
HETATM   26  C2  UNL     1      27.793  -1.218  53.009  1.00  0.00     0.193 C 
BRANCH  26  27
HETATM   27  O1  UNL     1      28.695  -1.147  54.041  1.00  0.00    -0.394 OA
HETATM   28  C1  UNL     1      29.955  -0.739  53.656  1.00  0.00     0.201 C 
ENDBRANCH  26  27
ENDBRANCH  25  26
ENDBRANCH  24  25
ENDBRANCH   1  24
TORSDOF 4
ENDMDL
MODEL 8
REMARK VINA RESULT:      -7.9      4.150      6.405
REMARK  4 active torsions:
REMARK  status: ('A' for Active; 'I' for Inactive)
REMARK    1  A    between atoms: O1_2  and  C2_3 
REMARK    2  A    between atoms: C2_3  and  C3_4 
REMARK    3  A    between atoms: C3_4  and  O2_5 
REMARK    4  A    between atoms: O2_5  and  C4_6 
ROOT
HETATM    1  C4  UNL     1      25.766   5.922  48.794  1.00  0.00     0.071 A 
HETATM    2  C5  UNL     1      24.505   6.105  48.289  1.00  0.00     0.038 A 
HETATM    3  C6  UNL     1      23.490   5.324  48.792  1.00  0.00     0.018 A 
HETATM    4  C7  UNL     1      23.806   4.405  49.772  1.00  0.00     0.015 A 
HETATM    5  C8  UNL     1      25.057   4.189  50.308  1.00  0.00     0.083 A 
HETATM    6  C9  UNL     1      26.033   4.991  49.775  1.00  0.00     0.074 A 
HETATM    7  O3  UNL     1      25.349   3.355  51.202  1.00  0.00    -0.348 OA
HETATM    8  C10 UNL     1      25.651   2.499  52.119  1.00  0.00     0.203 C 
HETATM    9  C11 UNL     1      26.526   1.342  51.624  1.00  0.00     0.214 C 
HETATM   10  O4  UNL     1      26.711   0.438  52.779  1.00  0.00    -0.301 OA
HETATM   11  C12 UNL     1      25.482   0.027  53.169  1.00  0.00     0.059 C 
HETATM   12  C13 UNL     1      24.468  -0.295  53.476  1.00  0.00    -0.037 C 
HETATM   13  C14 UNL     1      23.226  -0.669  53.837  1.00  0.00     0.022 A 
HETATM   14  C15 UNL     1      22.521  -1.333  54.748  1.00  0.00     0.021 A 
HETATM   15  C16 UNL     1      21.169  -1.264  54.570  1.00  0.00     0.004 A 
HETATM   16  C17 UNL     1      20.533  -0.587  53.561  1.00  0.00     0.029 A 
HETATM   17  C18 UNL     1      21.232   0.108  52.604  1.00  0.00     0.030 A 
HETATM   18  C19 UNL     1      22.640   0.048  52.769  1.00  0.00     0.050 A 
HETATM   19  N1  UNL     1      20.874   0.931  51.464  1.00  0.00    -0.375 N 
HETATM   20  C20 UNL     1      21.341   2.285  51.689  1.00  0.00     0.232 C 
HETATM   21  N2  UNL     1      21.568   3.031  50.457  1.00  0.00    -0.405 NA
HETATM   22  C21 UNL     1      22.647   3.652  50.210  1.00  0.00     0.290 C 
HETATM   23  H19 UNL     1      20.434   0.106  51.016  1.00  0.00     0.161 HD
ENDROOT
BRANCH   1  24
HETATM   24  O2  UNL     1      26.785   6.702  48.295  1.00  0.00    -0.349 OA
BRANCH  24  25
HETATM   25  C3  UNL     1      26.643   8.116  48.348  1.00  0.00     0.201 C 
BRANCH  25  26
HETATM   26  C2  UNL     1      26.826   8.625  49.737  1.00  0.00     0.193 C 
BRANCH  26  27
HETATM   27  O1  UNL     1      26.660   9.985  49.818  1.00  0.00    -0.394 OA
HETATM   28  C1  UNL     1      26.146  10.556  48.673  1.00  0.00     0.201 C 
ENDBRANCH  26  27
ENDBRANCH  25  26
ENDBRANCH  24  25
ENDBRANCH   1  24
TORSDOF 4
ENDMDL
MODEL 9
REMARK VINA RESULT:      -7.7      3.435      8.504
REMARK  4 active torsions:
REMARK  status: ('A' for Active; 'I' for Inactive)
REMARK    1  A    between atoms: O1_2  and  C2_3 
REMARK    2  A    between atoms: C2_3  and  C3_4 
REMARK    3  A    between atoms: C3_4  and  O2_5 
REMARK    4  A    between atoms: O2_5  and  C4_6 
ROOT
HETATM    1  C4  UNL     1      17.467   3.198  51.326  1.00  0.00     0.071 A 
HETATM    2  C5  UNL     1      18.027   4.306  50.748  1.00  0.00     0.038 A 
HETATM    3  C6  UNL     1      19.400   4.369  50.675  1.00  0.00     0.018 A 
HETATM    4  C7  UNL     1      20.125   3.313  51.187  1.00  0.00     0.015 A 
HETATM    5  C8  UNL     1      19.602   2.181  51.776  1.00  0.00     0.083 A 
HETATM    6  C9  UNL     1      18.232   2.166  51.825  1.00  0.00     0.074 A 
HETATM    7  O3  UNL     1      20.257   1.216  52.243  1.00  0.00    -0.348 OA
HETATM    8  C10 UNL     1      20.929   0.224  52.723  1.00  0.00     0.203 C 
HETATM    9  C11 UNL     1      20.847   0.100  54.249  1.00  0.00     0.214 C 
HETATM   10  O4  UNL     1      21.720  -1.032  54.622  1.00  0.00    -0.301 OA
HETATM   11  C12 UNL     1      22.969  -0.736  54.194  1.00  0.00     0.059 C 
HETATM   12  C13 UNL     1      23.984  -0.478  53.832  1.00  0.00    -0.037 C 
HETATM   13  C14 UNL     1      25.207  -0.146  53.379  1.00  0.00     0.022 A 
HETATM   14  C15 UNL     1      26.451  -0.585  53.214  1.00  0.00     0.021 A 
HETATM   15  C16 UNL     1      27.271   0.288  52.559  1.00  0.00     0.004 A 
HETATM   16  C17 UNL     1      26.905   1.523  52.089  1.00  0.00     0.029 A 
HETATM   17  C18 UNL     1      25.627   2.006  52.243  1.00  0.00     0.030 A 
HETATM   18  C19 UNL     1      24.759   1.114  52.924  1.00  0.00     0.050 A 
HETATM   19  N1  UNL     1      24.930   3.213  51.844  1.00  0.00    -0.375 N 
HETATM   20  C20 UNL     1      23.863   2.865  50.926  1.00  0.00     0.232 C 
HETATM   21  N2  UNL     1      22.773   3.833  50.909  1.00  0.00    -0.405 NA
HETATM   22  C21 UNL     1      21.554   3.509  51.046  1.00  0.00     0.290 C 
HETATM   23  H19 UNL     1      25.567   3.771  52.442  1.00  0.00     0.161 HD
ENDROOT
BRANCH   1  24
HETATM   24  O2  UNL     1      16.093   3.129  51.401  1.00  0.00    -0.349 OA
BRANCH  24  25
HETATM   25  C3  UNL     1      15.397   4.187  52.047  1.00  0.00     0.201 C 
BRANCH  25  26
HETATM   26  C2  UNL     1      14.598   3.684  53.201  1.00  0.00     0.193 C 
BRANCH  26  27
HETATM   27  O1  UNL     1      13.917   4.689  53.841  1.00  0.00    -0.394 OA
HETATM   28  C1  UNL     1      12.565   4.453  53.976  1.00  0.00     0.201 C 
ENDBRANCH  26  27
ENDBRANCH  25  26
ENDBRANCH  24  25
ENDBRANCH   1  24
TORSDOF 4
ENDMDL
