MODEL 1
REMARK VINA RESULT:      -7.9      0.000      0.000
REMARK  8 active torsions:
REMARK  status: ('A' for Active; 'I' for Inactive)
REMARK    1  A    between atoms: O1_2  and  N1_3 
REMARK    2  A    between atoms: N1_3  and  C2_4 
REMARK       I    between atoms: N1_3  and  C19_25 
REMARK    3  A    between atoms: C2_4  and  C3_5 
REMARK    4  A    between atoms: C19_25  and  C20_27 
REMARK    5  A    between atoms: C20_27  and  C21_28 
REMARK    6  A    between atoms: C21_28  and  C22_29 
REMARK    7  A    between atoms: C22_29  and  S1_30 
REMARK    8  A    between atoms: S1_30  and  O5_31 
ROOT
HETATM    1  C3  UNL     1      22.102   1.181  51.464  1.00  0.00     0.083 C 
HETATM    2  C4  UNL     1      22.124   1.342  49.953  1.00  0.00     0.067 C 
HETATM    3  C5  UNL     1      22.074   2.792  49.576  1.00  0.00     0.222 C 
HETATM    4  N2  UNL     1      22.681   3.039  48.308  1.00  0.00    -0.373 N 
HETATM    5  C6  UNL     1      22.597   4.463  48.155  1.00  0.00     0.084 C 
HETATM    6  C7  UNL     1      23.389   5.303  48.786  1.00  0.00     0.025 C 
HETATM    7  C8  UNL     1      24.498   5.460  49.725  1.00  0.00     0.078 A 
HETATM    8  C9  UNL     1      24.212   6.269  50.977  1.00  0.00     0.049 C 
HETATM    9  C10 UNL     1      25.760   5.898  49.065  1.00  0.00     0.000 A 
HETATM   10  C11 UNL     1      26.292   6.962  48.413  1.00  0.00     0.012 A 
HETATM   11  C12 UNL     1      27.580   6.946  47.922  1.00  0.00     0.001 A 
HETATM   12  C13 UNL     1      28.296   5.761  48.141  1.00  0.00     0.002 A 
HETATM   13  C14 UNL     1      27.737   4.683  48.808  1.00  0.00     0.030 A 
HETATM   14  C15 UNL     1      26.429   4.723  49.299  1.00  0.00     0.040 A 
HETATM   15  N3  UNL     1      25.238   4.243  49.966  1.00  0.00    -0.361 N 
HETATM   16  C16 UNL     1      24.879   2.992  50.649  1.00  0.00     0.164 C 
HETATM   17  C17 UNL     1      23.567   3.169  51.328  1.00  0.00     0.211 C 
HETATM   18  O2  UNL     1      22.533   3.634  50.576  1.00  0.00    -0.352 OA
HETATM   19  C18 UNL     1      23.245   1.916  52.067  1.00  0.00     0.163 C 
HETATM   20  O3  UNL     1      23.907   1.631  53.035  1.00  0.00    -0.295 OA
HETATM   21  H10 UNL     1      23.151   2.704  47.445  1.00  0.00     0.161 HD
ENDROOT
BRANCH   1  22
HETATM   22  C2  UNL     1      20.835   1.770  52.047  1.00  0.00     0.171 C 
BRANCH  22  23
HETATM   23  N1  UNL     1      19.889   0.729  52.407  1.00  0.00    -0.226 N 
HETATM   24  C19 UNL     1      19.882  -0.214  53.471  1.00  0.00     0.244 C 
HETATM   25  O4  UNL     1      18.804  -0.797  53.130  1.00  0.00    -0.271 OA
BRANCH  23  26
HETATM   26  O1  UNL     1      18.764   0.409  51.771  1.00  0.00    -0.280 OA
HETATM   27  C1  UNL     1      18.434   1.387  50.840  1.00  0.00     0.238 C 
ENDBRANCH  23  26
BRANCH  24  28
HETATM   28  C20 UNL     1      20.999  -0.160  54.449  1.00  0.00     0.117 C 
BRANCH  28  29
HETATM   29  C21 UNL     1      21.687  -1.500  54.629  1.00  0.00     0.104 C 
BRANCH  29  30
HETATM   30  C22 UNL     1      23.036  -1.283  55.029  1.00  0.00    -0.083 C 
BRANCH  30  31
HETATM   31  S1  UNL     1      24.251  -1.112  55.390  1.00  0.00     0.066 SA
BRANCH  31  32
HETATM   32  O5  UNL     1      25.628  -0.894  55.811  1.00  0.00    -0.319 OA
HETATM   33  H27 UNL     1      25.747  -0.038  56.295  1.00  0.00     0.228 HD
ENDBRANCH  31  32
ENDBRANCH  30  31
ENDBRANCH  29  30
ENDBRANCH  28  29
ENDBRANCH  24  28
ENDBRANCH  22  23
ENDBRANCH   1  22
TORSDOF 8
ENDMDL
MODEL 2
REMARK VINA RESULT:      -7.9      2.795      4.429
REMARK  8 active torsions:
REMARK  status: ('A' for Active; 'I' for Inactive)
REMARK    1  A    between atoms: O1_2  and  N1_3 
REMARK    2  A    between atoms: N1_3  and  C2_4 
REMARK       I    between atoms: N1_3  and  C19_25 
REMARK    3  A    between atoms: C2_4  and  C3_5 
REMARK    4  A    between atoms: C19_25  and  C20_27 
REMARK    5  A    between atoms: C20_27  and  C21_28 
REMARK    6  A    between atoms: C21_28  and  C22_29 
REMARK    7  A    between atoms: C22_29  and  S1_30 
REMARK    8  A    between atoms: S1_30  and  O5_31 
ROOT
HETATM    1  C3  UNL     1      22.978   1.848  53.128  1.00  0.00     0.083 C 
HETATM    2  C4  UNL     1      24.174   2.777  53.019  1.00  0.00     0.067 C 
HETATM    3  C5  UNL     1      24.612   2.908  51.591  1.00  0.00     0.222 C 
HETATM    4  N2  UNL     1      25.270   4.150  51.341  1.00  0.00    -0.373 N 
HETATM    5  C6  UNL     1      25.549   4.118  49.935  1.00  0.00     0.084 C 
HETATM    6  C7  UNL     1      24.632   4.329  49.014  1.00  0.00     0.025 C 
HETATM    7  C8  UNL     1      23.228   4.631  48.738  1.00  0.00     0.078 A 
HETATM    8  C9  UNL     1      22.469   3.609  47.911  1.00  0.00     0.049 C 
HETATM    9  C10 UNL     1      23.022   6.015  48.227  1.00  0.00     0.000 A 
HETATM   10  C11 UNL     1      23.297   6.790  47.148  1.00  0.00     0.012 A 
HETATM   11  C12 UNL     1      22.907   8.110  47.081  1.00  0.00     0.001 A 
HETATM   12  C13 UNL     1      22.212   8.593  48.198  1.00  0.00     0.002 A 
HETATM   13  C14 UNL     1      21.940   7.788  49.292  1.00  0.00     0.030 A 
HETATM   14  C15 UNL     1      22.345   6.451  49.338  1.00  0.00     0.040 A 
HETATM   15  N3  UNL     1      22.499   5.121  49.886  1.00  0.00    -0.361 N 
HETATM   16  C16 UNL     1      22.081   4.471  51.136  1.00  0.00     0.164 C 
HETATM   17  C17 UNL     1      22.348   3.011  51.038  1.00  0.00     0.211 C 
HETATM   18  O2  UNL     1      23.605   2.629  50.682  1.00  0.00    -0.352 OA
HETATM   19  C18 UNL     1      21.864   2.357  52.286  1.00  0.00     0.163 C 
HETATM   20  O3  UNL     1      20.674   2.305  52.484  1.00  0.00    -0.295 OA
HETATM   21  H10 UNL     1      25.645   5.061  51.668  1.00  0.00     0.161 HD
ENDROOT
BRANCH   1  22
HETATM   22  C2  UNL     1      23.325   0.465  52.619  1.00  0.00     0.171 C 
BRANCH  22  23
HETATM   23  N1  UNL     1      24.032  -0.304  53.628  1.00  0.00    -0.226 N 
HETATM   24  C19 UNL     1      25.394  -0.700  53.731  1.00  0.00     0.244 C 
HETATM   25  O4  UNL     1      25.264  -1.354  54.814  1.00  0.00    -0.271 OA
BRANCH  23  26
HETATM   26  O1  UNL     1      23.522  -0.847  54.732  1.00  0.00    -0.280 OA
HETATM   27  C1  UNL     1      22.201  -1.227  54.523  1.00  0.00     0.238 C 
ENDBRANCH  23  26
BRANCH  24  28
HETATM   28  C20 UNL     1      26.326  -0.252  52.665  1.00  0.00     0.117 C 
BRANCH  28  29
HETATM   29  C21 UNL     1      27.756  -0.692  52.912  1.00  0.00     0.104 C 
BRANCH  29  30
HETATM   30  C22 UNL     1      28.459   0.351  53.580  1.00  0.00    -0.083 C 
BRANCH  30  31
HETATM   31  S1  UNL     1      29.078   1.305  54.167  1.00  0.00     0.066 SA
BRANCH  31  32
HETATM   32  O5  UNL     1      29.771   2.406  54.818  1.00  0.00    -0.319 OA
HETATM   33  H27 UNL     1      30.341   2.105  55.570  1.00  0.00     0.228 HD
ENDBRANCH  31  32
ENDBRANCH  30  31
ENDBRANCH  29  30
ENDBRANCH  28  29
ENDBRANCH  24  28
ENDBRANCH  22  23
ENDBRANCH   1  22
TORSDOF 8
ENDMDL
MODEL 3
REMARK VINA RESULT:      -7.7      2.327      3.396
REMARK  8 active torsions:
REMARK  status: ('A' for Active; 'I' for Inactive)
REMARK    1  A    between atoms: O1_2  and  N1_3 
REMARK    2  A    between atoms: N1_3  and  C2_4 
REMARK       I    between atoms: N1_3  and  C19_25 
REMARK    3  A    between atoms: C2_4  and  C3_5 
REMARK    4  A    between atoms: C19_25  and  C20_27 
REMARK    5  A    between atoms: C20_27  and  C21_28 
REMARK    6  A    between atoms: C21_28  and  C22_29 
REMARK    7  A    between atoms: C22_29  and  S1_30 
REMARK    8  A    between atoms: S1_30  and  O5_31 
ROOT
HETATM    1  C3  UNL     1      23.520   2.642  52.860  1.00  0.00     0.083 C 
HETATM    2  C4  UNL     1      25.015   2.816  52.660  1.00  0.00     0.067 C 
HETATM    3  C5  UNL     1      25.337   2.982  51.205  1.00  0.00     0.222 C 
HETATM    4  N2  UNL     1      26.539   3.723  51.001  1.00  0.00    -0.373 N 
HETATM    5  C6  UNL     1      26.642   3.832  49.574  1.00  0.00     0.084 C 
HETATM    6  C7  UNL     1      25.914   4.666  48.862  1.00  0.00     0.025 C 
HETATM    7  C8  UNL     1      24.880   5.700  48.876  1.00  0.00     0.078 A 
HETATM    8  C9  UNL     1      23.625   5.409  48.074  1.00  0.00     0.049 C 
HETATM    9  C10 UNL     1      25.416   7.059  48.586  1.00  0.00     0.000 A 
HETATM   10  C11 UNL     1      25.978   7.776  47.580  1.00  0.00     0.012 A 
HETATM   11  C12 UNL     1      26.361   9.090  47.748  1.00  0.00     0.001 A 
HETATM   12  C13 UNL     1      26.131   9.629  49.021  1.00  0.00     0.002 A 
HETATM   13  C14 UNL     1      25.556   8.883  50.037  1.00  0.00     0.030 A 
HETATM   14  C15 UNL     1      25.175   7.552  49.843  1.00  0.00     0.040 A 
HETATM   15  N3  UNL     1      24.629   6.257  50.186  1.00  0.00    -0.361 N 
HETATM   16  C16 UNL     1      24.029   5.685  51.399  1.00  0.00     0.164 C 
HETATM   17  C17 UNL     1      23.454   4.352  51.075  1.00  0.00     0.211 C 
HETATM   18  O2  UNL     1      24.269   3.453  50.459  1.00  0.00    -0.352 OA
HETATM   19  C18 UNL     1      22.795   3.811  52.296  1.00  0.00     0.163 C 
HETATM   20  O3  UNL     1      21.787   4.345  52.692  1.00  0.00    -0.295 OA
HETATM   21  H10 UNL     1      27.373   4.220  51.368  1.00  0.00     0.161 HD
ENDROOT
BRANCH   1  22
HETATM   22  C2  UNL     1      23.020   1.413  52.130  1.00  0.00     0.171 C 
BRANCH  22  23
HETATM   23  N1  UNL     1      22.716   0.338  53.058  1.00  0.00    -0.226 N 
HETATM   24  C19 UNL     1      23.546  -0.632  53.685  1.00  0.00     0.244 C 
HETATM   25  O4  UNL     1      22.611  -1.235  54.300  1.00  0.00    -0.271 OA
BRANCH  23  26
HETATM   26  O1  UNL     1      21.520   0.002  53.538  1.00  0.00    -0.280 OA
HETATM   27  C1  UNL     1      20.539   0.850  53.039  1.00  0.00     0.238 C 
ENDBRANCH  23  26
BRANCH  24  28
HETATM   28  C20 UNL     1      25.005  -0.571  53.413  1.00  0.00     0.117 C 
BRANCH  28  29
HETATM   29  C21 UNL     1      25.823  -0.286  54.658  1.00  0.00     0.104 C 
BRANCH  29  30
HETATM   30  C22 UNL     1      27.123   0.152  54.275  1.00  0.00    -0.083 C 
BRANCH  30  31
HETATM   31  S1  UNL     1      28.285   0.540  53.908  1.00  0.00     0.066 SA
BRANCH  31  32
HETATM   32  O5  UNL     1      29.614   0.986  53.514  1.00  0.00    -0.319 OA
HETATM   33  H27 UNL     1      30.164   1.272  54.287  1.00  0.00     0.228 HD
ENDBRANCH  31  32
ENDBRANCH  30  31
ENDBRANCH  29  30
ENDBRANCH  28  29
ENDBRANCH  24  28
ENDBRANCH  22  23
ENDBRANCH   1  22
TORSDOF 8
ENDMDL
MODEL 4
REMARK VINA RESULT:      -7.7      2.624      4.940
REMARK  8 active torsions:
REMARK  status: ('A' for Active; 'I' for Inactive)
REMARK    1  A    between atoms: O1_2  and  N1_3 
REMARK    2  A    between atoms: N1_3  and  C2_4 
REMARK       I    between atoms: N1_3  and  C19_25 
REMARK    3  A    between atoms: C2_4  and  C3_5 
REMARK    4  A    between atoms: C19_25  and  C20_27 
REMARK    5  A    between atoms: C20_27  and  C21_28 
REMARK    6  A    between atoms: C21_28  and  C22_29 
REMARK    7  A    between atoms: C22_29  and  S1_30 
REMARK    8  A    between atoms: S1_30  and  O5_31 
ROOT
HETATM    1  C3  UNL     1      25.492   1.719  52.094  1.00  0.00     0.083 C 
HETATM    2  C4  UNL     1      23.987   1.577  51.951  1.00  0.00     0.067 C 
HETATM    3  C5  UNL     1      23.303   2.877  52.254  1.00  0.00     0.222 C 
HETATM    4  N2  UNL     1      22.049   2.994  51.583  1.00  0.00    -0.373 N 
HETATM    5  C6  UNL     1      21.587   4.305  51.937  1.00  0.00     0.084 C 
HETATM    6  C7  UNL     1      22.066   5.407  51.398  1.00  0.00     0.025 C 
HETATM    7  C8  UNL     1      23.012   5.986  50.446  1.00  0.00     0.078 A 
HETATM    8  C9  UNL     1      24.042   6.945  51.016  1.00  0.00     0.049 C 
HETATM    9  C10 UNL     1      22.347   6.548  49.237  1.00  0.00     0.000 A 
HETATM   10  C11 UNL     1      21.512   7.552  48.867  1.00  0.00     0.012 A 
HETATM   11  C12 UNL     1      21.111   7.721  47.559  1.00  0.00     0.001 A 
HETATM   12  C13 UNL     1      21.621   6.789  46.645  1.00  0.00     0.002 A 
HETATM   13  C14 UNL     1      22.472   5.770  47.040  1.00  0.00     0.030 A 
HETATM   14  C15 UNL     1      22.866   5.619  48.373  1.00  0.00     0.040 A 
HETATM   15  N3  UNL     1      23.552   5.032  49.504  1.00  0.00    -0.361 N 
HETATM   16  C16 UNL     1      24.467   3.894  49.671  1.00  0.00     0.164 C 
HETATM   17  C17 UNL     1      25.015   3.911  51.054  1.00  0.00     0.211 C 
HETATM   18  O2  UNL     1      24.123   3.980  52.079  1.00  0.00    -0.352 OA
HETATM   19  C18 UNL     1      25.987   2.791  51.191  1.00  0.00     0.163 C 
HETATM   20  O3  UNL     1      27.030   2.856  50.587  1.00  0.00    -0.295 OA
HETATM   21  H10 UNL     1      21.307   2.605  50.970  1.00  0.00     0.161 HD
ENDROOT
BRANCH   1  22
HETATM   22  C2  UNL     1      25.861   2.121  53.506  1.00  0.00     0.171 C 
BRANCH  22  23
HETATM   23  N1  UNL     1      26.776   1.164  54.103  1.00  0.00    -0.226 N 
HETATM   24  C19 UNL     1      26.611  -0.201  54.467  1.00  0.00     0.244 C 
HETATM   25  O4  UNL     1      27.780  -0.357  54.945  1.00  0.00    -0.271 OA
BRANCH  23  26
HETATM   26  O1  UNL     1      28.038   1.378  54.472  1.00  0.00    -0.280 OA
HETATM   27  C1  UNL     1      28.585   2.431  53.748  1.00  0.00     0.238 C 
ENDBRANCH  23  26
BRANCH  24  28
HETATM   28  C20 UNL     1      25.300  -0.837  54.182  1.00  0.00     0.117 C 
BRANCH  28  29
HETATM   29  C21 UNL     1      24.482  -1.082  55.437  1.00  0.00     0.104 C 
BRANCH  29  30
HETATM   30  C22 UNL     1      23.106  -1.189  55.084  1.00  0.00    -0.083 C 
BRANCH  30  31
HETATM   31  S1  UNL     1      21.864  -1.277  54.789  1.00  0.00     0.066 SA
BRANCH  31  32
HETATM   32  O5  UNL     1      20.453  -1.354  54.442  1.00  0.00    -0.319 OA
HETATM   33  H27 UNL     1      20.300  -1.786  53.563  1.00  0.00     0.228 HD
ENDBRANCH  31  32
ENDBRANCH  30  31
ENDBRANCH  29  30
ENDBRANCH  28  29
ENDBRANCH  24  28
ENDBRANCH  22  23
ENDBRANCH   1  22
TORSDOF 8
ENDMDL
MODEL 5
REMARK VINA RESULT:      -7.6      3.814      8.298
REMARK  8 active torsions:
REMARK  status: ('A' for Active; 'I' for Inactive)
REMARK    1  A    between atoms: O1_2  and  N1_3 
REMARK    2  A    between atoms: N1_3  and  C2_4 
REMARK       I    between atoms: N1_3  and  C19_25 
REMARK    3  A    between atoms: C2_4  and  C3_5 
REMARK    4  A    between atoms: C19_25  and  C20_27 
REMARK    5  A    between atoms: C20_27  and  C21_28 
REMARK    6  A    between atoms: C21_28  and  C22_29 
REMARK    7  A    between atoms: C22_29  and  S1_30 
REMARK    8  A    between atoms: S1_30  and  O5_31 
ROOT
HETATM    1  C3  UNL     1      24.859   6.631  49.728  1.00  0.00     0.083 C 
HETATM    2  C4  UNL     1      24.118   6.673  51.053  1.00  0.00     0.067 C 
HETATM    3  C5  UNL     1      22.938   5.747  51.027  1.00  0.00     0.222 C 
HETATM    4  N2  UNL     1      22.588   5.285  52.331  1.00  0.00    -0.373 N 
HETATM    5  C6  UNL     1      21.503   4.377  52.097  1.00  0.00     0.084 C 
HETATM    6  C7  UNL     1      21.670   3.160  51.626  1.00  0.00     0.025 C 
HETATM    7  C8  UNL     1      22.624   2.155  51.157  1.00  0.00     0.078 A 
HETATM    8  C9  UNL     1      22.438   1.660  49.734  1.00  0.00     0.049 C 
HETATM    9  C10 UNL     1      22.793   1.026  52.114  1.00  0.00     0.000 A 
HETATM   10  C11 UNL     1      22.105  -0.017  52.643  1.00  0.00     0.012 A 
HETATM   11  C12 UNL     1      22.672  -0.870  53.567  1.00  0.00     0.001 A 
HETATM   12  C13 UNL     1      23.998  -0.585  53.919  1.00  0.00     0.002 A 
HETATM   13  C14 UNL     1      24.685   0.485  53.369  1.00  0.00     0.030 A 
HETATM   14  C15 UNL     1      24.091   1.336  52.434  1.00  0.00     0.040 A 
HETATM   15  N3  UNL     1      23.996   2.443  51.507  1.00  0.00    -0.361 N 
HETATM   16  C16 UNL     1      24.927   3.489  51.060  1.00  0.00     0.164 C 
HETATM   17  C17 UNL     1      24.318   4.226  49.920  1.00  0.00     0.211 C 
HETATM   18  O2  UNL     1      23.065   4.726  50.099  1.00  0.00    -0.352 OA
HETATM   19  C18 UNL     1      25.295   5.240  49.436  1.00  0.00     0.163 C 
HETATM   20  O3  UNL     1      26.297   4.857  48.882  1.00  0.00    -0.295 OA
HETATM   21  H10 UNL     1      22.727   5.278  53.359  1.00  0.00     0.161 HD
ENDROOT
BRANCH   1  22
HETATM   22  C2  UNL     1      23.955   7.062  48.594  1.00  0.00     0.171 C 
BRANCH  22  23
HETATM   23  N1  UNL     1      24.215   8.438  48.207  1.00  0.00    -0.226 N 
HETATM   24  C19 UNL     1      25.248   9.018  47.420  1.00  0.00     0.244 C 
HETATM   25  O4  UNL     1      24.856  10.222  47.548  1.00  0.00    -0.271 OA
BRANCH  23  26
HETATM   26  O1  UNL     1      23.506   9.516  48.538  1.00  0.00    -0.280 OA
HETATM   27  C1  UNL     1      22.219   9.155  48.918  1.00  0.00     0.238 C 
ENDBRANCH  23  26
BRANCH  24  28
HETATM   28  C20 UNL     1      26.259   8.106  46.827  1.00  0.00     0.117 C 
BRANCH  28  29
HETATM   29  C21 UNL     1      27.675   8.440  47.259  1.00  0.00     0.104 C 
BRANCH  29  30
HETATM   30  C22 UNL     1      27.662   8.856  48.621  1.00  0.00    -0.083 C 
BRANCH  30  31
HETATM   31  S1  UNL     1      27.665   9.248  49.838  1.00  0.00     0.066 SA
BRANCH  31  32
HETATM   32  O5  UNL     1      27.646   9.684  51.227  1.00  0.00    -0.319 OA
HETATM   33  H27 UNL     1      26.735   9.914  51.541  1.00  0.00     0.228 HD
ENDBRANCH  31  32
ENDBRANCH  30  31
ENDBRANCH  29  30
ENDBRANCH  28  29
ENDBRANCH  24  28
ENDBRANCH  22  23
ENDBRANCH   1  22
TORSDOF 8
ENDMDL
MODEL 6
REMARK VINA RESULT:      -7.5      4.091      6.879
REMARK  8 active torsions:
REMARK  status: ('A' for Active; 'I' for Inactive)
REMARK    1  A    between atoms: O1_2  and  N1_3 
REMARK    2  A    between atoms: N1_3  and  C2_4 
REMARK       I    between atoms: N1_3  and  C19_25 
REMARK    3  A    between atoms: C2_4  and  C3_5 
REMARK    4  A    between atoms: C19_25  and  C20_27 
REMARK    5  A    between atoms: C20_27  and  C21_28 
REMARK    6  A    between atoms: C21_28  and  C22_29 
REMARK    7  A    between atoms: C22_29  and  S1_30 
REMARK    8  A    between atoms: S1_30  and  O5_31 
ROOT
HETATM    1  C3  UNL     1      22.280   2.972  51.498  1.00  0.00     0.083 C 
HETATM    2  C4  UNL     1      23.426   2.927  50.501  1.00  0.00     0.067 C 
HETATM    3  C5  UNL     1      24.738   3.132  51.197  1.00  0.00     0.222 C 
HETATM    4  N2  UNL     1      25.821   2.524  50.493  1.00  0.00    -0.373 N 
HETATM    5  C6  UNL     1      26.959   2.765  51.332  1.00  0.00     0.084 C 
HETATM    6  C7  UNL     1      27.196   2.089  52.436  1.00  0.00     0.025 C 
HETATM    7  C8  UNL     1      26.744   1.031  53.338  1.00  0.00     0.078 A 
HETATM    8  C9  UNL     1      26.464   1.440  54.773  1.00  0.00     0.049 C 
HETATM    9  C10 UNL     1      27.594  -0.191  53.270  1.00  0.00     0.000 A 
HETATM   10  C11 UNL     1      28.850  -0.616  53.561  1.00  0.00     0.012 A 
HETATM   11  C12 UNL     1      29.256  -1.910  53.314  1.00  0.00     0.001 A 
HETATM   12  C13 UNL     1      28.288  -2.749  52.746  1.00  0.00     0.002 A 
HETATM   13  C14 UNL     1      27.011  -2.299  52.455  1.00  0.00     0.030 A 
HETATM   14  C15 UNL     1      26.621  -0.982  52.715  1.00  0.00     0.040 A 
HETATM   15  N3  UNL     1      25.739   0.164  52.765  1.00  0.00    -0.361 N 
HETATM   16  C16 UNL     1      24.338   0.397  52.388  1.00  0.00     0.164 C 
HETATM   17  C17 UNL     1      23.920   1.738  52.878  1.00  0.00     0.211 C 
HETATM   18  O2  UNL     1      24.703   2.798  52.541  1.00  0.00    -0.352 OA
HETATM   19  C18 UNL     1      22.482   1.936  52.545  1.00  0.00     0.163 C 
HETATM   20  O3  UNL     1      21.658   1.271  53.127  1.00  0.00    -0.295 OA
HETATM   21  H10 UNL     1      26.193   1.996  49.681  1.00  0.00     0.161 HD
ENDROOT
BRANCH   1  22
HETATM   22  C2  UNL     1      22.231   4.312  52.199  1.00  0.00     0.171 C 
BRANCH  22  23
HETATM   23  N1  UNL     1      21.864   5.374  51.280  1.00  0.00    -0.226 N 
HETATM   24  C19 UNL     1      22.601   6.480  50.772  1.00  0.00     0.244 C 
HETATM   25  O4  UNL     1      21.651   6.971  50.083  1.00  0.00    -0.271 OA
BRANCH  23  26
HETATM   26  O1  UNL     1      20.684   5.558  50.691  1.00  0.00    -0.280 OA
HETATM   27  C1  UNL     1      19.824   4.506  50.983  1.00  0.00     0.238 C 
ENDBRANCH  23  26
BRANCH  24  28
HETATM   28  C20 UNL     1      24.019   6.615  51.190  1.00  0.00     0.117 C 
BRANCH  28  29
HETATM   29  C21 UNL     1      24.979   6.632  50.015  1.00  0.00     0.104 C 
BRANCH  29  30
HETATM   30  C22 UNL     1      25.860   7.743  50.146  1.00  0.00    -0.083 C 
BRANCH  30  31
HETATM   31  S1  UNL     1      26.667   8.727  50.276  1.00  0.00     0.066 SA
BRANCH  31  32
HETATM   32  O5  UNL     1      27.566   9.861  50.432  1.00  0.00    -0.319 OA
HETATM   33  H27 UNL     1      27.651  10.397  49.603  1.00  0.00     0.228 HD
ENDBRANCH  31  32
ENDBRANCH  30  31
ENDBRANCH  29  30
ENDBRANCH  28  29
ENDBRANCH  24  28
ENDBRANCH  22  23
ENDBRANCH   1  22
TORSDOF 8
ENDMDL
MODEL 7
REMARK VINA RESULT:      -7.3      3.753      8.294
REMARK  8 active torsions:
REMARK  status: ('A' for Active; 'I' for Inactive)
REMARK    1  A    between atoms: O1_2  and  N1_3 
REMARK    2  A    between atoms: N1_3  and  C2_4 
REMARK       I    between atoms: N1_3  and  C19_25 
REMARK    3  A    between atoms: C2_4  and  C3_5 
REMARK    4  A    between atoms: C19_25  and  C20_27 
REMARK    5  A    between atoms: C20_27  and  C21_28 
REMARK    6  A    between atoms: C21_28  and  C22_29 
REMARK    7  A    between atoms: C22_29  and  S1_30 
REMARK    8  A    between atoms: S1_30  and  O5_31 
ROOT
HETATM    1  C3  UNL     1      25.637   6.353  49.690  1.00  0.00     0.083 C 
HETATM    2  C4  UNL     1      24.836   6.519  50.970  1.00  0.00     0.067 C 
HETATM    3  C5  UNL     1      23.530   5.788  50.874  1.00  0.00     0.222 C 
HETATM    4  N2  UNL     1      23.038   5.396  52.155  1.00  0.00    -0.373 N 
HETATM    5  C6  UNL     1      21.840   4.667  51.858  1.00  0.00     0.084 C 
HETATM    6  C7  UNL     1      21.842   3.434  51.395  1.00  0.00     0.025 C 
HETATM    7  C8  UNL     1      22.652   2.290  50.980  1.00  0.00     0.078 A 
HETATM    8  C9  UNL     1      22.473   1.820  49.548  1.00  0.00     0.049 C 
HETATM    9  C10 UNL     1      22.589   1.156  51.943  1.00  0.00     0.000 A 
HETATM   10  C11 UNL     1      21.717   0.236  52.430  1.00  0.00     0.012 A 
HETATM   11  C12 UNL     1      22.090  -0.688  53.383  1.00  0.00     0.001 A 
HETATM   12  C13 UNL     1      23.422  -0.611  53.811  1.00  0.00     0.002 A 
HETATM   13  C14 UNL     1      24.298   0.335  53.304  1.00  0.00     0.030 A 
HETATM   14  C15 UNL     1      23.898   1.261  52.338  1.00  0.00     0.040 A 
HETATM   15  N3  UNL     1      24.031   2.363  51.409  1.00  0.00    -0.361 N 
HETATM   16  C16 UNL     1      25.137   3.248  51.018  1.00  0.00     0.164 C 
HETATM   17  C17 UNL     1      24.716   4.063  49.847  1.00  0.00     0.211 C 
HETATM   18  O2  UNL     1      23.549   4.753  49.954  1.00  0.00    -0.352 OA
HETATM   19  C18 UNL     1      25.866   4.909  49.421  1.00  0.00     0.163 C 
HETATM   20  O3  UNL     1      26.826   4.370  48.925  1.00  0.00    -0.295 OA
HETATM   21  H10 UNL     1      23.115   5.375  53.190  1.00  0.00     0.161 HD
ENDROOT
BRANCH   1  22
HETATM   22  C2  UNL     1      24.877   6.911  48.506  1.00  0.00     0.171 C 
BRANCH  22  23
HETATM   23  N1  UNL     1      25.181   8.317  48.301  1.00  0.00    -0.226 N 
HETATM   24  C19 UNL     1      26.345   8.969  47.809  1.00  0.00     0.244 C 
HETATM   25  O4  UNL     1      25.906  10.155  47.948  1.00  0.00    -0.271 OA
BRANCH  23  26
HETATM   26  O1  UNL     1      24.392   9.358  48.559  1.00  0.00    -0.280 OA
HETATM   27  C1  UNL     1      23.088   8.936  48.792  1.00  0.00     0.238 C 
ENDBRANCH  23  26
BRANCH  24  28
HETATM   28  C20 UNL     1      27.482   8.117  47.375  1.00  0.00     0.117 C 
BRANCH  28  29
HETATM   29  C21 UNL     1      28.614   8.091  48.385  1.00  0.00     0.104 C 
BRANCH  29  30
HETATM   30  C22 UNL     1      29.370   6.896  48.209  1.00  0.00    -0.083 C 
BRANCH  30  31
HETATM   31  S1  UNL     1      30.041   5.823  48.029  1.00  0.00     0.066 SA
BRANCH  31  32
HETATM   32  O5  UNL     1      30.817   4.612  47.803  1.00  0.00    -0.319 OA
HETATM   33  H27 UNL     1      31.699   4.636  48.252  1.00  0.00     0.228 HD
ENDBRANCH  31  32
ENDBRANCH  30  31
ENDBRANCH  29  30
ENDBRANCH  28  29
ENDBRANCH  24  28
ENDBRANCH  22  23
ENDBRANCH   1  22
TORSDOF 8
ENDMDL
MODEL 8
REMARK VINA RESULT:      -7.3      2.418      3.555
REMARK  8 active torsions:
REMARK  status: ('A' for Active; 'I' for Inactive)
REMARK    1  A    between atoms: O1_2  and  N1_3 
REMARK    2  A    between atoms: N1_3  and  C2_4 
REMARK       I    between atoms: N1_3  and  C19_25 
REMARK    3  A    between atoms: C2_4  and  C3_5 
REMARK    4  A    between atoms: C19_25  and  C20_27 
REMARK    5  A    between atoms: C20_27  and  C21_28 
REMARK    6  A    between atoms: C21_28  and  C22_29 
REMARK    7  A    between atoms: C22_29  and  S1_30 
REMARK    8  A    between atoms: S1_30  and  O5_31 
ROOT
HETATM    1  C3  UNL     1      21.951   2.446  51.914  1.00  0.00     0.083 C 
HETATM    2  C4  UNL     1      21.701   3.915  52.208  1.00  0.00     0.067 C 
HETATM    3  C5  UNL     1      22.972   4.701  52.082  1.00  0.00     0.222 C 
HETATM    4  N2  UNL     1      22.729   6.067  51.747  1.00  0.00    -0.373 N 
HETATM    5  C6  UNL     1      24.041   6.629  51.606  1.00  0.00     0.084 C 
HETATM    6  C7  UNL     1      24.803   6.425  50.553  1.00  0.00     0.025 C 
HETATM    7  C8  UNL     1      24.930   5.776  49.248  1.00  0.00     0.078 A 
HETATM    8  C9  UNL     1      26.082   4.800  49.091  1.00  0.00     0.049 C 
HETATM    9  C10 UNL     1      24.867   6.739  48.114  1.00  0.00     0.000 A 
HETATM   10  C11 UNL     1      25.566   7.763  47.562  1.00  0.00     0.012 A 
HETATM   11  C12 UNL     1      25.116   8.434  46.445  1.00  0.00     0.001 A 
HETATM   12  C13 UNL     1      23.894   7.988  45.923  1.00  0.00     0.002 A 
HETATM   13  C14 UNL     1      23.193   6.942  46.499  1.00  0.00     0.030 A 
HETATM   14  C15 UNL     1      23.670   6.275  47.631  1.00  0.00     0.040 A 
HETATM   15  N3  UNL     1      23.677   5.305  48.705  1.00  0.00    -0.361 N 
HETATM   16  C16 UNL     1      22.770   4.224  49.118  1.00  0.00     0.164 C 
HETATM   17  C17 UNL     1      23.425   3.422  50.185  1.00  0.00     0.211 C 
HETATM   18  O2  UNL     1      23.911   4.095  51.263  1.00  0.00    -0.352 OA
HETATM   19  C18 UNL     1      22.523   2.294  50.550  1.00  0.00     0.163 C 
HETATM   20  O3  UNL     1      22.351   1.410  49.746  1.00  0.00    -0.295 OA
HETATM   21  H10 UNL     1      22.079   6.853  51.555  1.00  0.00     0.161 HD
ENDROOT
BRANCH   1  22
HETATM   22  C2  UNL     1      22.955   1.866  52.886  1.00  0.00     0.171 C 
BRANCH  22  23
HETATM   23  N1  UNL     1      22.646   0.482  53.199  1.00  0.00    -0.226 N 
HETATM   24  C19 UNL     1      23.464  -0.587  53.657  1.00  0.00     0.244 C 
HETATM   25  O4  UNL     1      22.546  -1.467  53.666  1.00  0.00    -0.271 OA
BRANCH  23  26
HETATM   26  O1  UNL     1      21.463  -0.121  53.104  1.00  0.00    -0.280 OA
HETATM   27  C1  UNL     1      20.566   0.420  54.017  1.00  0.00     0.238 C 
ENDBRANCH  23  26
BRANCH  24  28
HETATM   28  C20 UNL     1      24.898  -0.298  53.916  1.00  0.00     0.117 C 
BRANCH  28  29
HETATM   29  C21 UNL     1      25.773  -0.534  52.699  1.00  0.00     0.104 C 
BRANCH  29  30
HETATM   30  C22 UNL     1      26.365   0.699  52.302  1.00  0.00    -0.083 C 
BRANCH  30  31
HETATM   31  S1  UNL     1      26.888   1.817  51.966  1.00  0.00     0.066 SA
BRANCH  31  32
HETATM   32  O5  UNL     1      27.506   3.076  51.578  1.00  0.00    -0.319 OA
HETATM   33  H27 UNL     1      27.339   3.306  50.630  1.00  0.00     0.228 HD
ENDBRANCH  31  32
ENDBRANCH  30  31
ENDBRANCH  29  30
ENDBRANCH  28  29
ENDBRANCH  24  28
ENDBRANCH  22  23
ENDBRANCH   1  22
TORSDOF 8
ENDMDL
MODEL 9
REMARK VINA RESULT:      -7.1      2.711      3.479
REMARK  8 active torsions:
REMARK  status: ('A' for Active; 'I' for Inactive)
REMARK    1  A    between atoms: O1_2  and  N1_3 
REMARK    2  A    between atoms: N1_3  and  C2_4 
REMARK       I    between atoms: N1_3  and  C19_25 
REMARK    3  A    between atoms: C2_4  and  C3_5 
REMARK    4  A    between atoms: C19_25  and  C20_27 
REMARK    5  A    between atoms: C20_27  and  C21_28 
REMARK    6  A    between atoms: C21_28  and  C22_29 
REMARK    7  A    between atoms: C22_29  and  S1_30 
REMARK    8  A    between atoms: S1_30  and  O5_31 
ROOT
HETATM    1  C3  UNL     1      23.876   2.159  51.016  1.00  0.00     0.083 C 
HETATM    2  C4  UNL     1      22.743   2.453  50.049  1.00  0.00     0.067 C 
HETATM    3  C5  UNL     1      22.160   3.809  50.316  1.00  0.00     0.222 C 
HETATM    4  N2  UNL     1      21.566   4.379  49.150  1.00  0.00    -0.373 N 
HETATM    5  C6  UNL     1      21.133   5.677  49.580  1.00  0.00     0.084 C 
HETATM    6  C7  UNL     1      21.955   6.690  49.753  1.00  0.00     0.025 C 
HETATM    7  C8  UNL     1      23.337   7.162  49.691  1.00  0.00     0.078 A 
HETATM    8  C9  UNL     1      23.928   7.688  50.987  1.00  0.00     0.049 C 
HETATM    9  C10 UNL     1      23.581   8.096  48.556  1.00  0.00     0.000 A 
HETATM   10  C11 UNL     1      23.243   9.337  48.123  1.00  0.00     0.012 A 
HETATM   11  C12 UNL     1      23.715   9.845  46.932  1.00  0.00     0.001 A 
HETATM   12  C13 UNL     1      24.560   8.997  46.204  1.00  0.00     0.002 A 
HETATM   13  C14 UNL     1      24.894   7.733  46.661  1.00  0.00     0.030 A 
HETATM   14  C15 UNL     1      24.406   7.238  47.873  1.00  0.00     0.040 A 
HETATM   15  N3  UNL     1      24.220   6.291  48.951  1.00  0.00    -0.361 N 
HETATM   16  C16 UNL     1      24.728   4.939  49.227  1.00  0.00     0.164 C 
HETATM   17  C17 UNL     1      24.351   4.552  50.613  1.00  0.00     0.211 C 
HETATM   18  O2  UNL     1      23.039   4.666  50.958  1.00  0.00    -0.352 OA
HETATM   19  C18 UNL     1      24.924   3.208  50.901  1.00  0.00     0.163 C 
HETATM   20  O3  UNL     1      26.121   3.103  51.009  1.00  0.00    -0.295 OA
HETATM   21  H10 UNL     1      21.294   4.323  48.150  1.00  0.00     0.161 HD
ENDROOT
BRANCH   1  22
HETATM   22  C2  UNL     1      23.380   2.178  52.445  1.00  0.00     0.171 C 
BRANCH  22  23
HETATM   23  N1  UNL     1      23.251   0.833  52.976  1.00  0.00    -0.226 N 
HETATM   24  C19 UNL     1      24.222  -0.093  53.449  1.00  0.00     0.244 C 
HETATM   25  O4  UNL     1      23.402  -1.032  53.702  1.00  0.00    -0.271 OA
BRANCH  23  26
HETATM   26  O1  UNL     1      22.130   0.131  53.129  1.00  0.00    -0.280 OA
HETATM   27  C1  UNL     1      21.022   0.970  53.102  1.00  0.00     0.238 C 
ENDBRANCH  23  26
BRANCH  24  28
HETATM   28  C20 UNL     1      25.642   0.342  53.463  1.00  0.00     0.117 C 
BRANCH  28  29
HETATM   29  C21 UNL     1      26.421  -0.162  52.262  1.00  0.00     0.104 C 
BRANCH  29  30
HETATM   30  C22 UNL     1      27.154  -1.324  52.635  1.00  0.00    -0.083 C 
BRANCH  30  31
HETATM   31  S1  UNL     1      27.828  -2.365  52.951  1.00  0.00     0.066 SA
BRANCH  31  32
HETATM   32  O5  UNL     1      28.579  -3.552  53.332  1.00  0.00    -0.319 OA
HETATM   33  H27 UNL     1      29.490  -3.567  52.943  1.00  0.00     0.228 HD
ENDBRANCH  31  32
ENDBRANCH  30  31
ENDBRANCH  29  30
ENDBRANCH  28  29
ENDBRANCH  24  28
ENDBRANCH  22  23
ENDBRANCH   1  22
TORSDOF 8
ENDMDL
