MODEL 1
REMARK VINA RESULT:      -7.8      0.000      0.000
REMARK  7 active torsions:
REMARK  status: ('A' for Active; 'I' for Inactive)
REMARK    1  A    between atoms: C4_4  and  C5_5 
REMARK    2  A    between atoms: C5_5  and  C6_6 
REMARK    3  A    between atoms: C6_6  and  C7_7 
REMARK    4  A    between atoms: C7_7  and  N1_8 
REMARK    5  A    between atoms: N1_8  and  C8_9 
REMARK    6  A    between atoms: C12_16  and  C13_17 
REMARK    7  A    between atoms: C12_16  and  N5_23 
ROOT
HETATM    1  C1  UNL     1      23.853   3.253  49.003  1.00  0.00     0.051 C 
HETATM    2  C2  UNL     1      25.067   3.224  49.816  1.00  0.00    -0.028 A 
HETATM    3  C3  UNL     1      26.324   3.617  49.951  1.00  0.00     0.043 A 
HETATM    4  C4  UNL     1      26.851   4.425  48.944  1.00  0.00     0.081 C 
HETATM    5  N2  UNL     1      26.873   3.094  51.155  1.00  0.00    -0.359 N 
HETATM    6  C9  UNL     1      26.507   2.286  52.260  1.00  0.00     0.191 A 
HETATM    7  N3  UNL     1      25.315   1.978  52.027  1.00  0.00     0.000 N 
HETATM    8  C10 UNL     1      24.691   2.401  50.938  1.00  0.00    -0.035 A 
HETATM    9  C11 UNL     1      23.739   1.656  51.574  1.00  0.00     0.062 A 
HETATM   10  C12 UNL     1      24.366   1.171  52.766  1.00  0.00     0.095 A 
HETATM   11  N5  UNL     1      25.644   1.549  52.939  1.00  0.00    -0.193 NA
HETATM   12  H10 UNL     1      27.773   3.122  51.669  1.00  0.00     0.162 HD
ENDROOT
BRANCH   4  13
HETATM   13  C5  UNL     1      26.722   5.740  49.056  1.00  0.00    -0.146 C 
BRANCH  13  14
HETATM   14  C6  UNL     1      26.429   7.031  48.977  1.00  0.00     0.091 C 
BRANCH  14  15
HETATM   15  C7  UNL     1      25.918   7.671  50.212  1.00  0.00     0.139 C 
BRANCH  15  16
HETATM   16  N1  UNL     1      26.853   8.569  50.830  1.00  0.00    -0.367 N 
HETATM   17  H8  UNL     1      26.970   8.702  51.875  1.00  0.00     0.161 HD
BRANCH  16  18
HETATM   18  C8  UNL     1      27.651   9.305  49.892  1.00  0.00     0.348 C 
HETATM   19  O1  UNL     1      27.141  10.452  49.711  1.00  0.00    -0.284 OA
ENDBRANCH  16  18
ENDBRANCH  15  16
ENDBRANCH  14  15
ENDBRANCH  13  14
ENDBRANCH   4  13
BRANCH  10  20
HETATM   20  C13 UNL     1      23.389   0.350  53.513  1.00  0.00    -0.013 A 
HETATM   21  C14 UNL     1      22.161   0.883  53.260  1.00  0.00     0.012 A 
HETATM   22  C15 UNL     1      21.117   0.216  53.898  1.00  0.00     0.020 A 
HETATM   23  C16 UNL     1      21.391  -0.871  54.692  1.00  0.00     0.116 A 
HETATM   24  N4  UNL     1      22.658  -1.272  54.841  1.00  0.00    -0.273 NA
HETATM   25  C17 UNL     1      23.728  -0.706  54.277  1.00  0.00     0.125 A 
ENDBRANCH  10  20
TORSDOF 7
ENDMDL
MODEL 2
REMARK VINA RESULT:      -7.7      1.843      2.091
REMARK  7 active torsions:
REMARK  status: ('A' for Active; 'I' for Inactive)
REMARK    1  A    between atoms: C4_4  and  C5_5 
REMARK    2  A    between atoms: C5_5  and  C6_6 
REMARK    3  A    between atoms: C6_6  and  C7_7 
REMARK    4  A    between atoms: C7_7  and  N1_8 
REMARK    5  A    between atoms: N1_8  and  C8_9 
REMARK    6  A    between atoms: C12_16  and  C13_17 
REMARK    7  A    between atoms: C12_16  and  N5_23 
ROOT
HETATM    1  C1  UNL     1      23.496   3.004  49.153  1.00  0.00     0.051 C 
HETATM    2  C2  UNL     1      24.644   3.071  50.054  1.00  0.00    -0.028 A 
HETATM    3  C3  UNL     1      25.843   3.580  50.292  1.00  0.00     0.043 A 
HETATM    4  C4  UNL     1      26.361   4.460  49.343  1.00  0.00     0.081 C 
HETATM    5  N2  UNL     1      26.351   3.081  51.524  1.00  0.00    -0.359 N 
HETATM    6  C9  UNL     1      25.985   2.213  52.583  1.00  0.00     0.191 A 
HETATM    7  N3  UNL     1      24.849   1.798  52.255  1.00  0.00     0.000 N 
HETATM    8  C10 UNL     1      24.268   2.187  51.130  1.00  0.00    -0.035 A 
HETATM    9  C11 UNL     1      23.350   1.338  51.678  1.00  0.00     0.062 A 
HETATM   10  C12 UNL     1      23.932   0.885  52.904  1.00  0.00     0.095 A 
HETATM   11  N5  UNL     1      25.151   1.379  53.180  1.00  0.00    -0.193 NA
HETATM   12  H10 UNL     1      27.203   3.182  52.106  1.00  0.00     0.162 HD
ENDROOT
BRANCH   4  13
HETATM   13  C5  UNL     1      26.096   5.753  49.470  1.00  0.00    -0.146 C 
BRANCH  13  14
HETATM   14  C6  UNL     1      25.823   6.996  49.845  1.00  0.00     0.091 C 
BRANCH  14  15
HETATM   15  C7  UNL     1      24.542   7.204  50.561  1.00  0.00     0.139 C 
BRANCH  15  16
HETATM   16  N1  UNL     1      24.516   6.637  51.881  1.00  0.00    -0.367 N 
HETATM   17  H8  UNL     1      25.202   6.863  52.655  1.00  0.00     0.161 HD
BRANCH  16  18
HETATM   18  C8  UNL     1      23.446   5.702  52.084  1.00  0.00     0.348 C 
HETATM   19  O1  UNL     1      22.605   5.811  51.142  1.00  0.00    -0.284 OA
ENDBRANCH  16  18
ENDBRANCH  15  16
ENDBRANCH  14  15
ENDBRANCH  13  14
ENDBRANCH   4  13
BRANCH  10  20
HETATM   20  C13 UNL     1      22.988  -0.045  53.560  1.00  0.00    -0.013 A 
HETATM   21  C14 UNL     1      21.775   0.156  52.973  1.00  0.00     0.012 A 
HETATM   22  C15 UNL     1      20.762  -0.654  53.484  1.00  0.00     0.020 A 
HETATM   23  C16 UNL     1      21.049  -1.547  54.488  1.00  0.00     0.116 A 
HETATM   24  N4  UNL     1      22.297  -1.624  54.960  1.00  0.00    -0.273 NA
HETATM   25  C17 UNL     1      23.337  -0.897  54.543  1.00  0.00     0.125 A 
ENDBRANCH  10  20
TORSDOF 7
ENDMDL
MODEL 3
REMARK VINA RESULT:      -7.2      3.587      5.424
REMARK  7 active torsions:
REMARK  status: ('A' for Active; 'I' for Inactive)
REMARK    1  A    between atoms: C4_4  and  C5_5 
REMARK    2  A    between atoms: C5_5  and  C6_6 
REMARK    3  A    between atoms: C6_6  and  C7_7 
REMARK    4  A    between atoms: C7_7  and  N1_8 
REMARK    5  A    between atoms: N1_8  and  C8_9 
REMARK    6  A    between atoms: C12_16  and  C13_17 
REMARK    7  A    between atoms: C12_16  and  N5_23 
ROOT
HETATM    1  C1  UNL     1      26.437   4.100  49.330  1.00  0.00     0.051 C 
HETATM    2  C2  UNL     1      25.281   3.765  50.159  1.00  0.00    -0.028 A 
HETATM    3  C3  UNL     1      24.015   4.015  50.453  1.00  0.00     0.043 A 
HETATM    4  C4  UNL     1      23.376   5.016  49.723  1.00  0.00     0.081 C 
HETATM    5  N2  UNL     1      23.579   3.159  51.503  1.00  0.00    -0.359 N 
HETATM    6  C9  UNL     1      24.064   2.121  52.337  1.00  0.00     0.191 A 
HETATM    7  N3  UNL     1      25.254   1.973  51.973  1.00  0.00     0.000 N 
HETATM    8  C10 UNL     1      25.779   2.710  51.006  1.00  0.00    -0.035 A 
HETATM    9  C11 UNL     1      26.813   1.900  51.376  1.00  0.00     0.062 A 
HETATM   10  C12 UNL     1      26.296   1.076  52.427  1.00  0.00     0.095 A 
HETATM   11  N5  UNL     1      25.012   1.300  52.755  1.00  0.00    -0.193 NA
HETATM   12  H10 UNL     1      22.714   2.985  52.049  1.00  0.00     0.162 HD
ENDROOT
BRANCH   4  13
HETATM   13  C5  UNL     1      22.756   4.681  48.599  1.00  0.00    -0.146 C 
BRANCH  13  14
HETATM   14  C6  UNL     1      22.189   4.585  47.404  1.00  0.00     0.091 C 
BRANCH  14  15
HETATM   15  C7  UNL     1      21.732   3.235  46.996  1.00  0.00     0.139 C 
BRANCH  15  16
HETATM   16  N1  UNL     1      22.404   2.164  47.676  1.00  0.00    -0.367 N 
HETATM   17  H8  UNL     1      23.440   1.952  47.607  1.00  0.00     0.161 HD
BRANCH  16  18
HETATM   18  C8  UNL     1      21.535   1.365  48.492  1.00  0.00     0.348 C 
HETATM   19  O1  UNL     1      22.078   1.165  49.620  1.00  0.00    -0.284 OA
ENDBRANCH  16  18
ENDBRANCH  15  16
ENDBRANCH  14  15
ENDBRANCH  13  14
ENDBRANCH   4  13
BRANCH  10  20
HETATM   20  C13 UNL     1      27.367   0.164  52.883  1.00  0.00    -0.013 A 
HETATM   21  C14 UNL     1      28.404   0.953  53.282  1.00  0.00     0.012 A 
HETATM   22  C15 UNL     1      29.507   0.238  53.746  1.00  0.00     0.020 A 
HETATM   23  C16 UNL     1      29.467  -1.135  53.765  1.00  0.00     0.116 A 
HETATM   24  N4  UNL     1      28.369  -1.765  53.337  1.00  0.00    -0.273 NA
HETATM   25  C17 UNL     1      27.261  -1.179  52.874  1.00  0.00     0.125 A 
ENDBRANCH  10  20
TORSDOF 7
ENDMDL
MODEL 4
REMARK VINA RESULT:      -7.2      5.250      7.866
REMARK  7 active torsions:
REMARK  status: ('A' for Active; 'I' for Inactive)
REMARK    1  A    between atoms: C4_4  and  C5_5 
REMARK    2  A    between atoms: C5_5  and  C6_6 
REMARK    3  A    between atoms: C6_6  and  C7_7 
REMARK    4  A    between atoms: C7_7  and  N1_8 
REMARK    5  A    between atoms: N1_8  and  C8_9 
REMARK    6  A    between atoms: C12_16  and  C13_17 
REMARK    7  A    between atoms: C12_16  and  N5_23 
ROOT
HETATM    1  C1  UNL     1      22.791   2.312  51.214  1.00  0.00     0.051 C 
HETATM    2  C2  UNL     1      22.264   1.449  52.268  1.00  0.00    -0.028 A 
HETATM    3  C3  UNL     1      21.201   1.045  52.947  1.00  0.00     0.043 A 
HETATM    4  C4  UNL     1      19.974   1.611  52.605  1.00  0.00     0.081 C 
HETATM    5  N2  UNL     1      21.580   0.077  53.919  1.00  0.00    -0.359 N 
HETATM    6  C9  UNL     1      22.732  -0.596  54.396  1.00  0.00     0.191 A 
HETATM    7  N3  UNL     1      23.663  -0.141  53.690  1.00  0.00     0.000 N 
HETATM    8  C10 UNL     1      23.438   0.766  52.751  1.00  0.00    -0.035 A 
HETATM    9  C11 UNL     1      24.786   0.562  52.673  1.00  0.00     0.062 A 
HETATM   10  C12 UNL     1      25.084  -0.417  53.674  1.00  0.00     0.095 A 
HETATM   11  N5  UNL     1      24.030  -0.852  54.386  1.00  0.00    -0.193 NA
HETATM   12  H10 UNL     1      21.127  -0.500  54.651  1.00  0.00     0.162 HD
ENDROOT
BRANCH   4  13
HETATM   13  C5  UNL     1      19.247   1.024  51.663  1.00  0.00    -0.146 C 
BRANCH  13  14
HETATM   14  C6  UNL     1      18.597   0.221  50.831  1.00  0.00     0.091 C 
BRANCH  14  15
HETATM   15  C7  UNL     1      17.454  -0.533  51.398  1.00  0.00     0.139 C 
BRANCH  15  16
HETATM   16  N1  UNL     1      17.459  -0.605  52.832  1.00  0.00    -0.367 N 
HETATM   17  H8  UNL     1      17.193   0.187  53.483  1.00  0.00     0.161 HD
BRANCH  16  18
HETATM   18  C8  UNL     1      17.866  -1.882  53.343  1.00  0.00     0.348 C 
HETATM   19  O1  UNL     1      19.066  -1.813  53.748  1.00  0.00    -0.284 OA
ENDBRANCH  16  18
ENDBRANCH  15  16
ENDBRANCH  14  15
ENDBRANCH  13  14
ENDBRANCH   4  13
BRANCH  10  20
HETATM   20  C13 UNL     1      26.536  -0.692  53.649  1.00  0.00    -0.013 A 
HETATM   21  C14 UNL     1      27.122   0.248  54.443  1.00  0.00     0.012 A 
HETATM   22  C15 UNL     1      28.508   0.127  54.527  1.00  0.00     0.020 A 
HETATM   23  C16 UNL     1      29.145  -0.878  53.840  1.00  0.00     0.116 A 
HETATM   24  N4  UNL     1      28.423  -1.725  53.100  1.00  0.00    -0.273 NA
HETATM   25  C17 UNL     1      27.096  -1.698  52.951  1.00  0.00     0.125 A 
ENDBRANCH  10  20
TORSDOF 7
ENDMDL
MODEL 5
REMARK VINA RESULT:      -7.0      2.983      4.338
REMARK  7 active torsions:
REMARK  status: ('A' for Active; 'I' for Inactive)
REMARK    1  A    between atoms: C4_4  and  C5_5 
REMARK    2  A    between atoms: C5_5  and  C6_6 
REMARK    3  A    between atoms: C6_6  and  C7_7 
REMARK    4  A    between atoms: C7_7  and  N1_8 
REMARK    5  A    between atoms: N1_8  and  C8_9 
REMARK    6  A    between atoms: C12_16  and  C13_17 
REMARK    7  A    between atoms: C12_16  and  N5_23 
ROOT
HETATM    1  C1  UNL     1      22.569   2.103  51.210  1.00  0.00     0.051 C 
HETATM    2  C2  UNL     1      23.532   2.851  50.405  1.00  0.00    -0.028 A 
HETATM    3  C3  UNL     1      23.730   3.655  49.372  1.00  0.00     0.043 A 
HETATM    4  C4  UNL     1      22.608   4.042  48.641  1.00  0.00     0.081 C 
HETATM    5  N2  UNL     1      25.116   3.951  49.242  1.00  0.00    -0.359 N 
HETATM    6  C9  UNL     1      26.356   3.663  49.864  1.00  0.00     0.191 A 
HETATM    7  N3  UNL     1      26.048   2.905  50.814  1.00  0.00     0.000 N 
HETATM    8  C10 UNL     1      24.791   2.554  51.040  1.00  0.00    -0.035 A 
HETATM    9  C11 UNL     1      25.478   1.910  52.029  1.00  0.00     0.062 A 
HETATM   10  C12 UNL     1      26.853   2.258  51.829  1.00  0.00     0.095 A 
HETATM   11  N5  UNL     1      27.095   3.073  50.789  1.00  0.00    -0.193 NA
HETATM   12  H10 UNL     1      25.732   4.507  48.620  1.00  0.00     0.162 HD
ENDROOT
BRANCH   4  13
HETATM   13  C5  UNL     1      21.959   5.138  49.011  1.00  0.00    -0.146 C 
BRANCH  13  14
HETATM   14  C6  UNL     1      21.430   6.342  49.186  1.00  0.00     0.091 C 
BRANCH  14  15
HETATM   15  C7  UNL     1      21.712   7.007  50.480  1.00  0.00     0.139 C 
BRANCH  15  16
HETATM   16  N1  UNL     1      22.977   7.685  50.521  1.00  0.00    -0.367 N 
HETATM   17  H8  UNL     1      23.180   8.624  50.073  1.00  0.00     0.161 HD
BRANCH  16  18
HETATM   18  C8  UNL     1      23.990   6.971  51.243  1.00  0.00     0.348 C 
HETATM   19  O1  UNL     1      24.996   6.788  50.492  1.00  0.00    -0.284 OA
ENDBRANCH  16  18
ENDBRANCH  15  16
ENDBRANCH  14  15
ENDBRANCH  13  14
ENDBRANCH   4  13
BRANCH  10  20
HETATM   20  C13 UNL     1      27.665   1.593  52.871  1.00  0.00    -0.013 A 
HETATM   21  C14 UNL     1      27.405   0.259  52.771  1.00  0.00     0.012 A 
HETATM   22  C15 UNL     1      28.100  -0.519  53.695  1.00  0.00     0.020 A 
HETATM   23  C16 UNL     1      28.951   0.086  54.588  1.00  0.00     0.116 A 
HETATM   24  N4  UNL     1      29.097   1.414  54.558  1.00  0.00    -0.273 NA
HETATM   25  C17 UNL     1      28.480   2.250  53.717  1.00  0.00     0.125 A 
ENDBRANCH  10  20
TORSDOF 7
ENDMDL
MODEL 6
REMARK VINA RESULT:      -6.9      3.912      5.987
REMARK  7 active torsions:
REMARK  status: ('A' for Active; 'I' for Inactive)
REMARK    1  A    between atoms: C4_4  and  C5_5 
REMARK    2  A    between atoms: C5_5  and  C6_6 
REMARK    3  A    between atoms: C6_6  and  C7_7 
REMARK    4  A    between atoms: C7_7  and  N1_8 
REMARK    5  A    between atoms: N1_8  and  C8_9 
REMARK    6  A    between atoms: C12_16  and  C13_17 
REMARK    7  A    between atoms: C12_16  and  N5_23 
ROOT
HETATM    1  C1  UNL     1      24.201   3.229  51.172  1.00  0.00     0.051 C 
HETATM    2  C2  UNL     1      23.373   2.311  51.951  1.00  0.00    -0.028 A 
HETATM    3  C3  UNL     1      22.170   2.029  52.425  1.00  0.00     0.043 A 
HETATM    4  C4  UNL     1      21.140   2.917  52.119  1.00  0.00     0.081 C 
HETATM    5  N2  UNL     1      22.212   0.822  53.178  1.00  0.00    -0.359 N 
HETATM    6  C9  UNL     1      23.129  -0.179  53.584  1.00  0.00     0.191 A 
HETATM    7  N3  UNL     1      24.218   0.188  53.084  1.00  0.00     0.000 N 
HETATM    8  C10 UNL     1      24.310   1.295  52.363  1.00  0.00    -0.035 A 
HETATM    9  C11 UNL     1      25.586   0.810  52.355  1.00  0.00     0.062 A 
HETATM   10  C12 UNL     1      25.543  -0.395  53.126  1.00  0.00     0.095 A 
HETATM   11  N5  UNL     1      24.337  -0.715  53.626  1.00  0.00    -0.193 NA
HETATM   12  H10 UNL     1      21.557   0.224  53.716  1.00  0.00     0.162 HD
ENDROOT
BRANCH   4  13
HETATM   13  C5  UNL     1      20.442   2.717  51.009  1.00  0.00    -0.146 C 
BRANCH  13  14
HETATM   14  C6  UNL     1      19.638   2.326  50.029  1.00  0.00     0.091 C 
BRANCH  14  15
HETATM   15  C7  UNL     1      20.243   2.218  48.681  1.00  0.00     0.139 C 
BRANCH  15  16
HETATM   16  N1  UNL     1      21.419   1.394  48.635  1.00  0.00    -0.367 N 
HETATM   17  H8  UNL     1      21.522   0.453  49.109  1.00  0.00     0.161 HD
BRANCH  16  18
HETATM   18  C8  UNL     1      22.491   1.963  47.869  1.00  0.00     0.348 C 
HETATM   19  O1  UNL     1      22.493   3.222  48.014  1.00  0.00    -0.284 OA
ENDBRANCH  16  18
ENDBRANCH  15  16
ENDBRANCH  14  15
ENDBRANCH  13  14
ENDBRANCH   4  13
BRANCH  10  20
HETATM   20  C13 UNL     1      26.899  -0.982  53.163  1.00  0.00    -0.013 A 
HETATM   21  C14 UNL     1      27.737   0.006  53.587  1.00  0.00     0.012 A 
HETATM   22  C15 UNL     1      29.071  -0.390  53.678  1.00  0.00     0.020 A 
HETATM   23  C16 UNL     1      29.421  -1.677  53.349  1.00  0.00     0.116 A 
HETATM   24  N4  UNL     1      28.475  -2.531  52.946  1.00  0.00    -0.273 NA
HETATM   25  C17 UNL     1      27.173  -2.256  52.825  1.00  0.00     0.125 A 
ENDBRANCH  10  20
TORSDOF 7
ENDMDL
MODEL 7
REMARK VINA RESULT:      -6.7      3.650      8.593
REMARK  7 active torsions:
REMARK  status: ('A' for Active; 'I' for Inactive)
REMARK    1  A    between atoms: C4_4  and  C5_5 
REMARK    2  A    between atoms: C5_5  and  C6_6 
REMARK    3  A    between atoms: C6_6  and  C7_7 
REMARK    4  A    between atoms: C7_7  and  N1_8 
REMARK    5  A    between atoms: N1_8  and  C8_9 
REMARK    6  A    between atoms: C12_16  and  C13_17 
REMARK    7  A    between atoms: C12_16  and  N5_23 
ROOT
HETATM    1  C1  UNL     1      26.413   2.833  49.397  1.00  0.00     0.051 C 
HETATM    2  C2  UNL     1      25.726   3.987  49.971  1.00  0.00    -0.028 A 
HETATM    3  C3  UNL     1      24.762   4.425  50.766  1.00  0.00     0.043 A 
HETATM    4  C4  UNL     1      23.978   3.466  51.405  1.00  0.00     0.081 C 
HETATM    5  N2  UNL     1      24.749   5.848  50.781  1.00  0.00    -0.359 N 
HETATM    6  C9  UNL     1      25.438   6.951  50.219  1.00  0.00     0.191 A 
HETATM    7  N3  UNL     1      26.316   6.422  49.497  1.00  0.00     0.000 N 
HETATM    8  C10 UNL     1      26.430   5.106  49.397  1.00  0.00    -0.035 A 
HETATM    9  C11 UNL     1      27.423   5.569  48.582  1.00  0.00     0.062 A 
HETATM   10  C12 UNL     1      27.344   6.996  48.654  1.00  0.00     0.095 A 
HETATM   11  N5  UNL     1      26.376   7.480  49.451  1.00  0.00    -0.193 NA
HETATM   12  H10 UNL     1      24.207   6.611  51.229  1.00  0.00     0.162 HD
ENDROOT
BRANCH   4  13
HETATM   13  C5  UNL     1      24.368   3.018  52.591  1.00  0.00    -0.146 C 
BRANCH  13  14
HETATM   14  C6  UNL     1      24.992   2.594  53.682  1.00  0.00     0.091 C 
BRANCH  14  15
HETATM   15  C7  UNL     1      26.386   2.124  53.505  1.00  0.00     0.139 C 
BRANCH  15  16
HETATM   16  N1  UNL     1      26.927   1.463  54.660  1.00  0.00    -0.367 N 
HETATM   17  H8  UNL     1      26.552   1.554  55.646  1.00  0.00     0.161 HD
BRANCH  16  18
HETATM   18  C8  UNL     1      28.062   0.634  54.369  1.00  0.00     0.348 C 
HETATM   19  O1  UNL     1      27.988  -0.436  55.044  1.00  0.00    -0.284 OA
ENDBRANCH  16  18
ENDBRANCH  15  16
ENDBRANCH  14  15
ENDBRANCH  13  14
ENDBRANCH   4  13
BRANCH  10  20
HETATM   20  C13 UNL     1      28.397   7.572  47.791  1.00  0.00    -0.013 A 
HETATM   21  C14 UNL     1      29.396   6.647  47.730  1.00  0.00     0.012 A 
HETATM   22  C15 UNL     1      30.479   7.041  46.945  1.00  0.00     0.020 A 
HETATM   23  C16 UNL     1      30.457   8.267  46.325  1.00  0.00     0.116 A 
HETATM   24  N4  UNL     1      29.397   9.064  46.485  1.00  0.00    -0.273 NA
HETATM   25  C17 UNL     1      28.311   8.785  47.213  1.00  0.00     0.125 A 
ENDBRANCH  10  20
TORSDOF 7
ENDMDL
MODEL 8
REMARK VINA RESULT:      -6.6      1.586      1.921
REMARK  7 active torsions:
REMARK  status: ('A' for Active; 'I' for Inactive)
REMARK    1  A    between atoms: C4_4  and  C5_5 
REMARK    2  A    between atoms: C5_5  and  C6_6 
REMARK    3  A    between atoms: C6_6  and  C7_7 
REMARK    4  A    between atoms: C7_7  and  N1_8 
REMARK    5  A    between atoms: N1_8  and  C8_9 
REMARK    6  A    between atoms: C12_16  and  C13_17 
REMARK    7  A    between atoms: C12_16  and  N5_23 
ROOT
HETATM    1  C1  UNL     1      23.669   3.209  48.863  1.00  0.00     0.051 C 
HETATM    2  C2  UNL     1      24.788   3.181  49.801  1.00  0.00    -0.028 A 
HETATM    3  C3  UNL     1      26.033   3.553  50.059  1.00  0.00     0.043 A 
HETATM    4  C4  UNL     1      26.683   4.316  49.091  1.00  0.00     0.081 C 
HETATM    5  N2  UNL     1      26.437   3.058  51.331  1.00  0.00    -0.359 N 
HETATM    6  C9  UNL     1      25.936   2.295  52.414  1.00  0.00     0.191 A 
HETATM    7  N3  UNL     1      24.768   2.004  52.064  1.00  0.00     0.000 N 
HETATM    8  C10 UNL     1      24.274   2.404  50.902  1.00  0.00    -0.035 A 
HETATM    9  C11 UNL     1      23.243   1.701  51.454  1.00  0.00     0.062 A 
HETATM   10  C12 UNL     1      23.727   1.242  52.720  1.00  0.00     0.095 A 
HETATM   11  N5  UNL     1      24.988   1.598  53.018  1.00  0.00    -0.193 NA
HETATM   12  H10 UNL     1      27.278   3.085  51.938  1.00  0.00     0.162 HD
ENDROOT
BRANCH   4  13
HETATM   13  C5  UNL     1      26.575   5.636  49.148  1.00  0.00    -0.146 C 
BRANCH  13  14
HETATM   14  C6  UNL     1      26.230   6.910  49.284  1.00  0.00     0.091 C 
BRANCH  14  15
HETATM   15  C7  UNL     1      25.637   7.565  48.094  1.00  0.00     0.139 C 
BRANCH  15  16
HETATM   16  N1  UNL     1      24.211   7.717  48.165  1.00  0.00    -0.367 N 
HETATM   17  H8  UNL     1      23.508   7.111  47.654  1.00  0.00     0.161 HD
BRANCH  16  18
HETATM   18  C8  UNL     1      23.788   8.794  49.013  1.00  0.00     0.348 C 
HETATM   19  O1  UNL     1      22.924   8.369  49.838  1.00  0.00    -0.284 OA
ENDBRANCH  16  18
ENDBRANCH  15  16
ENDBRANCH  14  15
ENDBRANCH  13  14
ENDBRANCH   4  13
BRANCH  10  20
HETATM   20  C13 UNL     1      22.656   0.466  53.383  1.00  0.00    -0.013 A 
HETATM   21  C14 UNL     1      23.260  -0.611  53.961  1.00  0.00     0.012 A 
HETATM   22  C15 UNL     1      22.378  -1.454  54.634  1.00  0.00     0.020 A 
HETATM   23  C16 UNL     1      21.038  -1.151  54.664  1.00  0.00     0.116 A 
HETATM   24  N4  UNL     1      20.601  -0.051  54.044  1.00  0.00    -0.273 NA
HETATM   25  C17 UNL     1      21.358   0.822  53.372  1.00  0.00     0.125 A 
ENDBRANCH  10  20
TORSDOF 7
ENDMDL
MODEL 9
REMARK VINA RESULT:      -6.6      5.666     10.239
REMARK  7 active torsions:
REMARK  status: ('A' for Active; 'I' for Inactive)
REMARK    1  A    between atoms: C4_4  and  C5_5 
REMARK    2  A    between atoms: C5_5  and  C6_6 
REMARK    3  A    between atoms: C6_6  and  C7_7 
REMARK    4  A    between atoms: C7_7  and  N1_8 
REMARK    5  A    between atoms: N1_8  and  C8_9 
REMARK    6  A    between atoms: C12_16  and  C13_17 
REMARK    7  A    between atoms: C12_16  and  N5_23 
ROOT
HETATM    1  C1  UNL     1      19.490   0.304  51.294  1.00  0.00     0.051 C 
HETATM    2  C2  UNL     1      19.768  -0.300  52.595  1.00  0.00    -0.028 A 
HETATM    3  C3  UNL     1      19.279  -0.897  53.671  1.00  0.00     0.043 A 
HETATM    4  C4  UNL     1      17.902  -1.108  53.712  1.00  0.00     0.081 C 
HETATM    5  N2  UNL     1      20.329  -1.198  54.583  1.00  0.00    -0.359 N 
HETATM    6  C9  UNL     1      21.734  -1.065  54.711  1.00  0.00     0.191 A 
HETATM    7  N3  UNL     1      22.082  -0.496  53.649  1.00  0.00     0.000 N 
HETATM    8  C10 UNL     1      21.197  -0.163  52.721  1.00  0.00    -0.035 A 
HETATM    9  C11 UNL     1      22.382   0.262  52.191  1.00  0.00     0.062 A 
HETATM   10  C12 UNL     1      23.379  -0.076  53.162  1.00  0.00     0.095 A 
HETATM   11  N5  UNL     1      22.921  -0.683  54.270  1.00  0.00    -0.193 NA
HETATM   12  H10 UNL     1      20.440  -1.640  55.514  1.00  0.00     0.162 HD
ENDROOT
BRANCH   4  13
HETATM   13  C5  UNL     1      17.420  -2.238  53.211  1.00  0.00    -0.146 C 
BRANCH  13  14
HETATM   14  C6  UNL     1      16.715  -3.283  52.798  1.00  0.00     0.091 C 
BRANCH  14  15
HETATM   15  C7  UNL     1      16.784  -4.501  53.639  1.00  0.00     0.139 C 
BRANCH  15  16
HETATM   16  N1  UNL     1      15.575  -4.778  54.361  1.00  0.00    -0.367 N 
HETATM   17  H8  UNL     1      15.135  -4.139  55.083  1.00  0.00     0.161 HD
BRANCH  16  18
HETATM   18  C8  UNL     1      14.977  -6.038  54.022  1.00  0.00     0.348 C 
HETATM   19  O1  UNL     1      15.532  -6.963  54.688  1.00  0.00    -0.284 OA
ENDBRANCH  16  18
ENDBRANCH  15  16
ENDBRANCH  14  15
ENDBRANCH  13  14
ENDBRANCH   4  13
BRANCH  10  20
HETATM   20  C13 UNL     1      24.698   0.357  52.654  1.00  0.00    -0.013 A 
HETATM   21  C14 UNL     1      24.492   1.530  51.991  1.00  0.00     0.012 A 
HETATM   22  C15 UNL     1      25.652   2.077  51.445  1.00  0.00     0.020 A 
HETATM   23  C16 UNL     1      26.852   1.427  51.608  1.00  0.00     0.116 A 
HETATM   24  N4  UNL     1      26.887   0.277  52.290  1.00  0.00    -0.273 NA
HETATM   25  C17 UNL     1      25.839  -0.331  52.851  1.00  0.00     0.125 A 
ENDBRANCH  10  20
TORSDOF 7
ENDMDL
