MODEL 1
REMARK VINA RESULT:      -8.9      0.000      0.000
REMARK  1 active torsions:
REMARK  status: ('A' for Active; 'I' for Inactive)
REMARK    1  A    between atoms: C17_20  and  O1_21 
ROOT
HETATM    1  C1  UNL     1      24.757   6.824  48.478  1.00  0.00     0.048 C 
HETATM    2  C2  UNL     1      24.488   5.473  49.070  1.00  0.00    -0.060 A 
HETATM    3  C3  UNL     1      23.388   4.764  48.609  1.00  0.00     0.009 A 
HETATM    4  C4  UNL     1      23.121   3.502  49.150  1.00  0.00     0.032 A 
HETATM    5  C5  UNL     1      23.980   3.007  50.137  1.00  0.00     0.056 A 
HETATM    6  C6  UNL     1      25.079   3.754  50.575  1.00  0.00     0.070 A 
HETATM    7  C7  UNL     1      25.341   4.991  50.045  1.00  0.00     0.039 A 
HETATM    8  N1  UNL     1      25.989   3.291  51.583  1.00  0.00    -0.314 N 
HETATM    9  N2  UNL     1      26.043   2.212  52.432  1.00  0.00    -0.191 NA
HETATM   10  C8  UNL     1      25.464   1.010  51.916  1.00  0.00     0.105 C 
HETATM   11  C9  UNL     1      23.957   1.099  51.795  1.00  0.00     0.142 C 
HETATM   12  N3  UNL     1      23.528   1.704  50.552  1.00  0.00    -0.386 N 
HETATM   13  C10 UNL     1      25.675  -0.102  52.923  1.00  0.00     0.062 C 
HETATM   14  C11 UNL     1      27.115  -0.380  53.132  1.00  0.00    -0.046 A 
HETATM   15  C12 UNL     1      27.685  -1.630  53.273  1.00  0.00     0.008 A 
HETATM   16  C13 UNL     1      29.067  -1.739  53.463  1.00  0.00     0.001 A 
HETATM   17  C14 UNL     1      29.852  -0.599  53.510  1.00  0.00     0.001 A 
HETATM   18  C15 UNL     1      29.260   0.654  53.365  1.00  0.00     0.011 A 
HETATM   19  C16 UNL     1      27.889   0.765  53.176  1.00  0.00    -0.007 A 
HETATM   20  C17 UNL     1      27.312   2.096  53.029  1.00  0.00     0.247 C 
HETATM   21  H7  UNL     1      26.795   3.968  51.662  1.00  0.00     0.181 HD
HETATM   22  H11 UNL     1      22.860   1.194  49.911  1.00  0.00     0.159 HD
ENDROOT
BRANCH  20  23
HETATM   23  O1  UNL     1      28.277   2.900  52.378  1.00  0.00    -0.375 OA
HETATM   24  H19 UNL     1      29.165   2.826  52.837  1.00  0.00     0.212 HD
ENDBRANCH  20  23
TORSDOF 1
ENDMDL
MODEL 2
REMARK VINA RESULT:      -8.7      4.300      5.864
REMARK  1 active torsions:
REMARK  status: ('A' for Active; 'I' for Inactive)
REMARK    1  A    between atoms: C17_20  and  O1_21 
ROOT
HETATM    1  C1  UNL     1      16.539   0.846  50.681  1.00  0.00     0.048 C 
HETATM    2  C2  UNL     1      17.562   0.243  51.598  1.00  0.00    -0.060 A 
HETATM    3  C3  UNL     1      17.191  -0.859  52.355  1.00  0.00     0.009 A 
HETATM    4  C4  UNL     1      18.130  -1.435  53.216  1.00  0.00     0.032 A 
HETATM    5  C5  UNL     1      19.410  -0.872  53.276  1.00  0.00     0.056 A 
HETATM    6  C6  UNL     1      19.743   0.240  52.496  1.00  0.00     0.070 A 
HETATM    7  C7  UNL     1      18.823   0.805  51.651  1.00  0.00     0.039 A 
HETATM    8  N1  UNL     1      21.040   0.854  52.521  1.00  0.00    -0.314 N 
HETATM    9  N2  UNL     1      22.182   0.700  53.270  1.00  0.00    -0.191 NA
HETATM   10  C8  UNL     1      22.425  -0.632  53.731  1.00  0.00     0.105 C 
HETATM   11  C9  UNL     1      21.429  -1.072  54.784  1.00  0.00     0.142 C 
HETATM   12  N3  UNL     1      20.213  -1.612  54.216  1.00  0.00    -0.386 N 
HETATM   13  C10 UNL     1      23.752  -0.659  54.462  1.00  0.00     0.062 C 
HETATM   14  C11 UNL     1      24.875  -0.309  53.562  1.00  0.00    -0.046 A 
HETATM   15  C12 UNL     1      26.117  -0.913  53.547  1.00  0.00     0.008 A 
HETATM   16  C13 UNL     1      27.084  -0.475  52.636  1.00  0.00     0.001 A 
HETATM   17  C14 UNL     1      26.793   0.556  51.758  1.00  0.00     0.001 A 
HETATM   18  C15 UNL     1      25.535   1.153  51.788  1.00  0.00     0.011 A 
HETATM   19  C16 UNL     1      24.573   0.722  52.690  1.00  0.00    -0.007 A 
HETATM   20  C17 UNL     1      23.270   1.375  52.686  1.00  0.00     0.247 C 
HETATM   21  H7  UNL     1      21.089   1.596  51.771  1.00  0.00     0.181 HD
HETATM   22  H11 UNL     1      19.880  -2.579  54.484  1.00  0.00     0.159 HD
ENDROOT
BRANCH  20  23
HETATM   23  O1  UNL     1      22.999   1.757  51.351  1.00  0.00    -0.375 OA
HETATM   24  H19 UNL     1      22.847   0.949  50.777  1.00  0.00     0.212 HD
ENDBRANCH  20  23
TORSDOF 1
ENDMDL
MODEL 3
REMARK VINA RESULT:      -8.5      4.184      7.328
REMARK  1 active torsions:
REMARK  status: ('A' for Active; 'I' for Inactive)
REMARK    1  A    between atoms: C17_20  and  O1_21 
ROOT
HETATM    1  C1  UNL     1      28.047  -1.133  53.380  1.00  0.00     0.048 C 
HETATM    2  C2  UNL     1      26.850  -0.346  52.938  1.00  0.00    -0.060 A 
HETATM    3  C3  UNL     1      27.035   0.643  51.982  1.00  0.00     0.009 A 
HETATM    4  C4  UNL     1      25.930   1.389  51.557  1.00  0.00     0.032 A 
HETATM    5  C5  UNL     1      24.681   1.103  52.117  1.00  0.00     0.056 A 
HETATM    6  C6  UNL     1      24.537   0.097  53.079  1.00  0.00     0.070 A 
HETATM    7  C7  UNL     1      25.619  -0.634  53.496  1.00  0.00     0.039 A 
HETATM    8  N1  UNL     1      23.278  -0.235  53.683  1.00  0.00    -0.314 N 
HETATM    9  N2  UNL     1      22.009   0.292  53.654  1.00  0.00    -0.191 NA
HETATM   10  C8  UNL     1      21.643   0.913  52.418  1.00  0.00     0.105 C 
HETATM   11  C9  UNL     1      22.404   2.199  52.169  1.00  0.00     0.142 C 
HETATM   12  N3  UNL     1      23.690   1.978  51.545  1.00  0.00    -0.386 N 
HETATM   13  C10 UNL     1      20.200   1.365  52.511  1.00  0.00     0.062 C 
HETATM   14  C11 UNL     1      19.282   0.218  52.699  1.00  0.00    -0.046 A 
HETATM   15  C12 UNL     1      18.049   0.062  52.096  1.00  0.00     0.008 A 
HETATM   16  C13 UNL     1      17.289  -1.081  52.369  1.00  0.00     0.001 A 
HETATM   17  C14 UNL     1      17.774  -2.045  53.237  1.00  0.00     0.001 A 
HETATM   18  C15 UNL     1      19.020  -1.871  53.835  1.00  0.00     0.011 A 
HETATM   19  C16 UNL     1      19.776  -0.739  53.567  1.00  0.00    -0.007 A 
HETATM   20  C17 UNL     1      21.075  -0.598  54.215  1.00  0.00     0.247 C 
HETATM   21  H7  UNL     1      23.397  -1.093  54.286  1.00  0.00     0.181 HD
HETATM   22  H11 UNL     1      23.937   2.464  50.639  1.00  0.00     0.159 HD
ENDROOT
BRANCH  20  23
HETATM   23  O1  UNL     1      21.609  -1.899  54.366  1.00  0.00    -0.375 OA
HETATM   24  H19 UNL     1      20.921  -2.591  54.137  1.00  0.00     0.212 HD
ENDBRANCH  20  23
TORSDOF 1
ENDMDL
MODEL 4
REMARK VINA RESULT:      -8.4      1.417      6.529
REMARK  1 active torsions:
REMARK  status: ('A' for Active; 'I' for Inactive)
REMARK    1  A    between atoms: C17_20  and  O1_21 
ROOT
HETATM    1  C1  UNL     1      28.802  -0.062  54.561  1.00  0.00     0.048 C 
HETATM    2  C2  UNL     1      27.565   0.442  53.880  1.00  0.00    -0.060 A 
HETATM    3  C3  UNL     1      26.335   0.092  54.416  1.00  0.00     0.009 A 
HETATM    4  C4  UNL     1      25.170   0.552  53.794  1.00  0.00     0.032 A 
HETATM    5  C5  UNL     1      25.297   1.351  52.652  1.00  0.00     0.056 A 
HETATM    6  C6  UNL     1      26.558   1.681  52.143  1.00  0.00     0.070 A 
HETATM    7  C7  UNL     1      27.700   1.230  52.752  1.00  0.00     0.039 A 
HETATM    8  N1  UNL     1      26.742   2.496  50.976  1.00  0.00    -0.314 N 
HETATM    9  N2  UNL     1      25.916   3.043  50.024  1.00  0.00    -0.191 NA
HETATM   10  C8  UNL     1      24.614   3.406  50.492  1.00  0.00     0.105 C 
HETATM   11  C9  UNL     1      23.764   2.199  50.831  1.00  0.00     0.142 C 
HETATM   12  N3  UNL     1      23.987   1.713  52.175  1.00  0.00    -0.386 N 
HETATM   13  C10 UNL     1      23.857   4.068  49.359  1.00  0.00     0.062 C 
HETATM   14  C11 UNL     1      24.516   5.322  48.925  1.00  0.00    -0.046 A 
HETATM   15  C12 UNL     1      23.875   6.496  48.581  1.00  0.00     0.008 A 
HETATM   16  C13 UNL     1      24.633   7.605  48.190  1.00  0.00     0.001 A 
HETATM   17  C14 UNL     1      26.015   7.521  48.149  1.00  0.00     0.001 A 
HETATM   18  C15 UNL     1      26.644   6.329  48.500  1.00  0.00     0.011 A 
HETATM   19  C16 UNL     1      25.896   5.226  48.889  1.00  0.00    -0.007 A 
HETATM   20  C17 UNL     1      26.597   3.999  49.247  1.00  0.00     0.247 C 
HETATM   21  H7  UNL     1      27.770   2.702  50.854  1.00  0.00     0.181 HD
HETATM   22  H11 UNL     1      23.180   1.611  52.849  1.00  0.00     0.159 HD
ENDROOT
BRANCH  20  23
HETATM   23  O1  UNL     1      27.827   4.378  49.835  1.00  0.00    -0.375 OA
HETATM   24  H19 UNL     1      27.931   3.954  50.737  1.00  0.00     0.212 HD
ENDBRANCH  20  23
TORSDOF 1
ENDMDL
MODEL 5
REMARK VINA RESULT:      -8.0      2.013      2.557
REMARK  1 active torsions:
REMARK  status: ('A' for Active; 'I' for Inactive)
REMARK    1  A    between atoms: C17_20  and  O1_21 
ROOT
HETATM    1  C1  UNL     1      21.869   3.339  46.742  1.00  0.00     0.048 C 
HETATM    2  C2  UNL     1      21.997   2.619  48.051  1.00  0.00    -0.060 A 
HETATM    3  C3  UNL     1      21.064   1.637  48.351  1.00  0.00     0.009 A 
HETATM    4  C4  UNL     1      21.167   0.956  49.568  1.00  0.00     0.032 A 
HETATM    5  C5  UNL     1      22.212   1.295  50.433  1.00  0.00     0.056 A 
HETATM    6  C6  UNL     1      23.133   2.292  50.093  1.00  0.00     0.070 A 
HETATM    7  C7  UNL     1      23.033   2.961  48.900  1.00  0.00     0.039 A 
HETATM    8  N1  UNL     1      24.222   2.676  50.945  1.00  0.00    -0.314 N 
HETATM    9  N2  UNL     1      24.620   2.369  52.224  1.00  0.00    -0.191 NA
HETATM   10  C8  UNL     1      24.305   1.041  52.650  1.00  0.00     0.105 C 
HETATM   11  C9  UNL     1      22.817   0.833  52.844  1.00  0.00     0.142 C 
HETATM   12  N3  UNL     1      22.135   0.479  51.618  1.00  0.00    -0.386 N 
HETATM   13  C10 UNL     1      24.878   0.827  54.037  1.00  0.00     0.062 C 
HETATM   14  C11 UNL     1      26.355   0.933  54.036  1.00  0.00    -0.046 A 
HETATM   15  C12 UNL     1      27.224   0.127  54.744  1.00  0.00     0.008 A 
HETATM   16  C13 UNL     1      28.603   0.346  54.644  1.00  0.00     0.001 A 
HETATM   17  C14 UNL     1      29.087   1.364  53.841  1.00  0.00     0.001 A 
HETATM   18  C15 UNL     1      28.195   2.167  53.133  1.00  0.00     0.011 A 
HETATM   19  C16 UNL     1      26.827   1.953  53.229  1.00  0.00    -0.007 A 
HETATM   20  C17 UNL     1      25.931   2.818  52.471  1.00  0.00     0.247 C 
HETATM   21  H7  UNL     1      24.842   3.359  50.431  1.00  0.00     0.181 HD
HETATM   22  H11 UNL     1      21.553  -0.402  51.564  1.00  0.00     0.159 HD
ENDROOT
BRANCH  20  23
HETATM   23  O1  UNL     1      26.603   3.171  51.277  1.00  0.00    -0.375 OA
HETATM   24  H19 UNL     1      27.587   3.268  51.442  1.00  0.00     0.212 HD
ENDBRANCH  20  23
TORSDOF 1
ENDMDL
MODEL 6
REMARK VINA RESULT:      -8.0      2.942      6.986
REMARK  1 active torsions:
REMARK  status: ('A' for Active; 'I' for Inactive)
REMARK    1  A    between atoms: C17_20  and  O1_21 
ROOT
HETATM    1  C1  UNL     1      26.327   0.237  52.386  1.00  0.00     0.048 C 
HETATM    2  C2  UNL     1      25.781   1.462  51.714  1.00  0.00    -0.060 A 
HETATM    3  C3  UNL     1      24.444   1.775  51.913  1.00  0.00     0.009 A 
HETATM    4  C4  UNL     1      23.917   2.913  51.293  1.00  0.00     0.032 A 
HETATM    5  C5  UNL     1      24.765   3.690  50.498  1.00  0.00     0.056 A 
HETATM    6  C6  UNL     1      26.109   3.339  50.323  1.00  0.00     0.070 A 
HETATM    7  C7  UNL     1      26.626   2.224  50.930  1.00  0.00     0.039 A 
HETATM    8  N1  UNL     1      27.019   4.102  49.518  1.00  0.00    -0.314 N 
HETATM    9  N2  UNL     1      26.911   5.179  48.671  1.00  0.00    -0.191 NA
HETATM   10  C8  UNL     1      25.892   6.119  49.020  1.00  0.00     0.105 C 
HETATM   11  C9  UNL     1      24.497   5.562  48.821  1.00  0.00     0.142 C 
HETATM   12  N3  UNL     1      24.027   4.804  49.961  1.00  0.00    -0.386 N 
HETATM   13  C10 UNL     1      25.952   7.282  48.050  1.00  0.00     0.062 C 
HETATM   14  C11 UNL     1      27.244   8.001  48.144  1.00  0.00    -0.046 A 
HETATM   15  C12 UNL     1      27.412   9.371  48.094  1.00  0.00     0.008 A 
HETATM   16  C13 UNL     1      28.699   9.910  48.197  1.00  0.00     0.001 A 
HETATM   17  C14 UNL     1      29.792   9.073  48.349  1.00  0.00     0.001 A 
HETATM   18  C15 UNL     1      29.602   7.694  48.399  1.00  0.00     0.011 A 
HETATM   19  C16 UNL     1      28.327   7.155  48.297  1.00  0.00    -0.007 A 
HETATM   20  C17 UNL     1      28.176   5.706  48.354  1.00  0.00     0.247 C 
HETATM   21  H7  UNL     1      27.994   3.712  49.631  1.00  0.00     0.181 HD
HETATM   22  H11 UNL     1      23.116   5.055  50.432  1.00  0.00     0.159 HD
ENDROOT
BRANCH  20  23
HETATM   23  O1  UNL     1      29.185   5.215  49.216  1.00  0.00    -0.375 OA
HETATM   24  H19 UNL     1      28.783   4.869  50.067  1.00  0.00     0.212 HD
ENDBRANCH  20  23
TORSDOF 1
ENDMDL
MODEL 7
REMARK VINA RESULT:      -8.0      3.514      4.870
REMARK  1 active torsions:
REMARK  status: ('A' for Active; 'I' for Inactive)
REMARK    1  A    between atoms: C17_20  and  O1_21 
ROOT
HETATM    1  C1  UNL     1      20.810   8.300  50.295  1.00  0.00     0.048 C 
HETATM    2  C2  UNL     1      21.839   7.250  50.589  1.00  0.00    -0.060 A 
HETATM    3  C3  UNL     1      23.172   7.633  50.621  1.00  0.00     0.009 A 
HETATM    4  C4  UNL     1      24.147   6.668  50.892  1.00  0.00     0.032 A 
HETATM    5  C5  UNL     1      23.733   5.352  51.123  1.00  0.00     0.056 A 
HETATM    6  C6  UNL     1      22.377   5.007  51.081  1.00  0.00     0.070 A 
HETATM    7  C7  UNL     1      21.421   5.953  50.815  1.00  0.00     0.039 A 
HETATM    8  N1  UNL     1      21.902   3.672  51.310  1.00  0.00    -0.314 N 
HETATM    9  N2  UNL     1      22.487   2.442  51.489  1.00  0.00    -0.191 NA
HETATM   10  C8  UNL     1      23.758   2.468  52.142  1.00  0.00     0.105 C 
HETATM   11  C9  UNL     1      24.840   3.085  51.279  1.00  0.00     0.142 C 
HETATM   12  N3  UNL     1      24.886   4.527  51.381  1.00  0.00    -0.386 N 
HETATM   13  C10 UNL     1      24.232   1.042  52.342  1.00  0.00     0.062 C 
HETATM   14  C11 UNL     1      23.316   0.285  53.225  1.00  0.00    -0.046 A 
HETATM   15  C12 UNL     1      23.695  -0.611  54.206  1.00  0.00     0.008 A 
HETATM   16  C13 UNL     1      22.713  -1.255  54.967  1.00  0.00     0.001 A 
HETATM   17  C14 UNL     1      21.373  -0.992  54.736  1.00  0.00     0.001 A 
HETATM   18  C15 UNL     1      21.010  -0.084  53.743  1.00  0.00     0.011 A 
HETATM   19  C16 UNL     1      21.980   0.556  52.986  1.00  0.00    -0.007 A 
HETATM   20  C17 UNL     1      21.554   1.498  51.958  1.00  0.00     0.247 C 
HETATM   21  H7  UNL     1      20.846   3.680  51.342  1.00  0.00     0.181 HD
HETATM   22  H11 UNL     1      25.782   5.017  51.652  1.00  0.00     0.159 HD
ENDROOT
BRANCH  20  23
HETATM   23  O1  UNL     1      20.368   2.114  52.423  1.00  0.00    -0.375 OA
HETATM   24  H19 UNL     1      19.954   1.572  53.158  1.00  0.00     0.212 HD
ENDBRANCH  20  23
TORSDOF 1
ENDMDL
MODEL 8
REMARK VINA RESULT:      -7.8      2.747      3.834
REMARK  1 active torsions:
REMARK  status: ('A' for Active; 'I' for Inactive)
REMARK    1  A    between atoms: C17_20  and  O1_21 
ROOT
HETATM    1  C1  UNL     1      27.251   7.337  47.987  1.00  0.00     0.048 C 
HETATM    2  C2  UNL     1      25.963   6.730  48.457  1.00  0.00    -0.060 A 
HETATM    3  C3  UNL     1      24.806   7.026  47.752  1.00  0.00     0.009 A 
HETATM    4  C4  UNL     1      23.594   6.470  48.175  1.00  0.00     0.032 A 
HETATM    5  C5  UNL     1      23.603   5.634  49.296  1.00  0.00     0.056 A 
HETATM    6  C6  UNL     1      24.793   5.360  49.980  1.00  0.00     0.070 A 
HETATM    7  C7  UNL     1      25.981   5.905  49.566  1.00  0.00     0.039 A 
HETATM    8  N1  UNL     1      24.854   4.510  51.134  1.00  0.00    -0.314 N 
HETATM    9  N2  UNL     1      23.934   3.874  51.932  1.00  0.00    -0.191 NA
HETATM   10  C8  UNL     1      22.744   3.452  51.260  1.00  0.00     0.105 C 
HETATM   11  C9  UNL     1      21.875   4.618  50.836  1.00  0.00     0.142 C 
HETATM   12  N3  UNL     1      22.264   5.172  49.557  1.00  0.00    -0.386 N 
HETATM   13  C10 UNL     1      21.872   2.698  52.244  1.00  0.00     0.062 C 
HETATM   14  C11 UNL     1      22.542   1.470  52.732  1.00  0.00    -0.046 A 
HETATM   15  C12 UNL     1      21.936   0.246  52.937  1.00  0.00     0.008 A 
HETATM   16  C13 UNL     1      22.700  -0.830  53.403  1.00  0.00     0.001 A 
HETATM   17  C14 UNL     1      24.051  -0.664  53.655  1.00  0.00     0.001 A 
HETATM   18  C15 UNL     1      24.645   0.578  53.443  1.00  0.00     0.011 A 
HETATM   19  C16 UNL     1      23.891   1.648  52.981  1.00  0.00    -0.007 A 
HETATM   20  C17 UNL     1      24.554   2.930  52.772  1.00  0.00     0.247 C 
HETATM   21  H7  UNL     1      25.865   4.363  51.404  1.00  0.00     0.181 HD
HETATM   22  H11 UNL     1      21.561   5.253  48.772  1.00  0.00     0.159 HD
ENDROOT
BRANCH  20  23
HETATM   23  O1  UNL     1      25.881   2.652  52.366  1.00  0.00    -0.375 OA
HETATM   24  H19 UNL     1      26.366   3.501  52.146  1.00  0.00     0.212 HD
ENDBRANCH  20  23
TORSDOF 1
ENDMDL
MODEL 9
REMARK VINA RESULT:      -7.8      3.437      6.389
REMARK  1 active torsions:
REMARK  status: ('A' for Active; 'I' for Inactive)
REMARK    1  A    between atoms: C17_20  and  O1_21 
ROOT
HETATM    1  C1  UNL     1      22.685  -1.158  54.996  1.00  0.00     0.048 C 
HETATM    2  C2  UNL     1      22.244  -0.114  54.013  1.00  0.00    -0.060 A 
HETATM    3  C3  UNL     1      20.941   0.354  54.096  1.00  0.00     0.009 A 
HETATM    4  C4  UNL     1      20.512   1.327  53.188  1.00  0.00     0.032 A 
HETATM    5  C5  UNL     1      21.421   1.789  52.231  1.00  0.00     0.056 A 
HETATM    6  C6  UNL     1      22.728   1.290  52.180  1.00  0.00     0.070 A 
HETATM    7  C7  UNL     1      23.149   0.337  53.070  1.00  0.00     0.039 A 
HETATM    8  N1  UNL     1      23.697   1.731  51.218  1.00  0.00    -0.314 N 
HETATM    9  N2  UNL     1      23.679   2.549  50.114  1.00  0.00    -0.191 NA
HETATM   10  C8  UNL     1      22.748   3.632  50.182  1.00  0.00     0.105 C 
HETATM   11  C9  UNL     1      21.309   3.164  50.113  1.00  0.00     0.142 C 
HETATM   12  N3  UNL     1      20.781   2.779  51.403  1.00  0.00    -0.386 N 
HETATM   13  C10 UNL     1      22.905   4.486  48.939  1.00  0.00     0.062 C 
HETATM   14  C11 UNL     1      24.255   5.090  48.863  1.00  0.00    -0.046 A 
HETATM   15  C12 UNL     1      24.543   6.378  48.453  1.00  0.00     0.008 A 
HETATM   16  C13 UNL     1      25.872   6.813  48.434  1.00  0.00     0.001 A 
HETATM   17  C14 UNL     1      26.888   5.956  48.822  1.00  0.00     0.001 A 
HETATM   18  C15 UNL     1      26.579   4.661  49.233  1.00  0.00     0.011 A 
HETATM   19  C16 UNL     1      25.262   4.226  49.254  1.00  0.00    -0.007 A 
HETATM   20  C17 UNL     1      24.985   2.862  49.691  1.00  0.00     0.247 C 
HETATM   21  H7  UNL     1      24.635   1.303  51.448  1.00  0.00     0.181 HD
HETATM   22  H11 UNL     1      19.897   3.224  51.775  1.00  0.00     0.159 HD
ENDROOT
BRANCH  20  23
HETATM   23  O1  UNL     1      25.951   2.534  50.671  1.00  0.00    -0.375 OA
HETATM   24  H19 UNL     1      25.769   3.029  51.524  1.00  0.00     0.212 HD
ENDBRANCH  20  23
TORSDOF 1
ENDMDL
