MODEL 1
REMARK VINA RESULT:      -8.5      0.000      0.000
REMARK  1 active torsions:
REMARK  status: ('A' for Active; 'I' for Inactive)
REMARK    1  A    between atoms: C6_11  and  C7_12 
ROOT
HETATM    1  C1  UNL     1      22.703   7.287  47.819  1.00  0.00     0.050 C 
HETATM    2  C2  UNL     1      23.139   6.318  48.872  1.00  0.00    -0.036 C 
HETATM    3  C3  UNL     1      22.251   6.139  49.868  1.00  0.00     0.158 C 
HETATM    4  O1  UNL     1      21.592   5.730  51.009  1.00  0.00    -0.289 OA
HETATM    5  S1  UNL     1      20.480   4.400  50.909  1.00  0.00     0.016 SA
HETATM    6  C4  UNL     1      21.300   3.021  50.064  1.00  0.00     0.255 C 
HETATM    7  N1  UNL     1      22.404   2.504  50.889  1.00  0.00    -0.271 NA
HETATM    8  C5  UNL     1      22.176   2.620  52.176  1.00  0.00     0.224 C 
HETATM    9  N2  UNL     1      23.367   2.061  52.715  1.00  0.00    -0.255 N 
HETATM   10  N3  UNL     1      23.738   0.785  53.131  1.00  0.00    -0.179 NA
HETATM   11  C6  UNL     1      24.983   0.763  53.501  1.00  0.00     0.046 A 
HETATM   12  C12 UNL     1      25.566   2.143  53.331  1.00  0.00     0.089 A 
HETATM   13  C13 UNL     1      24.411   3.019  52.865  1.00  0.00     0.139 A 
HETATM   14  C14 UNL     1      24.784   3.660  51.576  1.00  0.00     0.004 C 
HETATM   15  C15 UNL     1      25.297   4.116  50.455  1.00  0.00     0.040 C 
HETATM   16  C16 UNL     1      25.348   4.890  49.231  1.00  0.00     0.116 C 
HETATM   17  F1  UNL     1      26.546   4.595  48.672  1.00  0.00    -0.206 F 
HETATM   18  C17 UNL     1      24.443   5.701  48.738  1.00  0.00     0.051 C 
ENDROOT
BRANCH  11  19
HETATM   19  C7  UNL     1      25.834  -0.337  54.015  1.00  0.00     0.082 A 
HETATM   20  C8  UNL     1      26.103  -1.307  52.918  1.00  0.00    -0.011 A 
HETATM   21  C9  UNL     1      27.418  -1.382  52.700  1.00  0.00     0.020 A 
HETATM   22  C10 UNL     1      28.123  -0.478  53.622  1.00  0.00     0.031 A 
HETATM   23 CL1  UNL     1      29.861  -0.257  53.686  1.00  0.00    -0.085 Cl
HETATM   24  C11 UNL     1      27.192   0.107  54.362  1.00  0.00     0.011 A 
ENDBRANCH  11  19
TORSDOF 1
ENDMDL
MODEL 2
REMARK VINA RESULT:      -8.5      3.357      5.034
REMARK  1 active torsions:
REMARK  status: ('A' for Active; 'I' for Inactive)
REMARK    1  A    between atoms: C6_11  and  C7_12 
ROOT
HETATM    1  C1  UNL     1      17.009  -0.092  51.548  1.00  0.00     0.050 C 
HETATM    2  C2  UNL     1      18.484   0.113  51.693  1.00  0.00    -0.036 C 
HETATM    3  C3  UNL     1      19.040   0.869  50.727  1.00  0.00     0.158 C 
HETATM    4  O1  UNL     1      19.909   1.581  49.926  1.00  0.00    -0.289 OA
HETATM    5  S1  UNL     1      20.117   3.282  50.210  1.00  0.00     0.016 SA
HETATM    6  C4  UNL     1      20.453   3.537  51.974  1.00  0.00     0.255 C 
HETATM    7  N1  UNL     1      21.755   2.950  52.333  1.00  0.00    -0.271 NA
HETATM    8  C5  UNL     1      22.621   2.992  51.348  1.00  0.00     0.224 C 
HETATM    9  N2  UNL     1      23.752   2.378  51.955  1.00  0.00    -0.255 N 
HETATM   10  N3  UNL     1      24.862   2.857  52.644  1.00  0.00    -0.179 NA
HETATM   11  C6  UNL     1      25.605   1.876  53.064  1.00  0.00     0.046 A 
HETATM   12  C12 UNL     1      24.972   0.574  52.646  1.00  0.00     0.089 A 
HETATM   13  C13 UNL     1      23.749   0.959  51.825  1.00  0.00     0.139 A 
HETATM   14  C14 UNL     1      22.544   0.335  52.435  1.00  0.00     0.004 C 
HETATM   15  C15 UNL     1      21.616  -0.292  53.122  1.00  0.00     0.040 C 
HETATM   16  C16 UNL     1      20.280  -0.749  53.448  1.00  0.00     0.116 C 
HETATM   17  F1  UNL     1      20.418  -1.476  54.583  1.00  0.00    -0.206 F 
HETATM   18  C17 UNL     1      19.158  -0.518  52.810  1.00  0.00     0.051 C 
ENDROOT
BRANCH  11  19
HETATM   19  C7  UNL     1      26.872   1.866  53.833  1.00  0.00     0.082 A 
HETATM   20  C8  UNL     1      26.753   0.909  54.968  1.00  0.00    -0.011 A 
HETATM   21  C9  UNL     1      27.678  -0.046  54.846  1.00  0.00     0.020 A 
HETATM   22  C10 UNL     1      28.478   0.193  53.635  1.00  0.00     0.031 A 
HETATM   23 CL1  UNL     1      29.804  -0.813  53.085  1.00  0.00    -0.085 Cl
HETATM   24  C11 UNL     1      27.995   1.294  53.075  1.00  0.00     0.011 A 
ENDBRANCH  11  19
TORSDOF 1
ENDMDL
MODEL 3
REMARK VINA RESULT:      -8.3      4.025      6.949
REMARK  1 active torsions:
REMARK  status: ('A' for Active; 'I' for Inactive)
REMARK    1  A    between atoms: C6_11  and  C7_12 
ROOT
HETATM    1  C1  UNL     1      21.877  -1.997  54.216  1.00  0.00     0.050 C 
HETATM    2  C2  UNL     1      22.571  -0.846  53.560  1.00  0.00    -0.036 C 
HETATM    3  C3  UNL     1      23.675  -0.420  54.203  1.00  0.00     0.158 C 
HETATM    4  O1  UNL     1      24.816   0.252  54.590  1.00  0.00    -0.289 OA
HETATM    5  S1  UNL     1      26.364  -0.360  54.092  1.00  0.00     0.016 SA
HETATM    6  C4  UNL     1      26.321  -0.656  52.303  1.00  0.00     0.255 C 
HETATM    7  N1  UNL     1      26.189   0.619  51.580  1.00  0.00    -0.271 NA
HETATM    8  C5  UNL     1      26.766   1.620  52.203  1.00  0.00     0.224 C 
HETATM    9  N2  UNL     1      26.491   2.691  51.309  1.00  0.00    -0.255 N 
HETATM   10  N3  UNL     1      27.177   3.263  50.241  1.00  0.00    -0.179 NA
HETATM   11  C6  UNL     1      26.469   4.204  49.689  1.00  0.00     0.046 A 
HETATM   12  C12 UNL     1      25.155   4.317  50.418  1.00  0.00     0.089 A 
HETATM   13  C13 UNL     1      25.238   3.320  51.566  1.00  0.00     0.139 A 
HETATM   14  C14 UNL     1      24.096   2.373  51.464  1.00  0.00     0.004 C 
HETATM   15  C15 UNL     1      23.035   1.646  51.196  1.00  0.00     0.040 C 
HETATM   16  C16 UNL     1      22.058   0.592  51.388  1.00  0.00     0.116 C 
HETATM   17  F1  UNL     1      21.197   0.709  50.349  1.00  0.00    -0.206 F 
HETATM   18  C17 UNL     1      21.998  -0.301  52.345  1.00  0.00     0.051 C 
ENDROOT
BRANCH  11  19
HETATM   19  C7  UNL     1      26.752   5.096  48.539  1.00  0.00     0.082 A 
HETATM   20  C8  UNL     1      26.234   6.461  48.832  1.00  0.00    -0.011 A 
HETATM   21  C9  UNL     1      27.241   7.336  48.813  1.00  0.00     0.020 A 
HETATM   22  C10 UNL     1      28.499   6.634  48.509  1.00  0.00     0.031 A 
HETATM   23 CL1  UNL     1      30.073   7.393  48.383  1.00  0.00    -0.085 Cl
HETATM   24  C11 UNL     1      28.189   5.355  48.357  1.00  0.00     0.011 A 
ENDBRANCH  11  19
TORSDOF 1
ENDMDL
MODEL 4
REMARK VINA RESULT:      -8.3      3.273      3.910
REMARK  1 active torsions:
REMARK  status: ('A' for Active; 'I' for Inactive)
REMARK    1  A    between atoms: C6_11  and  C7_12 
ROOT
HETATM    1  C1  UNL     1      27.555   7.479  48.090  1.00  0.00     0.050 C 
HETATM    2  C2  UNL     1      26.691   6.621  48.959  1.00  0.00    -0.036 C 
HETATM    3  C3  UNL     1      25.834   7.303  49.742  1.00  0.00     0.158 C 
HETATM    4  O1  UNL     1      24.863   7.672  50.650  1.00  0.00    -0.289 OA
HETATM    5  S1  UNL     1      23.239   7.928  50.090  1.00  0.00     0.016 SA
HETATM    6  C4  UNL     1      22.736   6.495  49.099  1.00  0.00     0.255 C 
HETATM    7  N1  UNL     1      22.638   5.298  49.950  1.00  0.00    -0.271 NA
HETATM    8  C5  UNL     1      22.276   5.575  51.180  1.00  0.00     0.224 C 
HETATM    9  N2  UNL     1      22.263   4.277  51.759  1.00  0.00    -0.255 N 
HETATM   10  N3  UNL     1      21.283   3.303  51.936  1.00  0.00    -0.179 NA
HETATM   11  C6  UNL     1      21.786   2.235  52.480  1.00  0.00     0.046 A 
HETATM   12  C12 UNL     1      23.260   2.453  52.709  1.00  0.00     0.089 A 
HETATM   13  C13 UNL     1      23.533   3.887  52.276  1.00  0.00     0.139 A 
HETATM   14  C14 UNL     1      24.593   3.880  51.232  1.00  0.00     0.004 C 
HETATM   15  C15 UNL     1      25.524   3.660  50.331  1.00  0.00     0.040 C 
HETATM   16  C16 UNL     1      26.515   3.998  49.329  1.00  0.00     0.116 C 
HETATM   17  F1  UNL     1      27.018   2.812  48.910  1.00  0.00    -0.206 F 
HETATM   18  C17 UNL     1      26.866   5.183  48.894  1.00  0.00     0.051 C 
ENDROOT
BRANCH  11  19
HETATM   19  C7  UNL     1      21.164   0.945  52.864  1.00  0.00     0.082 A 
HETATM   20  C8  UNL     1      21.721  -0.144  52.015  1.00  0.00    -0.011 A 
HETATM   21  C9  UNL     1      22.325  -1.049  52.788  1.00  0.00     0.020 A 
HETATM   22  C10 UNL     1      22.223  -0.642  54.198  1.00  0.00     0.031 A 
HETATM   23 CL1  UNL     1      22.876  -1.534  55.557  1.00  0.00    -0.085 Cl
HETATM   24  C11 UNL     1      21.554   0.503  54.211  1.00  0.00     0.011 A 
ENDBRANCH  11  19
TORSDOF 1
ENDMDL
MODEL 5
REMARK VINA RESULT:      -8.3      2.090      2.376
REMARK  1 active torsions:
REMARK  status: ('A' for Active; 'I' for Inactive)
REMARK    1  A    between atoms: C6_11  and  C7_12 
ROOT
HETATM    1  C1  UNL     1      20.813   5.711  46.396  1.00  0.00     0.050 C 
HETATM    2  C2  UNL     1      21.706   5.089  47.423  1.00  0.00    -0.036 C 
HETATM    3  C3  UNL     1      22.257   5.963  48.286  1.00  0.00     0.158 C 
HETATM    4  O1  UNL     1      22.969   6.561  49.306  1.00  0.00    -0.289 OA
HETATM    5  S1  UNL     1      22.186   6.835  50.833  1.00  0.00     0.016 SA
HETATM    6  C4  UNL     1      21.399   5.291  51.365  1.00  0.00     0.255 C 
HETATM    7  N1  UNL     1      22.422   4.276  51.664  1.00  0.00    -0.271 NA
HETATM    8  C5  UNL     1      23.536   4.795  52.123  1.00  0.00     0.224 C 
HETATM    9  N2  UNL     1      24.320   3.626  52.319  1.00  0.00    -0.255 N 
HETATM   10  N3  UNL     1      24.542   2.777  53.400  1.00  0.00    -0.179 NA
HETATM   11  C6  UNL     1      25.314   1.787  53.059  1.00  0.00     0.046 A 
HETATM   12  C12 UNL     1      25.675   1.930  51.603  1.00  0.00     0.089 A 
HETATM   13  C13 UNL     1      25.041   3.239  51.152  1.00  0.00     0.139 A 
HETATM   14  C14 UNL     1      24.146   2.965  49.996  1.00  0.00     0.004 C 
HETATM   15  C15 UNL     1      23.411   2.518  49.002  1.00  0.00     0.040 C 
HETATM   16  C16 UNL     1      22.491   2.596  47.885  1.00  0.00     0.116 C 
HETATM   17  F1  UNL     1      22.340   1.319  47.457  1.00  0.00    -0.206 F 
HETATM   18  C17 UNL     1      21.907   3.654  47.380  1.00  0.00     0.051 C 
ENDROOT
BRANCH  11  19
HETATM   19  C7  UNL     1      25.834   0.638  53.838  1.00  0.00     0.082 A 
HETATM   20  C8  UNL     1      25.772  -0.593  53.002  1.00  0.00    -0.011 A 
HETATM   21  C9  UNL     1      27.001  -1.090  52.846  1.00  0.00     0.020 A 
HETATM   22  C10 UNL     1      27.971  -0.240  53.555  1.00  0.00     0.031 A 
HETATM   23 CL1  UNL     1      29.700  -0.518  53.617  1.00  0.00    -0.085 Cl
HETATM   24  C11 UNL     1      27.275   0.740  54.113  1.00  0.00     0.011 A 
ENDBRANCH  11  19
TORSDOF 1
ENDMDL
MODEL 6
REMARK VINA RESULT:      -7.8      3.516      4.353
REMARK  1 active torsions:
REMARK  status: ('A' for Active; 'I' for Inactive)
REMARK    1  A    between atoms: C6_11  and  C7_12 
ROOT
HETATM    1  C1  UNL     1      26.808   8.833  47.351  1.00  0.00     0.050 C 
HETATM    2  C2  UNL     1      26.191   7.753  48.183  1.00  0.00    -0.036 C 
HETATM    3  C3  UNL     1      25.039   8.102  48.786  1.00  0.00     0.158 C 
HETATM    4  O1  UNL     1      23.876   8.122  49.527  1.00  0.00    -0.289 OA
HETATM    5  S1  UNL     1      22.373   7.734  48.748  1.00  0.00     0.016 SA
HETATM    6  C4  UNL     1      22.576   6.176  47.842  1.00  0.00     0.255 C 
HETATM    7  N1  UNL     1      22.790   5.065  48.783  1.00  0.00    -0.271 NA
HETATM    8  C5  UNL     1      22.171   5.240  49.927  1.00  0.00     0.224 C 
HETATM    9  N2  UNL     1      22.540   4.055  50.620  1.00  0.00    -0.255 N 
HETATM   10  N3  UNL     1      21.963   2.797  50.766  1.00  0.00    -0.179 NA
HETATM   11  C6  UNL     1      22.730   2.015  51.466  1.00  0.00     0.046 A 
HETATM   12  C12 UNL     1      23.973   2.773  51.855  1.00  0.00     0.089 A 
HETATM   13  C13 UNL     1      23.773   4.186  51.325  1.00  0.00     0.139 A 
HETATM   14  C14 UNL     1      24.907   4.528  50.426  1.00  0.00     0.004 C 
HETATM   15  C15 UNL     1      25.979   4.631  49.673  1.00  0.00     0.040 C 
HETATM   16  C16 UNL     1      26.920   5.270  48.775  1.00  0.00     0.116 C 
HETATM   17  F1  UNL     1      27.874   4.338  48.535  1.00  0.00    -0.206 F 
HETATM   18  C17 UNL     1      26.881   6.482  48.277  1.00  0.00     0.051 C 
ENDROOT
BRANCH  11  19
HETATM   19  C7  UNL     1      22.566   0.604  51.890  1.00  0.00     0.082 A 
HETATM   20  C8  UNL     1      22.828   0.493  53.351  1.00  0.00    -0.011 A 
HETATM   21  C9  UNL     1      21.737   0.035  53.968  1.00  0.00     0.020 A 
HETATM   22  C10 UNL     1      20.671  -0.194  52.981  1.00  0.00     0.031 A 
HETATM   23 CL1  UNL     1      19.066  -0.795  53.348  1.00  0.00    -0.085 Cl
HETATM   24  C11 UNL     1      21.173   0.140  51.800  1.00  0.00     0.011 A 
ENDBRANCH  11  19
TORSDOF 1
ENDMDL
MODEL 7
REMARK VINA RESULT:      -7.6      4.631      5.812
REMARK  1 active torsions:
REMARK  status: ('A' for Active; 'I' for Inactive)
REMARK    1  A    between atoms: C6_11  and  C7_12 
ROOT
HETATM    1  C1  UNL     1      29.083   6.721  47.649  1.00  0.00     0.050 C 
HETATM    2  C2  UNL     1      27.834   6.416  48.414  1.00  0.00    -0.036 C 
HETATM    3  C3  UNL     1      27.145   7.502  48.813  1.00  0.00     0.158 C 
HETATM    4  O1  UNL     1      26.220   8.367  49.360  1.00  0.00    -0.289 OA
HETATM    5  S1  UNL     1      24.913   8.941  48.369  1.00  0.00     0.016 SA
HETATM    6  C4  UNL     1      24.126   7.517  47.568  1.00  0.00     0.255 C 
HETATM    7  N1  UNL     1      23.468   6.668  48.574  1.00  0.00    -0.271 NA
HETATM    8  C5  UNL     1      23.013   7.351  49.598  1.00  0.00     0.224 C 
HETATM    9  N2  UNL     1      22.445   6.313  50.387  1.00  0.00    -0.255 N 
HETATM   10  N3  UNL     1      21.172   5.758  50.488  1.00  0.00    -0.179 NA
HETATM   11  C6  UNL     1      21.166   4.768  51.331  1.00  0.00     0.046 A 
HETATM   12  C12 UNL     1      22.557   4.589  51.882  1.00  0.00     0.089 A 
HETATM   13  C13 UNL     1      23.386   5.711  51.272  1.00  0.00     0.139 A 
HETATM   14  C14 UNL     1      24.544   5.117  50.551  1.00  0.00     0.004 C 
HETATM   15  C15 UNL     1      25.483   4.403  49.973  1.00  0.00     0.040 C 
HETATM   16  C16 UNL     1      26.691   4.157  49.211  1.00  0.00     0.116 C 
HETATM   17  F1  UNL     1      26.814   2.808  49.162  1.00  0.00    -0.206 F 
HETATM   18  C17 UNL     1      27.505   5.028  48.666  1.00  0.00     0.051 C 
ENDROOT
BRANCH  11  19
HETATM   19  C7  UNL     1      20.076   3.869  51.779  1.00  0.00     0.082 A 
HETATM   20  C8  UNL     1      19.458   3.213  50.593  1.00  0.00    -0.011 A 
HETATM   21  C9  UNL     1      19.593   1.889  50.694  1.00  0.00     0.020 A 
HETATM   22  C10 UNL     1      20.303   1.559  51.939  1.00  0.00     0.031 A 
HETATM   23 CL1  UNL     1      20.698  -0.062  52.477  1.00  0.00    -0.085 Cl
HETATM   24  C11 UNL     1      20.567   2.711  52.539  1.00  0.00     0.011 A 
ENDBRANCH  11  19
TORSDOF 1
ENDMDL
MODEL 8
REMARK VINA RESULT:      -7.5      5.186      6.789
REMARK  1 active torsions:
REMARK  status: ('A' for Active; 'I' for Inactive)
REMARK    1  A    between atoms: C6_11  and  C7_12 
ROOT
HETATM    1  C1  UNL     1      30.788   9.131  48.517  1.00  0.00     0.050 C 
HETATM    2  C2  UNL     1      29.622   8.213  48.707  1.00  0.00    -0.036 C 
HETATM    3  C3  UNL     1      28.559   8.780  49.307  1.00  0.00     0.158 C 
HETATM    4  O1  UNL     1      27.328   9.034  49.878  1.00  0.00    -0.289 OA
HETATM    5  S1  UNL     1      26.057   9.683  48.888  1.00  0.00     0.016 SA
HETATM    6  C4  UNL     1      25.917   8.672  47.389  1.00  0.00     0.255 C 
HETATM    7  N1  UNL     1      25.451   7.318  47.731  1.00  0.00    -0.271 NA
HETATM    8  C5  UNL     1      24.654   7.302  48.773  1.00  0.00     0.224 C 
HETATM    9  N2  UNL     1      24.366   5.913  48.873  1.00  0.00    -0.255 N 
HETATM   10  N3  UNL     1      23.355   5.094  48.378  1.00  0.00    -0.179 NA
HETATM   11  C6  UNL     1      23.567   3.853  48.702  1.00  0.00     0.046 A 
HETATM   12  C12 UNL     1      24.845   3.767  49.495  1.00  0.00     0.089 A 
HETATM   13  C13 UNL     1      25.322   5.204  49.657  1.00  0.00     0.139 A 
HETATM   14  C14 UNL     1      26.701   5.318  49.111  1.00  0.00     0.004 C 
HETATM   15  C15 UNL     1      27.898   5.210  48.579  1.00  0.00     0.040 C 
HETATM   16  C16 UNL     1      29.211   5.650  48.153  1.00  0.00     0.116 C 
HETATM   17  F1  UNL     1      29.788   4.560  47.592  1.00  0.00    -0.206 F 
HETATM   18  C17 UNL     1      29.750   6.839  48.264  1.00  0.00     0.051 C 
ENDROOT
BRANCH  11  19
HETATM   19  C7  UNL     1      22.793   2.621  48.418  1.00  0.00     0.082 A 
HETATM   20  C8  UNL     1      22.502   1.913  49.695  1.00  0.00    -0.011 A 
HETATM   21  C9  UNL     1      21.182   1.820  49.865  1.00  0.00     0.020 A 
HETATM   22  C10 UNL     1      20.493   2.451  48.727  1.00  0.00     0.031 A 
HETATM   23 CL1  UNL     1      18.754   2.558  48.534  1.00  0.00    -0.085 Cl
HETATM   24  C11 UNL     1      21.439   2.900  47.916  1.00  0.00     0.011 A 
ENDBRANCH  11  19
TORSDOF 1
ENDMDL
MODEL 9
REMARK VINA RESULT:      -7.5      4.959      7.124
REMARK  1 active torsions:
REMARK  status: ('A' for Active; 'I' for Inactive)
REMARK    1  A    between atoms: C6_11  and  C7_12 
ROOT
HETATM    1  C1  UNL     1      22.260   2.546  51.013  1.00  0.00     0.050 C 
HETATM    2  C2  UNL     1      23.405   3.324  50.445  1.00  0.00    -0.036 C 
HETATM    3  C3  UNL     1      23.047   4.435  49.775  1.00  0.00     0.158 C 
HETATM    4  O1  UNL     1      23.034   5.606  49.044  1.00  0.00    -0.289 OA
HETATM    5  S1  UNL     1      23.028   7.125  49.886  1.00  0.00     0.016 SA
HETATM    6  C4  UNL     1      24.355   7.108  51.122  1.00  0.00     0.255 C 
HETATM    7  N1  UNL     1      25.668   7.070  50.457  1.00  0.00    -0.271 NA
HETATM    8  C5  UNL     1      25.671   7.691  49.301  1.00  0.00     0.224 C 
HETATM    9  N2  UNL     1      27.021   7.503  48.896  1.00  0.00    -0.255 N 
HETATM   10  N3  UNL     1      28.189   8.248  49.037  1.00  0.00    -0.179 NA
HETATM   11  C6  UNL     1      29.206   7.612  48.535  1.00  0.00     0.046 A 
HETATM   12  C12 UNL     1      28.732   6.290  47.988  1.00  0.00     0.089 A 
HETATM   13  C13 UNL     1      27.222   6.285  48.184  1.00  0.00     0.139 A 
HETATM   14  C14 UNL     1      26.845   5.090  48.986  1.00  0.00     0.004 C 
HETATM   15  C15 UNL     1      26.722   3.994  49.700  1.00  0.00     0.040 C 
HETATM   16  C16 UNL     1      26.033   2.951  50.433  1.00  0.00     0.116 C 
HETATM   17  F1  UNL     1      27.009   2.124  50.881  1.00  0.00    -0.206 F 
HETATM   18  C17 UNL     1      24.747   2.814  50.644  1.00  0.00     0.051 C 
ENDROOT
BRANCH  11  19
HETATM   19  C7  UNL     1      30.640   7.976  48.441  1.00  0.00     0.082 A 
HETATM   20  C8  UNL     1      31.400   7.270  49.509  1.00  0.00    -0.011 A 
HETATM   21  C9  UNL     1      32.323   6.481  48.954  1.00  0.00     0.020 A 
HETATM   22  C10 UNL     1      32.253   6.595  47.488  1.00  0.00     0.031 A 
HETATM   23 CL1  UNL     1      33.281   5.736  46.358  1.00  0.00    -0.085 Cl
HETATM   24  C11 UNL     1      31.282   7.457  47.224  1.00  0.00     0.011 A 
ENDBRANCH  11  19
TORSDOF 1
ENDMDL
