MODEL 1
REMARK VINA RESULT:      -7.8      0.000      0.000
REMARK  8 active torsions:
REMARK  status: ('A' for Active; 'I' for Inactive)
REMARK    1  A    between atoms: O1_2  and  C2_3 
REMARK    2  A    between atoms: C2_3  and  C3_4 
REMARK    3  A    between atoms: C5_6  and  N1_7 
REMARK    4  A    between atoms: N1_7  and  C6_8 
REMARK    5  A    between atoms: C10_14  and  O2_15 
REMARK    6  A    between atoms: O2_15  and  C11_16 
REMARK    7  A    between atoms: C11_16  and  O3_17 
REMARK    8  A    between atoms: C12_18  and  O4_19 
ROOT
HETATM    1  C6  UNL     1      24.802   2.683  51.559  1.00  0.00     0.138 A 
HETATM    2  N2  UNL     1      23.499   2.397  51.393  1.00  0.00    -0.224 NA
HETATM    3  C7  UNL     1      22.936   1.231  51.765  1.00  0.00     0.235 A 
HETATM    4  N3  UNL     1      23.694   0.256  52.347  1.00  0.00    -0.241 NA
HETATM    5  C8  UNL     1      25.027   0.467  52.551  1.00  0.00     0.075 A 
HETATM    6  C9  UNL     1      25.843  -0.487  53.137  1.00  0.00     0.072 A 
HETATM    7  C10 UNL     1      27.186  -0.245  53.330  1.00  0.00     0.107 A 
HETATM    8  C12 UNL     1      27.709   0.966  52.929  1.00  0.00     0.102 A 
HETATM    9  C14 UNL     1      26.886   1.905  52.349  1.00  0.00     0.057 A 
HETATM   10  C15 UNL     1      25.543   1.680  52.148  1.00  0.00     0.041 A 
ENDROOT
BRANCH   1  11
HETATM   11  N1  UNL     1      25.298   3.942  51.132  1.00  0.00    -0.363 N 
HETATM   12  H8  UNL     1      25.558   4.741  51.746  1.00  0.00     0.162 HD
BRANCH  11  13
HETATM   13  C5  UNL     1      25.455   4.127  49.703  1.00  0.00     0.130 A 
HETATM   14  C4  UNL     1      26.882   4.284  49.292  1.00  0.00     0.011 A 
HETATM   15  C3  UNL     1      27.114   5.469  48.696  1.00  0.00    -0.036 A 
HETATM   16  C17 UNL     1      25.822   6.121  48.719  1.00  0.00     0.007 A 
HETATM   17  C16 UNL     1      24.861   5.407  49.276  1.00  0.00     0.003 A 
BRANCH  15  18
HETATM   18  C2  UNL     1      28.415   5.939  48.175  1.00  0.00     0.205 C 
BRANCH  18  19
HETATM   19  O1  UNL     1      29.509   5.202  48.517  1.00  0.00    -0.391 OA
HETATM   20  C1  UNL     1      30.714   5.528  47.972  1.00  0.00     0.201 C 
ENDBRANCH  18  19
ENDBRANCH  15  18
ENDBRANCH  11  13
ENDBRANCH   1  11
BRANCH   8  21
HETATM   21  O4  UNL     1      29.071   1.222  53.120  1.00  0.00    -0.353 OA
HETATM   22  C13 UNL     1      29.522   2.015  54.184  1.00  0.00     0.210 C 
ENDBRANCH   8  21
BRANCH   7  23
HETATM   23  O2  UNL     1      28.044  -1.165  53.911  1.00  0.00    -0.323 OA
BRANCH  23  24
HETATM   24  C11 UNL     1      28.841  -2.048  53.141  1.00  0.00     0.341 C 
BRANCH  24  25
HETATM   25  O3  UNL     1      28.618  -3.378  53.484  1.00  0.00    -0.377 OA
HETATM   26  H13 UNL     1      27.654  -3.509  53.588  1.00  0.00     0.212 HD
ENDBRANCH  24  25
ENDBRANCH  23  24
ENDBRANCH   7  23
TORSDOF 8
ENDMDL
MODEL 2
REMARK VINA RESULT:      -7.4      3.756      7.484
REMARK  8 active torsions:
REMARK  status: ('A' for Active; 'I' for Inactive)
REMARK    1  A    between atoms: O1_2  and  C2_3 
REMARK    2  A    between atoms: C2_3  and  C3_4 
REMARK    3  A    between atoms: C5_6  and  N1_7 
REMARK    4  A    between atoms: N1_7  and  C6_8 
REMARK    5  A    between atoms: C10_14  and  O2_15 
REMARK    6  A    between atoms: O2_15  and  C11_16 
REMARK    7  A    between atoms: C11_16  and  O3_17 
REMARK    8  A    between atoms: C12_18  and  O4_19 
ROOT
HETATM    1  C6  UNL     1      23.160  -0.573  53.583  1.00  0.00     0.138 A 
HETATM    2  N2  UNL     1      22.807  -1.245  54.692  1.00  0.00    -0.224 NA
HETATM    3  C7  UNL     1      23.651  -1.500  55.711  1.00  0.00     0.235 A 
HETATM    4  N3  UNL     1      24.945  -1.071  55.656  1.00  0.00    -0.241 NA
HETATM    5  C8  UNL     1      25.383  -0.380  54.563  1.00  0.00     0.075 A 
HETATM    6  C9  UNL     1      26.686   0.080  54.455  1.00  0.00     0.072 A 
HETATM    7  C10 UNL     1      27.099   0.774  53.338  1.00  0.00     0.107 A 
HETATM    8  C12 UNL     1      26.193   1.006  52.325  1.00  0.00     0.102 A 
HETATM    9  C14 UNL     1      24.902   0.544  52.446  1.00  0.00     0.057 A 
HETATM   10  C15 UNL     1      24.472  -0.152  53.554  1.00  0.00     0.041 A 
ENDROOT
BRANCH   1  11
HETATM   11  N1  UNL     1      22.195  -0.357  52.564  1.00  0.00    -0.363 N 
HETATM   12  H8  UNL     1      22.281  -0.638  51.566  1.00  0.00     0.162 HD
BRANCH  11  13
HETATM   13  C5  UNL     1      20.976   0.322  52.958  1.00  0.00     0.130 A 
HETATM   14  C4  UNL     1      19.952  -0.608  53.520  1.00  0.00     0.011 A 
HETATM   15  C3  UNL     1      18.812  -0.606  52.803  1.00  0.00    -0.036 A 
HETATM   16  C17 UNL     1      19.083   0.334  51.735  1.00  0.00     0.007 A 
HETATM   17  C16 UNL     1      20.286   0.878  51.780  1.00  0.00     0.003 A 
BRANCH  15  18
HETATM   18  C2  UNL     1      17.606  -1.411  53.087  1.00  0.00     0.205 C 
BRANCH  18  19
HETATM   19  O1  UNL     1      17.769  -2.475  53.923  1.00  0.00    -0.391 OA
HETATM   20  C1  UNL     1      17.225  -3.673  53.569  1.00  0.00     0.201 C 
ENDBRANCH  18  19
ENDBRANCH  15  18
ENDBRANCH  11  13
ENDBRANCH   1  11
BRANCH   8  21
HETATM   21  O4  UNL     1      26.601   1.709  51.187  1.00  0.00    -0.353 OA
HETATM   22  C13 UNL     1      26.004   2.925  50.828  1.00  0.00     0.210 C 
ENDBRANCH   8  21
BRANCH   7  23
HETATM   23  O2  UNL     1      28.388   1.254  53.181  1.00  0.00    -0.323 OA
BRANCH  23  24
HETATM   24  C11 UNL     1      28.793   2.515  53.688  1.00  0.00     0.341 C 
BRANCH  24  25
HETATM   25  O3  UNL     1      29.752   2.388  54.688  1.00  0.00    -0.377 OA
HETATM   26  H13 UNL     1      30.585   2.786  54.363  1.00  0.00     0.212 HD
ENDBRANCH  24  25
ENDBRANCH  23  24
ENDBRANCH   7  23
TORSDOF 8
ENDMDL
MODEL 3
REMARK VINA RESULT:      -7.3      1.743      2.234
REMARK  8 active torsions:
REMARK  status: ('A' for Active; 'I' for Inactive)
REMARK    1  A    between atoms: O1_2  and  C2_3 
REMARK    2  A    between atoms: C2_3  and  C3_4 
REMARK    3  A    between atoms: C5_6  and  N1_7 
REMARK    4  A    between atoms: N1_7  and  C6_8 
REMARK    5  A    between atoms: C10_14  and  O2_15 
REMARK    6  A    between atoms: O2_15  and  C11_16 
REMARK    7  A    between atoms: C11_16  and  O3_17 
REMARK    8  A    between atoms: C12_18  and  O4_19 
ROOT
HETATM    1  C6  UNL     1      24.727   4.218  50.668  1.00  0.00     0.138 A 
HETATM    2  N2  UNL     1      23.486   4.602  50.324  1.00  0.00    -0.224 NA
HETATM    3  C7  UNL     1      22.383   3.865  50.562  1.00  0.00     0.235 A 
HETATM    4  N3  UNL     1      22.485   2.656  51.185  1.00  0.00    -0.241 NA
HETATM    5  C8  UNL     1      23.711   2.194  51.568  1.00  0.00     0.075 A 
HETATM    6  C9  UNL     1      23.872   0.973  52.205  1.00  0.00     0.072 A 
HETATM    7  C10 UNL     1      25.124   0.532  52.579  1.00  0.00     0.107 A 
HETATM    8  C12 UNL     1      26.218   1.327  52.310  1.00  0.00     0.102 A 
HETATM    9  C14 UNL     1      26.042   2.537  51.677  1.00  0.00     0.057 A 
HETATM   10  C15 UNL     1      24.800   2.993  51.296  1.00  0.00     0.041 A 
ENDROOT
BRANCH   1  11
HETATM   11  N1  UNL     1      25.826   5.067  50.372  1.00  0.00    -0.363 N 
HETATM   12  H8  UNL     1      26.366   5.634  51.057  1.00  0.00     0.162 HD
BRANCH  11  13
HETATM   13  C5  UNL     1      26.227   5.148  48.982  1.00  0.00     0.130 A 
HETATM   14  C4  UNL     1      27.655   4.767  48.767  1.00  0.00     0.011 A 
HETATM   15  C3  UNL     1      28.377   5.772  48.238  1.00  0.00    -0.036 A 
HETATM   16  C17 UNL     1      27.418   6.849  48.106  1.00  0.00     0.007 A 
HETATM   17  C16 UNL     1      26.199   6.545  48.512  1.00  0.00     0.003 A 
BRANCH  15  18
HETATM   18  C2  UNL     1      29.817   5.726  47.905  1.00  0.00     0.205 C 
BRANCH  18  19
HETATM   19  O1  UNL     1      30.679   5.606  48.954  1.00  0.00    -0.391 OA
HETATM   20  C1  UNL     1      31.992   5.354  48.695  1.00  0.00     0.201 C 
ENDBRANCH  18  19
ENDBRANCH  15  18
ENDBRANCH  11  13
ENDBRANCH   1  11
BRANCH   8  21
HETATM   21  O4  UNL     1      27.492   0.890  52.685  1.00  0.00    -0.353 OA
HETATM   22  C13 UNL     1      28.353   1.705  53.433  1.00  0.00     0.210 C 
ENDBRANCH   8  21
BRANCH   7  23
HETATM   23  O2  UNL     1      25.339  -0.677  53.218  1.00  0.00    -0.323 OA
BRANCH  23  24
HETATM   24  C11 UNL     1      25.156  -0.839  54.614  1.00  0.00     0.341 C 
BRANCH  24  25
HETATM   25  O3  UNL     1      26.277  -0.436  55.333  1.00  0.00    -0.377 OA
HETATM   26  H13 UNL     1      26.478   0.490  55.090  1.00  0.00     0.212 HD
ENDBRANCH  24  25
ENDBRANCH  23  24
ENDBRANCH   7  23
TORSDOF 8
ENDMDL
MODEL 4
REMARK VINA RESULT:      -7.2      2.881      4.186
REMARK  8 active torsions:
REMARK  status: ('A' for Active; 'I' for Inactive)
REMARK    1  A    between atoms: O1_2  and  C2_3 
REMARK    2  A    between atoms: C2_3  and  C3_4 
REMARK    3  A    between atoms: C5_6  and  N1_7 
REMARK    4  A    between atoms: N1_7  and  C6_8 
REMARK    5  A    between atoms: C10_14  and  O2_15 
REMARK    6  A    between atoms: O2_15  and  C11_16 
REMARK    7  A    between atoms: C11_16  and  O3_17 
REMARK    8  A    between atoms: C12_18  and  O4_19 
ROOT
HETATM    1  C6  UNL     1      25.831   2.560  51.784  1.00  0.00     0.138 A 
HETATM    2  N2  UNL     1      27.119   2.230  51.986  1.00  0.00    -0.224 NA
HETATM    3  C7  UNL     1      27.513   1.073  52.553  1.00  0.00     0.235 A 
HETATM    4  N3  UNL     1      26.589   0.156  52.960  1.00  0.00    -0.241 NA
HETATM    5  C8  UNL     1      25.259   0.415  52.791  1.00  0.00     0.075 A 
HETATM    6  C9  UNL     1      24.278  -0.480  53.185  1.00  0.00     0.072 A 
HETATM    7  C10 UNL     1      22.942  -0.190  53.002  1.00  0.00     0.107 A 
HETATM    8  C12 UNL     1      22.596   1.009  52.416  1.00  0.00     0.102 A 
HETATM    9  C14 UNL     1      23.581   1.889  52.029  1.00  0.00     0.057 A 
HETATM   10  C15 UNL     1      24.920   1.616  52.206  1.00  0.00     0.041 A 
ENDROOT
BRANCH   1  11
HETATM   11  N1  UNL     1      25.519   3.806  51.179  1.00  0.00    -0.363 N 
HETATM   12  H8  UNL     1      25.174   4.657  51.667  1.00  0.00     0.162 HD
BRANCH  11  13
HETATM   13  C5  UNL     1      25.700   3.893  49.744  1.00  0.00     0.130 A 
HETATM   14  C4  UNL     1      27.114   4.172  49.353  1.00  0.00     0.011 A 
HETATM   15  C3  UNL     1      27.235   5.324  48.667  1.00  0.00    -0.036 A 
HETATM   16  C17 UNL     1      25.880   5.830  48.606  1.00  0.00     0.007 A 
HETATM   17  C16 UNL     1      24.985   5.061  49.198  1.00  0.00     0.003 A 
BRANCH  15  18
HETATM   18  C2  UNL     1      28.494   5.891  48.138  1.00  0.00     0.205 C 
BRANCH  18  19
HETATM   19  O1  UNL     1      29.579   5.068  48.140  1.00  0.00    -0.391 OA
HETATM   20  C1  UNL     1      30.822   5.625  48.151  1.00  0.00     0.201 C 
ENDBRANCH  18  19
ENDBRANCH  15  18
ENDBRANCH  11  13
ENDBRANCH   1  11
BRANCH   8  21
HETATM   21  O4  UNL     1      21.244   1.314  52.225  1.00  0.00    -0.353 OA
HETATM   22  C13 UNL     1      20.754   2.613  52.419  1.00  0.00     0.210 C 
ENDBRANCH   8  21
BRANCH   7  23
HETATM   23  O2  UNL     1      21.924  -1.050  53.377  1.00  0.00    -0.323 OA
BRANCH  23  24
HETATM   24  C11 UNL     1      21.417  -1.091  54.700  1.00  0.00     0.341 C 
BRANCH  24  25
HETATM   25  O3  UNL     1      20.617   0.012  54.983  1.00  0.00    -0.377 OA
HETATM   26  H13 UNL     1      21.180   0.812  54.952  1.00  0.00     0.212 HD
ENDBRANCH  24  25
ENDBRANCH  23  24
ENDBRANCH   7  23
TORSDOF 8
ENDMDL
MODEL 5
REMARK VINA RESULT:      -7.2      3.001      6.160
REMARK  8 active torsions:
REMARK  status: ('A' for Active; 'I' for Inactive)
REMARK    1  A    between atoms: O1_2  and  C2_3 
REMARK    2  A    between atoms: C2_3  and  C3_4 
REMARK    3  A    between atoms: C5_6  and  N1_7 
REMARK    4  A    between atoms: N1_7  and  C6_8 
REMARK    5  A    between atoms: C10_14  and  O2_15 
REMARK    6  A    between atoms: O2_15  and  C11_16 
REMARK    7  A    between atoms: C11_16  and  O3_17 
REMARK    8  A    between atoms: C12_18  and  O4_19 
ROOT
HETATM    1  C6  UNL     1      24.344   2.399  52.168  1.00  0.00     0.138 A 
HETATM    2  N2  UNL     1      24.725   3.310  51.256  1.00  0.00    -0.224 NA
HETATM    3  C7  UNL     1      25.970   3.380  50.744  1.00  0.00     0.235 A 
HETATM    4  N3  UNL     1      26.929   2.497  51.146  1.00  0.00    -0.241 NA
HETATM    5  C8  UNL     1      26.623   1.539  52.070  1.00  0.00     0.075 A 
HETATM    6  C9  UNL     1      27.558   0.617  52.513  1.00  0.00     0.072 A 
HETATM    7  C10 UNL     1      27.219  -0.338  53.448  1.00  0.00     0.107 A 
HETATM    8  C12 UNL     1      25.930  -0.362  53.937  1.00  0.00     0.102 A 
HETATM    9  C14 UNL     1      25.013   0.559  53.487  1.00  0.00     0.057 A 
HETATM   10  C15 UNL     1      25.333   1.521  52.555  1.00  0.00     0.041 A 
ENDROOT
BRANCH   1  11
HETATM   11  N1  UNL     1      23.007   2.410  52.645  1.00  0.00    -0.363 N 
HETATM   12  H8  UNL     1      22.710   2.498  53.638  1.00  0.00     0.162 HD
BRANCH  11  13
HETATM   13  C5  UNL     1      21.962   2.284  51.650  1.00  0.00     0.130 A 
HETATM   14  C4  UNL     1      20.639   1.922  52.240  1.00  0.00     0.011 A 
HETATM   15  C3  UNL     1      20.172   0.751  51.768  1.00  0.00    -0.036 A 
HETATM   16  C17 UNL     1      21.206   0.316  50.852  1.00  0.00     0.007 A 
HETATM   17  C16 UNL     1      22.230   1.144  50.754  1.00  0.00     0.003 A 
BRANCH  15  18
HETATM   18  C2  UNL     1      18.896   0.108  52.148  1.00  0.00     0.205 C 
BRANCH  18  19
HETATM   19  O1  UNL     1      18.137  -0.385  51.129  1.00  0.00    -0.391 OA
HETATM   20  C1  UNL     1      16.788  -0.463  51.298  1.00  0.00     0.201 C 
ENDBRANCH  18  19
ENDBRANCH  15  18
ENDBRANCH  11  13
ENDBRANCH   1  11
BRANCH   8  21
HETATM   21  O4  UNL     1      25.575  -1.327  54.885  1.00  0.00    -0.353 OA
HETATM   22  C13 UNL     1      24.775  -1.005  55.990  1.00  0.00     0.210 C 
ENDBRANCH   8  21
BRANCH   7  23
HETATM   23  O2  UNL     1      28.114  -1.281  53.922  1.00  0.00    -0.323 OA
BRANCH  23  24
HETATM   24  C11 UNL     1      28.820  -2.157  53.059  1.00  0.00     0.341 C 
BRANCH  24  25
HETATM   25  O3  UNL     1      28.624  -3.491  53.402  1.00  0.00    -0.377 OA
HETATM   26  H13 UNL     1      28.173  -3.520  54.269  1.00  0.00     0.212 HD
ENDBRANCH  24  25
ENDBRANCH  23  24
ENDBRANCH   7  23
TORSDOF 8
ENDMDL
MODEL 6
REMARK VINA RESULT:      -7.0      3.881      7.528
REMARK  8 active torsions:
REMARK  status: ('A' for Active; 'I' for Inactive)
REMARK    1  A    between atoms: O1_2  and  C2_3 
REMARK    2  A    between atoms: C2_3  and  C3_4 
REMARK    3  A    between atoms: C5_6  and  N1_7 
REMARK    4  A    between atoms: N1_7  and  C6_8 
REMARK    5  A    between atoms: C10_14  and  O2_15 
REMARK    6  A    between atoms: O2_15  and  C11_16 
REMARK    7  A    between atoms: C11_16  and  O3_17 
REMARK    8  A    between atoms: C12_18  and  O4_19 
ROOT
HETATM    1  C6  UNL     1      22.568   1.259  51.599  1.00  0.00     0.138 A 
HETATM    2  N2  UNL     1      22.430   2.327  50.794  1.00  0.00    -0.224 NA
HETATM    3  C7  UNL     1      23.332   3.324  50.714  1.00  0.00     0.235 A 
HETATM    4  N3  UNL     1      24.465   3.289  51.474  1.00  0.00    -0.241 NA
HETATM    5  C8  UNL     1      24.681   2.238  52.318  1.00  0.00     0.075 A 
HETATM    6  C9  UNL     1      25.814   2.152  53.112  1.00  0.00     0.072 A 
HETATM    7  C10 UNL     1      26.004   1.078  53.956  1.00  0.00     0.107 A 
HETATM    8  C12 UNL     1      25.047   0.086  53.997  1.00  0.00     0.102 A 
HETATM    9  C14 UNL     1      23.928   0.185  53.203  1.00  0.00     0.057 A 
HETATM   10  C15 UNL     1      23.721   1.251  52.355  1.00  0.00     0.041 A 
ENDROOT
BRANCH   1  11
HETATM   11  N1  UNL     1      21.558   0.261  51.611  1.00  0.00    -0.363 N 
HETATM   12  H8  UNL     1      21.626  -0.686  51.185  1.00  0.00     0.162 HD
BRANCH  11  13
HETATM   13  C5  UNL     1      20.319   0.600  52.280  1.00  0.00     0.130 A 
HETATM   14  C4  UNL     1      19.912  -0.416  53.296  1.00  0.00     0.011 A 
HETATM   15  C3  UNL     1      18.716  -0.968  53.015  1.00  0.00    -0.036 A 
HETATM   16  C17 UNL     1      18.321  -0.317  51.784  1.00  0.00     0.007 A 
HETATM   17  C16 UNL     1      19.190   0.569  51.333  1.00  0.00     0.003 A 
BRANCH  15  18
HETATM   18  C2  UNL     1      18.028  -2.004  53.815  1.00  0.00     0.205 C 
BRANCH  18  19
HETATM   19  O1  UNL     1      17.106  -2.764  53.160  1.00  0.00    -0.391 OA
HETATM   20  C1  UNL     1      16.952  -4.066  53.528  1.00  0.00     0.201 C 
ENDBRANCH  18  19
ENDBRANCH  15  18
ENDBRANCH  11  13
ENDBRANCH   1  11
BRANCH   8  21
HETATM   21  O4  UNL     1      25.230  -1.008  54.849  1.00  0.00    -0.353 OA
HETATM   22  C13 UNL     1      24.231  -1.409  55.747  1.00  0.00     0.210 C 
ENDBRANCH   8  21
BRANCH   7  23
HETATM   23  O2  UNL     1      27.117   0.944  54.769  1.00  0.00    -0.323 OA
BRANCH  23  24
HETATM   24  C11 UNL     1      28.357   0.462  54.280  1.00  0.00     0.341 C 
BRANCH  24  25
HETATM   25  O3  UNL     1      28.392  -0.928  54.237  1.00  0.00    -0.377 OA
HETATM   26  H13 UNL     1      28.159  -1.267  55.125  1.00  0.00     0.212 HD
ENDBRANCH  24  25
ENDBRANCH  23  24
ENDBRANCH   7  23
TORSDOF 8
ENDMDL
MODEL 7
REMARK VINA RESULT:      -7.0      2.910      5.265
REMARK  8 active torsions:
REMARK  status: ('A' for Active; 'I' for Inactive)
REMARK    1  A    between atoms: O1_2  and  C2_3 
REMARK    2  A    between atoms: C2_3  and  C3_4 
REMARK    3  A    between atoms: C5_6  and  N1_7 
REMARK    4  A    between atoms: N1_7  and  C6_8 
REMARK    5  A    between atoms: C10_14  and  O2_15 
REMARK    6  A    between atoms: O2_15  and  C11_16 
REMARK    7  A    between atoms: C11_16  and  O3_17 
REMARK    8  A    between atoms: C12_18  and  O4_19 
ROOT
HETATM    1  C6  UNL     1      22.714   0.261  53.451  1.00  0.00     0.138 A 
HETATM    2  N2  UNL     1      22.208  -0.589  54.361  1.00  0.00    -0.224 NA
HETATM    3  C7  UNL     1      22.965  -1.328  55.196  1.00  0.00     0.235 A 
HETATM    4  N3  UNL     1      24.326  -1.239  55.150  1.00  0.00    -0.241 NA
HETATM    5  C8  UNL     1      24.919  -0.397  54.254  1.00  0.00     0.075 A 
HETATM    6  C9  UNL     1      26.296  -0.267  54.165  1.00  0.00     0.072 A 
HETATM    7  C10 UNL     1      26.866   0.591  53.248  1.00  0.00     0.107 A 
HETATM    8  C12 UNL     1      26.042   1.322  52.419  1.00  0.00     0.102 A 
HETATM    9  C14 UNL     1      24.677   1.183  52.519  1.00  0.00     0.057 A 
HETATM   10  C15 UNL     1      24.090   0.330  53.427  1.00  0.00     0.041 A 
ENDROOT
BRANCH   1  11
HETATM   11  N1  UNL     1      21.829   0.994  52.616  1.00  0.00    -0.363 N 
HETATM   12  H8  UNL     1      21.503   1.969  52.774  1.00  0.00     0.162 HD
BRANCH  11  13
HETATM   13  C5  UNL     1      21.338   0.313  51.436  1.00  0.00     0.130 A 
HETATM   14  C4  UNL     1      21.766   0.973  50.166  1.00  0.00     0.011 A 
HETATM   15  C3  UNL     1      20.718   1.385  49.427  1.00  0.00    -0.036 A 
HETATM   16  C17 UNL     1      19.570   1.003  50.221  1.00  0.00     0.007 A 
HETATM   17  C16 UNL     1      19.869   0.400  51.357  1.00  0.00     0.003 A 
BRANCH  15  18
HETATM   18  C2  UNL     1      20.794   2.074  48.122  1.00  0.00     0.205 C 
BRANCH  18  19
HETATM   19  O1  UNL     1      22.019   2.544  47.753  1.00  0.00    -0.391 OA
HETATM   20  C1  UNL     1      22.165   3.879  47.524  1.00  0.00     0.201 C 
ENDBRANCH  18  19
ENDBRANCH  15  18
ENDBRANCH  11  13
ENDBRANCH   1  11
BRANCH   8  21
HETATM   21  O4  UNL     1      26.610   2.196  51.485  1.00  0.00    -0.353 OA
HETATM   22  C13 UNL     1      25.824   3.106  50.766  1.00  0.00     0.210 C 
ENDBRANCH   8  21
BRANCH   7  23
HETATM   23  O2  UNL     1      28.235   0.758  53.120  1.00  0.00    -0.323 OA
BRANCH  23  24
HETATM   24  C11 UNL     1      28.951   1.736  53.854  1.00  0.00     0.341 C 
BRANCH  24  25
HETATM   25  O3  UNL     1      29.139   2.902  53.118  1.00  0.00    -0.377 OA
HETATM   26  H13 UNL     1      30.032   3.247  53.318  1.00  0.00     0.212 HD
ENDBRANCH  24  25
ENDBRANCH  23  24
ENDBRANCH   7  23
TORSDOF 8
ENDMDL
MODEL 8
REMARK VINA RESULT:      -6.9      4.195      7.241
REMARK  8 active torsions:
REMARK  status: ('A' for Active; 'I' for Inactive)
REMARK    1  A    between atoms: O1_2  and  C2_3 
REMARK    2  A    between atoms: C2_3  and  C3_4 
REMARK    3  A    between atoms: C5_6  and  N1_7 
REMARK    4  A    between atoms: N1_7  and  C6_8 
REMARK    5  A    between atoms: C10_14  and  O2_15 
REMARK    6  A    between atoms: O2_15  and  C11_16 
REMARK    7  A    between atoms: C11_16  and  O3_17 
REMARK    8  A    between atoms: C12_18  and  O4_19 
ROOT
HETATM    1  C6  UNL     1      23.111  -0.005  53.454  1.00  0.00     0.138 A 
HETATM    2  N2  UNL     1      22.773  -1.156  54.061  1.00  0.00    -0.224 NA
HETATM    3  C7  UNL     1      21.503  -1.513  54.333  1.00  0.00     0.235 A 
HETATM    4  N3  UNL     1      20.469  -0.691  53.990  1.00  0.00    -0.241 NA
HETATM    5  C8  UNL     1      20.727   0.497  53.369  1.00  0.00     0.075 A 
HETATM    6  C9  UNL     1      19.716   1.370  52.998  1.00  0.00     0.072 A 
HETATM    7  C10 UNL     1      20.008   2.563  52.373  1.00  0.00     0.107 A 
HETATM    8  C12 UNL     1      21.326   2.877  52.120  1.00  0.00     0.102 A 
HETATM    9  C14 UNL     1      22.319   2.001  52.493  1.00  0.00     0.057 A 
HETATM   10  C15 UNL     1      22.047   0.806  53.119  1.00  0.00     0.041 A 
ENDROOT
BRANCH   1  11
HETATM   11  N1  UNL     1      24.481   0.279  53.213  1.00  0.00    -0.363 N 
HETATM   12  H8  UNL     1      24.854   1.071  52.651  1.00  0.00     0.162 HD
BRANCH  11  13
HETATM   13  C5  UNL     1      25.445  -0.624  53.808  1.00  0.00     0.130 A 
HETATM   14  C4  UNL     1      26.468   0.083  54.635  1.00  0.00     0.011 A 
HETATM   15  C3  UNL     1      27.718  -0.110  54.175  1.00  0.00    -0.036 A 
HETATM   16  C17 UNL     1      27.528  -0.953  53.013  1.00  0.00     0.007 A 
HETATM   17  C16 UNL     1      26.269  -1.265  52.767  1.00  0.00     0.003 A 
BRANCH  15  18
HETATM   18  C2  UNL     1      28.955   0.449  54.760  1.00  0.00     0.205 C 
BRANCH  18  19
HETATM   19  O1  UNL     1      29.045   1.808  54.806  1.00  0.00    -0.391 OA
HETATM   20  C1  UNL     1      28.830   2.516  53.663  1.00  0.00     0.201 C 
ENDBRANCH  18  19
ENDBRANCH  15  18
ENDBRANCH  11  13
ENDBRANCH   1  11
BRANCH   8  21
HETATM   21  O4  UNL     1      21.633   4.086  51.486  1.00  0.00    -0.353 OA
HETATM   22  C13 UNL     1      22.427   5.057  52.111  1.00  0.00     0.210 C 
ENDBRANCH   8  21
BRANCH   7  23
HETATM   23  O2  UNL     1      19.035   3.469  51.982  1.00  0.00    -0.323 OA
BRANCH  23  24
HETATM   24  C11 UNL     1      18.159   3.217  50.897  1.00  0.00     0.341 C 
BRANCH  24  25
HETATM   25  O3  UNL     1      18.797   2.542  49.861  1.00  0.00    -0.377 OA
HETATM   26  H13 UNL     1      19.469   1.948  50.252  1.00  0.00     0.212 HD
ENDBRANCH  24  25
ENDBRANCH  23  24
ENDBRANCH   7  23
TORSDOF 8
ENDMDL
MODEL 9
REMARK VINA RESULT:      -6.7      4.023      6.667
REMARK  8 active torsions:
REMARK  status: ('A' for Active; 'I' for Inactive)
REMARK    1  A    between atoms: O1_2  and  C2_3 
REMARK    2  A    between atoms: C2_3  and  C3_4 
REMARK    3  A    between atoms: C5_6  and  N1_7 
REMARK    4  A    between atoms: N1_7  and  C6_8 
REMARK    5  A    between atoms: C10_14  and  O2_15 
REMARK    6  A    between atoms: O2_15  and  C11_16 
REMARK    7  A    between atoms: C11_16  and  O3_17 
REMARK    8  A    between atoms: C12_18  and  O4_19 
ROOT
HETATM    1  C6  UNL     1      23.166   2.011  50.920  1.00  0.00     0.138 A 
HETATM    2  N2  UNL     1      23.104   2.361  49.624  1.00  0.00    -0.224 NA
HETATM    3  C7  UNL     1      22.062   2.070  48.820  1.00  0.00     0.235 A 
HETATM    4  N3  UNL     1      20.989   1.382  49.308  1.00  0.00    -0.241 NA
HETATM    5  C8  UNL     1      20.974   0.990  50.615  1.00  0.00     0.075 A 
HETATM    6  C9  UNL     1      19.910   0.291  51.162  1.00  0.00     0.072 A 
HETATM    7  C10 UNL     1      19.924  -0.093  52.486  1.00  0.00     0.107 A 
HETATM    8  C12 UNL     1      21.016   0.232  53.262  1.00  0.00     0.102 A 
HETATM    9  C14 UNL     1      22.065   0.927  52.705  1.00  0.00     0.057 A 
HETATM   10  C15 UNL     1      22.069   1.317  51.385  1.00  0.00     0.041 A 
ENDROOT
BRANCH   1  11
HETATM   11  N1  UNL     1      24.310   2.365  51.683  1.00  0.00    -0.363 N 
HETATM   12  H8  UNL     1      24.350   3.087  52.431  1.00  0.00     0.162 HD
BRANCH  11  13
HETATM   13  C5  UNL     1      25.535   1.651  51.384  1.00  0.00     0.130 A 
HETATM   14  C4  UNL     1      25.807   0.540  52.344  1.00  0.00     0.011 A 
HETATM   15  C3  UNL     1      26.969   0.708  53.004  1.00  0.00    -0.036 A 
HETATM   16  C17 UNL     1      27.478   1.959  52.483  1.00  0.00     0.007 A 
HETATM   17  C16 UNL     1      26.707   2.525  51.574  1.00  0.00     0.003 A 
BRANCH  15  18
HETATM   18  C2  UNL     1      27.530  -0.206  54.022  1.00  0.00     0.205 C 
BRANCH  18  19
HETATM   19  O1  UNL     1      28.840  -0.021  54.348  1.00  0.00    -0.391 OA
HETATM   20  C1  UNL     1      29.780  -0.799  53.742  1.00  0.00     0.201 C 
ENDBRANCH  18  19
ENDBRANCH  15  18
ENDBRANCH  11  13
ENDBRANCH   1  11
BRANCH   8  21
HETATM   21  O4  UNL     1      21.041  -0.152  54.607  1.00  0.00    -0.353 OA
HETATM   22  C13 UNL     1      22.059  -0.971  55.114  1.00  0.00     0.210 C 
ENDBRANCH   8  21
BRANCH   7  23
HETATM   23  O2  UNL     1      18.887  -0.792  53.081  1.00  0.00    -0.323 OA
BRANCH  23  24
HETATM   24  C11 UNL     1      17.553  -0.716  52.608  1.00  0.00     0.341 C 
BRANCH  24  25
HETATM   25  O3  UNL     1      16.631  -1.006  53.609  1.00  0.00    -0.377 OA
HETATM   26  H13 UNL     1      16.980  -1.752  54.138  1.00  0.00     0.212 HD
ENDBRANCH  24  25
ENDBRANCH  23  24
ENDBRANCH   7  23
TORSDOF 8
ENDMDL
