MODEL 1
REMARK VINA RESULT:      -9.1      0.000      0.000
REMARK  3 active torsions:
REMARK  status: ('A' for Active; 'I' for Inactive)
REMARK    1  A    between atoms: C6_6  and  N1_7 
REMARK    2  A    between atoms: N1_7  and  C7_8 
REMARK    3  A    between atoms: C16_21  and  C17_22 
ROOT
HETATM    1  C1  UNL     1      20.093   1.393  49.503  1.00  0.00     0.018 C 
HETATM    2  C2  UNL     1      20.502   0.908  50.526  1.00  0.00    -0.077 C 
HETATM    3  C3  UNL     1      20.972   0.318  51.765  1.00  0.00     0.031 A 
HETATM    4  C4  UNL     1      22.349   0.322  52.018  1.00  0.00     0.039 A 
HETATM    5  C5  UNL     1      22.656  -0.271  53.224  1.00  0.00     0.040 A 
HETATM    6  C6  UNL     1      24.013  -0.299  53.520  1.00  0.00     0.142 A 
HETATM    7  N2  UNL     1      24.434  -0.854  54.663  1.00  0.00    -0.224 NA
HETATM    8  C13 UNL     1      23.596  -1.402  55.568  1.00  0.00     0.236 A 
HETATM    9  N3  UNL     1      22.263  -1.378  55.285  1.00  0.00    -0.241 NA
HETATM   10  C14 UNL     1      21.802  -0.831  54.149  1.00  0.00     0.073 A 
HETATM   11  C15 UNL     1      20.456  -0.787  53.811  1.00  0.00     0.048 A 
HETATM   12  C16 UNL     1      20.050  -0.215  52.625  1.00  0.00     0.022 A 
ENDROOT
BRANCH  12  13
HETATM   13  C17 UNL     1      18.629  -0.193  52.307  1.00  0.00     0.271 C 
HETATM   14  O1  UNL     1      17.830  -1.072  52.744  1.00  0.00    -0.301 OA
ENDBRANCH  12  13
BRANCH   6  15
HETATM   15  N1  UNL     1      25.103   0.207  52.766  1.00  0.00    -0.340 N 
HETATM   16  H3  UNL     1      24.858   0.813  51.941  1.00  0.00     0.167 HD
BRANCH  15  17
HETATM   17  C7  UNL     1      26.465  -0.042  53.041  1.00  0.00     0.035 A 
HETATM   18  C8  UNL     1      27.064  -1.266  52.784  1.00  0.00     0.032 A 
HETATM   19  C9  UNL     1      28.387  -1.556  53.048  1.00  0.00     0.046 A 
HETATM   20  C10 UNL     1      29.169  -0.554  53.608  1.00  0.00     0.138 A 
HETATM   21  F1  UNL     1      30.471  -0.784  53.888  1.00  0.00    -0.204 F 
HETATM   22  C11 UNL     1      28.616   0.695  53.887  1.00  0.00     0.074 A 
HETATM   23 CL1  UNL     1      29.537   1.985  54.588  1.00  0.00    -0.081 Cl
HETATM   24  C12 UNL     1      27.284   0.919  53.598  1.00  0.00     0.056 A 
ENDBRANCH  15  17
ENDBRANCH   6  15
TORSDOF 3
ENDMDL
MODEL 2
REMARK VINA RESULT:      -9.0      2.415      3.859
REMARK  3 active torsions:
REMARK  status: ('A' for Active; 'I' for Inactive)
REMARK    1  A    between atoms: C6_6  and  N1_7 
REMARK    2  A    between atoms: N1_7  and  C7_8 
REMARK    3  A    between atoms: C16_21  and  C17_22 
ROOT
HETATM    1  C1  UNL     1      21.181  -0.643  54.601  1.00  0.00     0.018 C 
HETATM    2  C2  UNL     1      21.696  -0.004  53.720  1.00  0.00    -0.077 C 
HETATM    3  C3  UNL     1      22.297   0.761  52.643  1.00  0.00     0.031 A 
HETATM    4  C4  UNL     1      23.577   1.289  52.844  1.00  0.00     0.039 A 
HETATM    5  C5  UNL     1      24.024   1.994  51.746  1.00  0.00     0.040 A 
HETATM    6  C6  UNL     1      25.290   2.546  51.897  1.00  0.00     0.142 A 
HETATM    7  N2  UNL     1      25.829   3.256  50.898  1.00  0.00    -0.224 NA
HETATM    8  C13 UNL     1      25.199   3.475  49.725  1.00  0.00     0.236 A 
HETATM    9  N3  UNL     1      23.956   2.936  49.569  1.00  0.00    -0.241 NA
HETATM   10  C14 UNL     1      23.382   2.217  50.547  1.00  0.00     0.073 A 
HETATM   11  C15 UNL     1      22.118   1.653  50.443  1.00  0.00     0.048 A 
HETATM   12  C16 UNL     1      21.583   0.931  51.488  1.00  0.00     0.022 A 
ENDROOT
BRANCH  12  13
HETATM   13  C17 UNL     1      20.252   0.359  51.337  1.00  0.00     0.271 C 
HETATM   14  O1  UNL     1      19.206   1.068  51.409  1.00  0.00    -0.301 OA
ENDBRANCH  12  13
BRANCH   6  15
HETATM   15  N1  UNL     1      26.174   2.468  53.003  1.00  0.00    -0.340 N 
HETATM   16  H3  UNL     1      26.073   3.218  53.735  1.00  0.00     0.167 HD
BRANCH  15  17
HETATM   17  C7  UNL     1      27.160   1.474  53.186  1.00  0.00     0.035 A 
HETATM   18  C8  UNL     1      28.430   1.765  53.659  1.00  0.00     0.032 A 
HETATM   19  C9  UNL     1      29.426   0.829  53.841  1.00  0.00     0.046 A 
HETATM   20  C10 UNL     1      29.135  -0.495  53.531  1.00  0.00     0.138 A 
HETATM   21  F1  UNL     1      30.074  -1.453  53.690  1.00  0.00    -0.204 F 
HETATM   22  C11 UNL     1      27.873  -0.840  53.051  1.00  0.00     0.074 A 
HETATM   23 CL1  UNL     1      27.447  -2.470  52.642  1.00  0.00    -0.081 Cl
HETATM   24  C12 UNL     1      26.920   0.147  52.892  1.00  0.00     0.056 A 
ENDBRANCH  15  17
ENDBRANCH   6  15
TORSDOF 3
ENDMDL
MODEL 3
REMARK VINA RESULT:      -8.4      4.604      5.610
REMARK  3 active torsions:
REMARK  status: ('A' for Active; 'I' for Inactive)
REMARK    1  A    between atoms: C6_6  and  N1_7 
REMARK    2  A    between atoms: N1_7  and  C7_8 
REMARK    3  A    between atoms: C16_21  and  C17_22 
ROOT
HETATM    1  C1  UNL     1      19.485   0.217  52.220  1.00  0.00     0.018 C 
HETATM    2  C2  UNL     1      20.672   0.291  52.402  1.00  0.00    -0.077 C 
HETATM    3  C3  UNL     1      22.101   0.365  52.641  1.00  0.00     0.031 A 
HETATM    4  C4  UNL     1      22.864   1.209  51.825  1.00  0.00     0.039 A 
HETATM    5  C5  UNL     1      24.202   1.181  52.158  1.00  0.00     0.040 A 
HETATM    6  C6  UNL     1      25.005   1.997  51.372  1.00  0.00     0.142 A 
HETATM    7  N2  UNL     1      26.324   2.049  51.598  1.00  0.00    -0.224 NA
HETATM    8  C13 UNL     1      26.934   1.337  52.568  1.00  0.00     0.236 A 
HETATM    9  N3  UNL     1      26.152   0.534  53.344  1.00  0.00    -0.241 NA
HETATM   10  C14 UNL     1      24.827   0.453  53.148  1.00  0.00     0.073 A 
HETATM   11  C15 UNL     1      23.987  -0.353  53.905  1.00  0.00     0.048 A 
HETATM   12  C16 UNL     1      22.634  -0.393  53.648  1.00  0.00     0.022 A 
ENDROOT
BRANCH  12  13
HETATM   13  C17 UNL     1      21.790  -1.256  54.463  1.00  0.00     0.271 C 
HETATM   14  O1  UNL     1      22.266  -1.985  55.382  1.00  0.00    -0.301 OA
ENDBRANCH  12  13
BRANCH   6  15
HETATM   15  N1  UNL     1      24.636   2.853  50.304  1.00  0.00    -0.340 N 
HETATM   16  H3  UNL     1      24.138   2.400  49.494  1.00  0.00     0.167 HD
BRANCH  15  17
HETATM   17  C7  UNL     1      24.886   4.242  50.252  1.00  0.00     0.035 A 
HETATM   18  C8  UNL     1      24.194   5.151  51.038  1.00  0.00     0.032 A 
HETATM   19  C9  UNL     1      24.397   6.515  51.011  1.00  0.00     0.046 A 
HETATM   20  C10 UNL     1      25.359   7.009  50.138  1.00  0.00     0.138 A 
HETATM   21  F1  UNL     1      25.598   8.337  50.071  1.00  0.00    -0.204 F 
HETATM   22  C11 UNL     1      26.082   6.137  49.326  1.00  0.00     0.074 A 
HETATM   23 CL1  UNL     1      27.293   6.689  48.215  1.00  0.00    -0.081 Cl
HETATM   24  C12 UNL     1      25.830   4.781  49.403  1.00  0.00     0.056 A 
ENDBRANCH  15  17
ENDBRANCH   6  15
TORSDOF 3
ENDMDL
MODEL 4
REMARK VINA RESULT:      -8.3      4.933      7.731
REMARK  3 active torsions:
REMARK  status: ('A' for Active; 'I' for Inactive)
REMARK    1  A    between atoms: C6_6  and  N1_7 
REMARK    2  A    between atoms: N1_7  and  C7_8 
REMARK    3  A    between atoms: C16_21  and  C17_22 
ROOT
HETATM    1  C1  UNL     1      27.184  -2.160  52.697  1.00  0.00     0.018 C 
HETATM    2  C2  UNL     1      26.627  -1.095  52.757  1.00  0.00    -0.077 C 
HETATM    3  C3  UNL     1      25.975   0.199  52.842  1.00  0.00     0.031 A 
HETATM    4  C4  UNL     1      24.676   0.318  52.333  1.00  0.00     0.039 A 
HETATM    5  C5  UNL     1      24.179   1.596  52.475  1.00  0.00     0.040 A 
HETATM    6  C6  UNL     1      22.894   1.769  51.978  1.00  0.00     0.142 A 
HETATM    7  N2  UNL     1      22.307   2.970  52.055  1.00  0.00    -0.224 NA
HETATM    8  C13 UNL     1      22.906   4.050  52.600  1.00  0.00     0.236 A 
HETATM    9  N3  UNL     1      24.168   3.888  53.090  1.00  0.00    -0.241 NA
HETATM   10  C14 UNL     1      24.790   2.700  53.030  1.00  0.00     0.073 A 
HETATM   11  C15 UNL     1      26.075   2.483  53.508  1.00  0.00     0.048 A 
HETATM   12  C16 UNL     1      26.659   1.239  53.411  1.00  0.00     0.022 A 
ENDROOT
BRANCH  12  13
HETATM   13  C17 UNL     1      28.011   1.055  53.922  1.00  0.00     0.271 C 
HETATM   14  O1  UNL     1      28.699   2.023  54.361  1.00  0.00    -0.301 OA
ENDBRANCH  12  13
BRANCH   6  15
HETATM   15  N1  UNL     1      22.034   0.819  51.371  1.00  0.00    -0.340 N 
HETATM   16  H3  UNL     1      22.270   0.539  50.383  1.00  0.00     0.167 HD
BRANCH  15  17
HETATM   17  C7  UNL     1      20.906   0.234  51.987  1.00  0.00     0.035 A 
HETATM   18  C8  UNL     1      20.982  -0.422  53.206  1.00  0.00     0.032 A 
HETATM   19  C9  UNL     1      19.910  -1.018  53.838  1.00  0.00     0.046 A 
HETATM   20  C10 UNL     1      18.672  -0.954  53.209  1.00  0.00     0.138 A 
HETATM   21  F1  UNL     1      17.589  -1.522  53.782  1.00  0.00    -0.204 F 
HETATM   22  C11 UNL     1      18.542  -0.306  51.981  1.00  0.00     0.074 A 
HETATM   23 CL1  UNL     1      17.028  -0.195  51.144  1.00  0.00    -0.081 Cl
HETATM   24  C12 UNL     1      19.656   0.270  51.404  1.00  0.00     0.056 A 
ENDBRANCH  15  17
ENDBRANCH   6  15
TORSDOF 3
ENDMDL
MODEL 5
REMARK VINA RESULT:      -8.2      4.685      5.557
REMARK  3 active torsions:
REMARK  status: ('A' for Active; 'I' for Inactive)
REMARK    1  A    between atoms: C6_6  and  N1_7 
REMARK    2  A    between atoms: N1_7  and  C7_8 
REMARK    3  A    between atoms: C16_21  and  C17_22 
ROOT
HETATM    1  C1  UNL     1      19.642   0.235  51.554  1.00  0.00     0.018 C 
HETATM    2  C2  UNL     1      20.792   0.365  51.884  1.00  0.00    -0.077 C 
HETATM    3  C3  UNL     1      22.174   0.509  52.304  1.00  0.00     0.031 A 
HETATM    4  C4  UNL     1      23.024   1.295  51.517  1.00  0.00     0.039 A 
HETATM    5  C5  UNL     1      24.304   1.343  52.027  1.00  0.00     0.040 A 
HETATM    6  C6  UNL     1      25.191   2.107  51.278  1.00  0.00     0.142 A 
HETATM    7  N2  UNL     1      26.465   2.224  51.672  1.00  0.00    -0.224 NA
HETATM    8  C13 UNL     1      26.951   1.628  52.781  1.00  0.00     0.236 A 
HETATM    9  N3  UNL     1      26.087   0.878  53.522  1.00  0.00    -0.241 NA
HETATM   10  C14 UNL     1      24.802   0.735  53.159  1.00  0.00     0.073 A 
HETATM   11  C15 UNL     1      23.884  -0.022  53.873  1.00  0.00     0.048 A 
HETATM   12  C16 UNL     1      22.580  -0.132  53.443  1.00  0.00     0.022 A 
ENDROOT
BRANCH  12  13
HETATM   13  C17 UNL     1      21.650  -0.939  54.220  1.00  0.00     0.271 C 
HETATM   14  O1  UNL     1      22.044  -1.736  55.122  1.00  0.00    -0.301 OA
ENDBRANCH  12  13
BRANCH   6  15
HETATM   15  N1  UNL     1      24.953   2.843  50.090  1.00  0.00    -0.340 N 
HETATM   16  H3  UNL     1      24.458   2.332  49.315  1.00  0.00     0.167 HD
BRANCH  15  17
HETATM   17  C7  UNL     1      25.329   4.188  49.880  1.00  0.00     0.035 A 
HETATM   18  C8  UNL     1      26.433   4.542  49.119  1.00  0.00     0.032 A 
HETATM   19  C9  UNL     1      26.842   5.840  48.898  1.00  0.00     0.046 A 
HETATM   20  C10 UNL     1      26.097   6.861  49.477  1.00  0.00     0.138 A 
HETATM   21  F1  UNL     1      26.454   8.151  49.294  1.00  0.00    -0.204 F 
HETATM   22  C11 UNL     1      24.979   6.559  50.253  1.00  0.00     0.074 A 
HETATM   23 CL1  UNL     1      24.010   7.784  51.005  1.00  0.00    -0.081 Cl
HETATM   24  C12 UNL     1      24.623   5.237  50.434  1.00  0.00     0.056 A 
ENDBRANCH  15  17
ENDBRANCH   6  15
TORSDOF 3
ENDMDL
MODEL 6
REMARK VINA RESULT:      -8.2      4.489      6.902
REMARK  3 active torsions:
REMARK  status: ('A' for Active; 'I' for Inactive)
REMARK    1  A    between atoms: C6_6  and  N1_7 
REMARK    2  A    between atoms: N1_7  and  C7_8 
REMARK    3  A    between atoms: C16_21  and  C17_22 
ROOT
HETATM    1  C1  UNL     1      26.487   2.904  50.206  1.00  0.00     0.018 C 
HETATM    2  C2  UNL     1      26.254   2.233  51.178  1.00  0.00    -0.077 C 
HETATM    3  C3  UNL     1      25.997   1.429  52.358  1.00  0.00     0.031 A 
HETATM    4  C4  UNL     1      24.783   0.734  52.432  1.00  0.00     0.039 A 
HETATM    5  C5  UNL     1      24.668   0.016  53.603  1.00  0.00     0.040 A 
HETATM    6  C6  UNL     1      23.476  -0.687  53.729  1.00  0.00     0.142 A 
HETATM    7  N2  UNL     1      23.248  -1.418  54.827  1.00  0.00    -0.224 NA
HETATM    8  C13 UNL     1      24.129  -1.514  55.845  1.00  0.00     0.236 A 
HETATM    9  N3  UNL     1      25.301  -0.828  55.728  1.00  0.00    -0.241 NA
HETATM   10  C14 UNL     1      25.567  -0.083  54.643  1.00  0.00     0.073 A 
HETATM   11  C15 UNL     1      26.740   0.640  54.478  1.00  0.00     0.048 A 
HETATM   12  C16 UNL     1      26.948   1.390  53.341  1.00  0.00     0.022 A 
ENDROOT
BRANCH  12  13
HETATM   13  C17 UNL     1      28.192   2.136  53.210  1.00  0.00     0.271 C 
HETATM   14  O1  UNL     1      28.794   2.619  54.213  1.00  0.00    -0.301 OA
ENDBRANCH  12  13
BRANCH   6  15
HETATM   15  N1  UNL     1      22.391  -0.775  52.822  1.00  0.00    -0.340 N 
HETATM   16  H3  UNL     1      22.117  -1.744  52.513  1.00  0.00     0.167 HD
BRANCH  15  17
HETATM   17  C7  UNL     1      21.666   0.325  52.313  1.00  0.00     0.035 A 
HETATM   18  C8  UNL     1      21.049   1.254  53.138  1.00  0.00     0.032 A 
HETATM   19  C9  UNL     1      20.322   2.335  52.685  1.00  0.00     0.046 A 
HETATM   20  C10 UNL     1      20.201   2.503  51.310  1.00  0.00     0.138 A 
HETATM   21  F1  UNL     1      19.498   3.544  50.812  1.00  0.00    -0.204 F 
HETATM   22  C11 UNL     1      20.801   1.596  50.438  1.00  0.00     0.074 A 
HETATM   23 CL1  UNL     1      20.684   1.747  48.715  1.00  0.00    -0.081 Cl
HETATM   24  C12 UNL     1      21.515   0.535  50.958  1.00  0.00     0.056 A 
ENDBRANCH  15  17
ENDBRANCH   6  15
TORSDOF 3
ENDMDL
MODEL 7
REMARK VINA RESULT:      -8.0      5.143      6.446
REMARK  3 active torsions:
REMARK  status: ('A' for Active; 'I' for Inactive)
REMARK    1  A    between atoms: C6_6  and  N1_7 
REMARK    2  A    between atoms: N1_7  and  C7_8 
REMARK    3  A    between atoms: C16_21  and  C17_22 
ROOT
HETATM    1  C1  UNL     1      28.579   5.112  48.209  1.00  0.00     0.018 C 
HETATM    2  C2  UNL     1      27.561   5.047  48.848  1.00  0.00    -0.077 C 
HETATM    3  C3  UNL     1      26.331   4.994  49.616  1.00  0.00     0.031 A 
HETATM    4  C4  UNL     1      25.944   3.764  50.159  1.00  0.00     0.039 A 
HETATM    5  C5  UNL     1      24.760   3.856  50.859  1.00  0.00     0.040 A 
HETATM    6  C6  UNL     1      24.327   2.657  51.412  1.00  0.00     0.142 A 
HETATM    7  N2  UNL     1      23.186   2.620  52.112  1.00  0.00    -0.224 NA
HETATM    8  C13 UNL     1      22.411   3.707  52.315  1.00  0.00     0.236 A 
HETATM    9  N3  UNL     1      22.829   4.887  51.775  1.00  0.00    -0.241 NA
HETATM   10  C14 UNL     1      23.967   4.964  51.067  1.00  0.00     0.073 A 
HETATM   11  C15 UNL     1      24.434   6.137  50.491  1.00  0.00     0.048 A 
HETATM   12  C16 UNL     1      25.608   6.147  49.771  1.00  0.00     0.022 A 
ENDROOT
BRANCH  12  13
HETATM   13  C17 UNL     1      26.060   7.399  49.181  1.00  0.00     0.271 C 
HETATM   14  O1  UNL     1      26.823   8.197  49.801  1.00  0.00    -0.301 OA
ENDBRANCH  12  13
BRANCH   6  15
HETATM   15  N1  UNL     1      24.940   1.379  51.368  1.00  0.00    -0.340 N 
HETATM   16  H3  UNL     1      24.610   0.729  50.608  1.00  0.00     0.167 HD
BRANCH  15  17
HETATM   17  C7  UNL     1      25.941   0.927  52.255  1.00  0.00     0.035 A 
HETATM   18  C8  UNL     1      26.472   1.734  53.250  1.00  0.00     0.032 A 
HETATM   19  C9  UNL     1      27.458   1.339  54.129  1.00  0.00     0.046 A 
HETATM   20  C10 UNL     1      27.951   0.045  54.009  1.00  0.00     0.138 A 
HETATM   21  F1  UNL     1      28.919  -0.395  54.843  1.00  0.00    -0.204 F 
HETATM   22  C11 UNL     1      27.452  -0.807  53.024  1.00  0.00     0.074 A 
HETATM   23 CL1  UNL     1      28.026  -2.430  52.820  1.00  0.00    -0.081 Cl
HETATM   24  C12 UNL     1      26.464  -0.347  52.176  1.00  0.00     0.056 A 
ENDBRANCH  15  17
ENDBRANCH   6  15
TORSDOF 3
ENDMDL
MODEL 8
REMARK VINA RESULT:      -8.0      5.248      6.834
REMARK  3 active torsions:
REMARK  status: ('A' for Active; 'I' for Inactive)
REMARK    1  A    between atoms: C6_6  and  N1_7 
REMARK    2  A    between atoms: N1_7  and  C7_8 
REMARK    3  A    between atoms: C16_21  and  C17_22 
ROOT
HETATM    1  C1  UNL     1      27.924   2.103  53.470  1.00  0.00     0.018 C 
HETATM    2  C2  UNL     1      26.732   2.031  53.314  1.00  0.00    -0.077 C 
HETATM    3  C3  UNL     1      25.297   1.919  53.130  1.00  0.00     0.031 A 
HETATM    4  C4  UNL     1      24.582   3.076  52.798  1.00  0.00     0.039 A 
HETATM    5  C5  UNL     1      23.233   2.828  52.657  1.00  0.00     0.040 A 
HETATM    6  C6  UNL     1      22.476   3.947  52.334  1.00  0.00     0.142 A 
HETATM    7  N2  UNL     1      21.152   3.831  52.175  1.00  0.00    -0.224 NA
HETATM    8  C13 UNL     1      20.492   2.662  52.315  1.00  0.00     0.236 A 
HETATM    9  N3  UNL     1      21.228   1.559  52.631  1.00  0.00    -0.241 NA
HETATM   10  C14 UNL     1      22.558   1.635  52.799  1.00  0.00     0.073 A 
HETATM   11  C15 UNL     1      23.353   0.545  53.128  1.00  0.00     0.048 A 
HETATM   12  C16 UNL     1      24.713   0.692  53.291  1.00  0.00     0.022 A 
ENDROOT
BRANCH  12  13
HETATM   13  C17 UNL     1      25.509  -0.477  53.640  1.00  0.00     0.271 C 
HETATM   14  O1  UNL     1      25.585  -0.906  54.828  1.00  0.00    -0.301 OA
ENDBRANCH  12  13
BRANCH   6  15
HETATM   15  N1  UNL     1      22.901   5.282  52.118  1.00  0.00    -0.340 N 
HETATM   16  H3  UNL     1      22.664   5.976  52.874  1.00  0.00     0.167 HD
BRANCH  15  17
HETATM   17  C7  UNL     1      23.606   5.736  50.982  1.00  0.00     0.035 A 
HETATM   18  C8  UNL     1      23.359   5.245  49.709  1.00  0.00     0.032 A 
HETATM   19  C9  UNL     1      24.031   5.651  48.574  1.00  0.00     0.046 A 
HETATM   20  C10 UNL     1      25.021   6.616  48.719  1.00  0.00     0.138 A 
HETATM   21  F1  UNL     1      25.711   7.049  47.641  1.00  0.00    -0.204 F 
HETATM   22  C11 UNL     1      25.309   7.142  49.978  1.00  0.00     0.074 A 
HETATM   23 CL1  UNL     1      26.532   8.344  50.226  1.00  0.00    -0.081 Cl
HETATM   24  C12 UNL     1      24.597   6.692  51.073  1.00  0.00     0.056 A 
ENDBRANCH  15  17
ENDBRANCH   6  15
TORSDOF 3
ENDMDL
MODEL 9
REMARK VINA RESULT:      -8.0      4.180      5.748
REMARK  3 active torsions:
REMARK  status: ('A' for Active; 'I' for Inactive)
REMARK    1  A    between atoms: C6_6  and  N1_7 
REMARK    2  A    between atoms: N1_7  and  C7_8 
REMARK    3  A    between atoms: C16_21  and  C17_22 
ROOT
HETATM    1  C1  UNL     1      25.631  -0.110  54.154  1.00  0.00     0.018 C 
HETATM    2  C2  UNL     1      24.550   0.019  53.640  1.00  0.00    -0.077 C 
HETATM    3  C3  UNL     1      23.237   0.160  53.040  1.00  0.00     0.031 A 
HETATM    4  C4  UNL     1      23.141   0.817  51.807  1.00  0.00     0.039 A 
HETATM    5  C5  UNL     1      21.840   0.883  51.355  1.00  0.00     0.040 A 
HETATM    6  C6  UNL     1      21.690   1.534  50.137  1.00  0.00     0.142 A 
HETATM    7  N2  UNL     1      20.472   1.664  49.598  1.00  0.00    -0.224 NA
HETATM    8  C13 UNL     1      19.352   1.191  50.184  1.00  0.00     0.236 A 
HETATM    9  N3  UNL     1      19.491   0.551  51.380  1.00  0.00    -0.241 NA
HETATM   10  C14 UNL     1      20.696   0.401  51.953  1.00  0.00     0.073 A 
HETATM   11  C15 UNL     1      20.892  -0.236  53.171  1.00  0.00     0.048 A 
HETATM   12  C16 UNL     1      22.156  -0.352  53.706  1.00  0.00     0.022 A 
ENDROOT
BRANCH  12  13
HETATM   13  C17 UNL     1      22.317  -1.024  54.988  1.00  0.00     0.271 C 
HETATM   14  O1  UNL     1      21.888  -2.198  55.188  1.00  0.00    -0.301 OA
ENDBRANCH  12  13
BRANCH   6  15
HETATM   15  N1  UNL     1      22.681   2.112  49.304  1.00  0.00    -0.340 N 
HETATM   16  H3  UNL     1      22.847   1.639  48.378  1.00  0.00     0.167 HD
BRANCH  15  17
HETATM   17  C7  UNL     1      23.446   3.255  49.625  1.00  0.00     0.035 A 
HETATM   18  C8  UNL     1      22.914   4.336  50.313  1.00  0.00     0.032 A 
HETATM   19  C9  UNL     1      23.620   5.476  50.636  1.00  0.00     0.046 A 
HETATM   20  C10 UNL     1      24.952   5.544  50.247  1.00  0.00     0.138 A 
HETATM   21  F1  UNL     1      25.690   6.638  50.537  1.00  0.00    -0.204 F 
HETATM   22  C11 UNL     1      25.535   4.485  49.552  1.00  0.00     0.074 A 
HETATM   23 CL1  UNL     1      27.189   4.509  49.036  1.00  0.00    -0.081 Cl
HETATM   24  C12 UNL     1      24.771   3.372  49.261  1.00  0.00     0.056 A 
ENDBRANCH  15  17
ENDBRANCH   6  15
TORSDOF 3
ENDMDL
