MODEL 1
REMARK VINA RESULT:      -8.0      0.000      0.000
REMARK  6 active torsions:
REMARK  status: ('A' for Active; 'I' for Inactive)
REMARK    1  A    between atoms: C7_11  and  N3_12 
REMARK    2  A    between atoms: N3_12  and  C8_13 
REMARK    3  A    between atoms: N4_21  and  C16_22 
REMARK    4  A    between atoms: C16_22  and  C17_23 
REMARK    5  A    between atoms: C17_23  and  C18_24 
REMARK    6  A    between atoms: C18_24  and  N5_25 
ROOT
HETATM    1  O1  UNL     1      22.440  -0.121  52.057  1.00  0.00    -0.271 OA
HETATM    2  C1  UNL     1      21.825   0.929  51.664  1.00  0.00     0.248 C 
HETATM    3  C2  UNL     1      20.574   0.752  50.867  1.00  0.00     0.279 C 
HETATM    4  O2  UNL     1      20.435   1.793  49.921  1.00  0.00    -0.340 OA
HETATM    5  C3  UNL     1      20.872   3.076  50.195  1.00  0.00     0.098 C 
HETATM    6  C4  UNL     1      20.373   4.126  49.501  1.00  0.00     0.071 C 
HETATM    7  C5  UNL     1      20.928   5.397  49.941  1.00  0.00     0.093 A 
HETATM    8  N1  UNL     1      20.401   6.594  50.069  1.00  0.00    -0.242 NA
HETATM    9  C6  UNL     1      21.448   7.465  50.565  1.00  0.00     0.230 A 
HETATM   10  N2  UNL     1      22.548   6.814  50.724  1.00  0.00    -0.240 NA
HETATM   11  C7  UNL     1      22.324   5.471  50.346  1.00  0.00     0.193 A 
HETATM   12  C14 UNL     1      22.612   4.436  51.423  1.00  0.00     0.067 C 
HETATM   13  C15 UNL     1      21.864   3.336  51.233  1.00  0.00     0.071 C 
HETATM   14  N4  UNL     1      22.376   2.225  52.012  1.00  0.00    -0.314 N 
ENDROOT
BRANCH  14  15
HETATM   15  C16 UNL     1      23.347   2.304  53.062  1.00  0.00     0.134 C 
BRANCH  15  16
HETATM   16  C17 UNL     1      24.754   2.098  52.597  1.00  0.00     0.050 C 
BRANCH  16  17
HETATM   17  C18 UNL     1      25.724   2.162  53.759  1.00  0.00     0.274 C 
BRANCH  17  18
HETATM   18  N5  UNL     1      26.733   1.162  53.476  1.00  0.00     0.092 N 
HETATM   19  C19 UNL     1      27.067   0.335  54.597  1.00  0.00     0.298 C 
HETATM   20  C20 UNL     1      28.563   0.341  54.876  1.00  0.00     0.198 C 
HETATM   21  O3  UNL     1      29.054   1.641  54.903  1.00  0.00    -0.388 OA
HETATM   22  C21 UNL     1      28.781   2.359  53.767  1.00  0.00     0.198 C 
HETATM   23  C22 UNL     1      27.861   1.695  52.788  1.00  0.00     0.298 C 
ENDBRANCH  17  18
ENDBRANCH  16  17
ENDBRANCH  15  16
ENDBRANCH  14  15
BRANCH  11  24
HETATM   24  N3  UNL     1      23.225   5.053  49.257  1.00  0.00    -0.354 N 
HETATM   25  H5  UNL     1      22.740   4.769  48.345  1.00  0.00     0.163 HD
BRANCH  24  26
HETATM   26  C8  UNL     1      24.635   4.938  49.148  1.00  0.00     0.030 A 
HETATM   27  C9  UNL     1      25.377   3.816  49.429  1.00  0.00     0.029 A 
HETATM   28  C10 UNL     1      26.741   3.680  49.323  1.00  0.00     0.002 A 
HETATM   29  C11 UNL     1      27.448   4.780  48.891  1.00  0.00     0.000 A 
HETATM   30  C12 UNL     1      26.762   5.934  48.594  1.00  0.00     0.002 A 
HETATM   31  C13 UNL     1      25.395   6.005  48.721  1.00  0.00     0.029 A 
ENDBRANCH  24  26
ENDBRANCH  11  24
TORSDOF 6
ENDMDL
MODEL 2
REMARK VINA RESULT:      -7.8      2.469      5.114
REMARK  6 active torsions:
REMARK  status: ('A' for Active; 'I' for Inactive)
REMARK    1  A    between atoms: C7_11  and  N3_12 
REMARK    2  A    between atoms: N3_12  and  C8_13 
REMARK    3  A    between atoms: N4_21  and  C16_22 
REMARK    4  A    between atoms: C16_22  and  C17_23 
REMARK    5  A    between atoms: C17_23  and  C18_24 
REMARK    6  A    between atoms: C18_24  and  N5_25 
ROOT
HETATM    1  O1  UNL     1      25.451   6.348  50.451  1.00  0.00    -0.271 OA
HETATM    2  C1  UNL     1      24.243   5.941  50.350  1.00  0.00     0.248 C 
HETATM    3  C2  UNL     1      23.147   6.926  50.604  1.00  0.00     0.279 C 
HETATM    4  O2  UNL     1      22.031   6.287  51.189  1.00  0.00    -0.340 OA
HETATM    5  C3  UNL     1      21.693   4.987  50.861  1.00  0.00     0.098 C 
HETATM    6  C4  UNL     1      20.433   4.538  51.076  1.00  0.00     0.071 C 
HETATM    7  C5  UNL     1      20.254   3.160  50.648  1.00  0.00     0.093 A 
HETATM    8  N1  UNL     1      19.245   2.532  50.086  1.00  0.00    -0.242 NA
HETATM    9  C6  UNL     1      19.661   1.160  49.883  1.00  0.00     0.230 A 
HETATM   10  N2  UNL     1      20.865   0.979  50.306  1.00  0.00    -0.240 NA
HETATM   11  C7  UNL     1      21.339   2.205  50.823  1.00  0.00     0.193 A 
HETATM   12  C14 UNL     1      22.611   2.734  50.179  1.00  0.00     0.067 C 
HETATM   13  C15 UNL     1      22.666   4.074  50.272  1.00  0.00     0.071 C 
HETATM   14  N4  UNL     1      24.006   4.554  49.998  1.00  0.00    -0.314 N 
ENDROOT
BRANCH  14  15
HETATM   15  C16 UNL     1      25.077   3.793  49.426  1.00  0.00     0.134 C 
BRANCH  15  16
HETATM   16  C17 UNL     1      26.177   3.481  50.392  1.00  0.00     0.050 C 
BRANCH  16  17
HETATM   17  C18 UNL     1      25.726   2.460  51.416  1.00  0.00     0.274 C 
BRANCH  17  18
HETATM   18  N5  UNL     1      26.894   1.652  51.696  1.00  0.00     0.092 N 
HETATM   19  C19 UNL     1      26.628   0.246  51.774  1.00  0.00     0.298 C 
HETATM   20  C20 UNL     1      27.120  -0.349  53.085  1.00  0.00     0.198 C 
HETATM   21  O3  UNL     1      26.695   0.417  54.164  1.00  0.00    -0.388 OA
HETATM   22  C21 UNL     1      27.054   1.738  54.079  1.00  0.00     0.198 C 
HETATM   23  C22 UNL     1      27.668   2.159  52.779  1.00  0.00     0.298 C 
ENDBRANCH  17  18
ENDBRANCH  16  17
ENDBRANCH  15  16
ENDBRANCH  14  15
BRANCH  11  24
HETATM   24  N3  UNL     1      21.729   2.085  52.240  1.00  0.00    -0.354 N 
HETATM   25  H5  UNL     1      21.892   3.013  52.750  1.00  0.00     0.163 HD
BRANCH  24  26
HETATM   26  C8  UNL     1      21.944   0.979  53.102  1.00  0.00     0.030 A 
HETATM   27  C9  UNL     1      21.005   0.405  53.926  1.00  0.00     0.029 A 
HETATM   28  C10 UNL     1      21.188  -0.670  54.762  1.00  0.00     0.002 A 
HETATM   29  C11 UNL     1      22.443  -1.239  54.786  1.00  0.00     0.000 A 
HETATM   30  C12 UNL     1      23.425  -0.709  53.984  1.00  0.00     0.002 A 
HETATM   31  C13 UNL     1      23.177   0.370  53.168  1.00  0.00     0.029 A 
ENDBRANCH  24  26
ENDBRANCH  11  24
TORSDOF 6
ENDMDL
MODEL 3
REMARK VINA RESULT:      -7.8      4.425      7.151
REMARK  6 active torsions:
REMARK  status: ('A' for Active; 'I' for Inactive)
REMARK    1  A    between atoms: C7_11  and  N3_12 
REMARK    2  A    between atoms: N3_12  and  C8_13 
REMARK    3  A    between atoms: N4_21  and  C16_22 
REMARK    4  A    between atoms: C16_22  and  C17_23 
REMARK    5  A    between atoms: C17_23  and  C18_24 
REMARK    6  A    between atoms: C18_24  and  N5_25 
ROOT
HETATM    1  O1  UNL     1      29.381   8.700  49.176  1.00  0.00    -0.271 OA
HETATM    2  C1  UNL     1      28.147   8.389  49.304  1.00  0.00     0.248 C 
HETATM    3  C2  UNL     1      27.268   9.314  50.083  1.00  0.00     0.279 C 
HETATM    4  O2  UNL     1      26.266   8.589  50.766  1.00  0.00    -0.340 OA
HETATM    5  C3  UNL     1      25.711   7.444  50.224  1.00  0.00     0.098 C 
HETATM    6  C4  UNL     1      24.502   7.009  50.649  1.00  0.00     0.071 C 
HETATM    7  C5  UNL     1      24.066   5.809  49.953  1.00  0.00     0.093 A 
HETATM    8  N1  UNL     1      22.885   5.403  49.543  1.00  0.00    -0.242 NA
HETATM    9  C6  UNL     1      23.079   4.121  48.896  1.00  0.00     0.230 A 
HETATM   10  N2  UNL     1      24.321   3.780  48.921  1.00  0.00    -0.240 NA
HETATM   11  C7  UNL     1      25.045   4.796  49.583  1.00  0.00     0.193 A 
HETATM   12  C14 UNL     1      26.170   5.425  48.776  1.00  0.00     0.067 C 
HETATM   13  C15 UNL     1      26.398   6.684  49.185  1.00  0.00     0.071 C 
HETATM   14  N4  UNL     1      27.675   7.162  48.691  1.00  0.00    -0.314 N 
ENDROOT
BRANCH  14  15
HETATM   15  C16 UNL     1      28.477   6.541  47.680  1.00  0.00     0.134 C 
BRANCH  15  16
HETATM   16  C17 UNL     1      29.546   5.647  48.225  1.00  0.00     0.050 C 
BRANCH  16  17
HETATM   17  C18 UNL     1      30.877   5.921  47.554  1.00  0.00     0.274 C 
BRANCH  17  18
HETATM   18  N5  UNL     1      31.858   5.188  48.327  1.00  0.00     0.092 N 
HETATM   19  C19 UNL     1      32.788   6.021  49.029  1.00  0.00     0.298 C 
HETATM   20  C20 UNL     1      34.229   5.658  48.700  1.00  0.00     0.198 C 
HETATM   21  O3  UNL     1      34.409   5.558  47.325  1.00  0.00    -0.388 OA
HETATM   22  C21 UNL     1      33.549   4.680  46.717  1.00  0.00     0.198 C 
HETATM   23  C22 UNL     1      32.463   4.131  47.590  1.00  0.00     0.298 C 
ENDBRANCH  17  18
ENDBRANCH  16  17
ENDBRANCH  15  16
ENDBRANCH  14  15
BRANCH  11  24
HETATM   24  N3  UNL     1      25.757   4.277  50.765  1.00  0.00    -0.354 N 
HETATM   25  H5  UNL     1      26.443   4.961  51.223  1.00  0.00     0.163 HD
BRANCH  24  26
HETATM   26  C8  UNL     1      25.734   3.034  51.450  1.00  0.00     0.030 A 
HETATM   27  C9  UNL     1      26.633   2.008  51.288  1.00  0.00     0.029 A 
HETATM   28  C10 UNL     1      26.635   0.801  51.944  1.00  0.00     0.002 A 
HETATM   29  C11 UNL     1      25.633   0.587  52.864  1.00  0.00     0.000 A 
HETATM   30  C12 UNL     1      24.702   1.576  53.071  1.00  0.00     0.002 A 
HETATM   31  C13 UNL     1      24.756   2.764  52.381  1.00  0.00     0.029 A 
ENDBRANCH  24  26
ENDBRANCH  11  24
TORSDOF 6
ENDMDL
MODEL 4
REMARK VINA RESULT:      -7.8      2.397      3.873
REMARK  6 active torsions:
REMARK  status: ('A' for Active; 'I' for Inactive)
REMARK    1  A    between atoms: C7_11  and  N3_12 
REMARK    2  A    between atoms: N3_12  and  C8_13 
REMARK    3  A    between atoms: N4_21  and  C16_22 
REMARK    4  A    between atoms: C16_22  and  C17_23 
REMARK    5  A    between atoms: C17_23  and  C18_24 
REMARK    6  A    between atoms: C18_24  and  N5_25 
ROOT
HETATM    1  O1  UNL     1      27.558   2.758  51.718  1.00  0.00    -0.271 OA
HETATM    2  C1  UNL     1      26.392   2.765  51.193  1.00  0.00     0.248 C 
HETATM    3  C2  UNL     1      26.295   2.830  49.703  1.00  0.00     0.279 C 
HETATM    4  O2  UNL     1      25.146   3.554  49.311  1.00  0.00    -0.340 OA
HETATM    5  C3  UNL     1      23.979   3.508  50.051  1.00  0.00     0.098 C 
HETATM    6  C4  UNL     1      22.798   3.833  49.476  1.00  0.00     0.071 C 
HETATM    7  C5  UNL     1      21.678   3.702  50.395  1.00  0.00     0.093 A 
HETATM    8  N1  UNL     1      20.438   3.300  50.227  1.00  0.00    -0.242 NA
HETATM    9  C6  UNL     1      19.790   3.377  51.520  1.00  0.00     0.230 A 
HETATM   10  N2  UNL     1      20.608   3.806  52.418  1.00  0.00    -0.240 NA
HETATM   11  C7  UNL     1      21.854   4.051  51.798  1.00  0.00     0.193 A 
HETATM   12  C14 UNL     1      23.033   3.289  52.383  1.00  0.00     0.067 C 
HETATM   13  C15 UNL     1      23.983   3.102  51.452  1.00  0.00     0.071 C 
HETATM   14  N4  UNL     1      25.237   2.711  52.068  1.00  0.00    -0.314 N 
ENDROOT
BRANCH  14  15
HETATM   15  C16 UNL     1      25.417   2.289  53.426  1.00  0.00     0.134 C 
BRANCH  15  16
HETATM   16  C17 UNL     1      25.270   0.813  53.622  1.00  0.00     0.050 C 
BRANCH  16  17
HETATM   17  C18 UNL     1      26.554   0.205  54.146  1.00  0.00     0.274 C 
BRANCH  17  18
HETATM   18  N5  UNL     1      27.211  -0.368  52.990  1.00  0.00     0.092 N 
HETATM   19  C19 UNL     1      26.888  -1.745  52.758  1.00  0.00     0.298 C 
HETATM   20  C20 UNL     1      28.137  -2.609  52.664  1.00  0.00     0.198 C 
HETATM   21  O3  UNL     1      28.996  -2.349  53.725  1.00  0.00    -0.388 OA
HETATM   22  C21 UNL     1      29.342  -1.028  53.846  1.00  0.00     0.198 C 
HETATM   23  C22 UNL     1      28.605  -0.082  52.948  1.00  0.00     0.298 C 
ENDBRANCH  17  18
ENDBRANCH  16  17
ENDBRANCH  15  16
ENDBRANCH  14  15
BRANCH  11  24
HETATM   24  N3  UNL     1      22.276   5.454  51.956  1.00  0.00    -0.354 N 
HETATM   25  H5  UNL     1      22.660   5.711  52.922  1.00  0.00     0.163 HD
BRANCH  24  26
HETATM   26  C8  UNL     1      22.284   6.575  51.084  1.00  0.00     0.030 A 
HETATM   27  C9  UNL     1      21.180   7.163  50.517  1.00  0.00     0.029 A 
HETATM   28  C10 UNL     1      21.163   8.251  49.678  1.00  0.00     0.002 A 
HETATM   29  C11 UNL     1      22.378   8.819  49.366  1.00  0.00     0.000 A 
HETATM   30  C12 UNL     1      23.520   8.276  49.902  1.00  0.00     0.002 A 
HETATM   31  C13 UNL     1      23.469   7.185  50.737  1.00  0.00     0.029 A 
ENDBRANCH  24  26
ENDBRANCH  11  24
TORSDOF 6
ENDMDL
MODEL 5
REMARK VINA RESULT:      -7.5      3.611      6.749
REMARK  6 active torsions:
REMARK  status: ('A' for Active; 'I' for Inactive)
REMARK    1  A    between atoms: C7_11  and  N3_12 
REMARK    2  A    between atoms: N3_12  and  C8_13 
REMARK    3  A    between atoms: N4_21  and  C16_22 
REMARK    4  A    between atoms: C16_22  and  C17_23 
REMARK    5  A    between atoms: C17_23  and  C18_24 
REMARK    6  A    between atoms: C18_24  and  N5_25 
ROOT
HETATM    1  O1  UNL     1      26.337   7.948  49.441  1.00  0.00    -0.271 OA
HETATM    2  C1  UNL     1      25.462   7.169  49.955  1.00  0.00     0.248 C 
HETATM    3  C2  UNL     1      24.385   7.779  50.791  1.00  0.00     0.279 C 
HETATM    4  O2  UNL     1      24.006   6.901  51.832  1.00  0.00    -0.340 OA
HETATM    5  C3  UNL     1      24.012   5.530  51.654  1.00  0.00     0.098 C 
HETATM    6  C4  UNL     1      23.270   4.738  52.463  1.00  0.00     0.071 C 
HETATM    7  C5  UNL     1      23.379   3.330  52.113  1.00  0.00     0.093 A 
HETATM    8  N1  UNL     1      22.506   2.348  52.118  1.00  0.00    -0.242 NA
HETATM    9  C6  UNL     1      23.200   1.163  51.654  1.00  0.00     0.230 A 
HETATM   10  N2  UNL     1      24.431   1.431  51.385  1.00  0.00    -0.240 NA
HETATM   11  C7  UNL     1      24.653   2.801  51.650  1.00  0.00     0.193 A 
HETATM   12  C14 UNL     1      25.163   3.617  50.473  1.00  0.00     0.067 C 
HETATM   13  C15 UNL     1      24.800   4.904  50.598  1.00  0.00     0.071 C 
HETATM   14  N4  UNL     1      25.567   5.745  49.699  1.00  0.00    -0.314 N 
ENDROOT
BRANCH  14  15
HETATM   15  C16 UNL     1      26.389   5.295  48.616  1.00  0.00     0.134 C 
BRANCH  15  16
HETATM   16  C17 UNL     1      27.843   5.209  48.959  1.00  0.00     0.050 C 
BRANCH  16  17
HETATM   17  C18 UNL     1      28.683   5.979  47.961  1.00  0.00     0.274 C 
BRANCH  17  18
HETATM   18  N5  UNL     1      29.764   6.559  48.730  1.00  0.00     0.092 N 
HETATM   19  C19 UNL     1      29.907   7.975  48.560  1.00  0.00     0.298 C 
HETATM   20  C20 UNL     1      31.320   8.352  48.142  1.00  0.00     0.198 C 
HETATM   21  O3  UNL     1      31.748   7.559  47.083  1.00  0.00    -0.388 OA
HETATM   22  C21 UNL     1      31.672   6.213  47.334  1.00  0.00     0.198 C 
HETATM   23  C22 UNL     1      30.981   5.831  48.608  1.00  0.00     0.298 C 
ENDBRANCH  17  18
ENDBRANCH  16  17
ENDBRANCH  15  16
ENDBRANCH  14  15
BRANCH  11  24
HETATM   24  N3  UNL     1      25.715   2.996  52.654  1.00  0.00    -0.354 N 
HETATM   25  H5  UNL     1      25.842   4.004  52.995  1.00  0.00     0.163 HD
BRANCH  24  26
HETATM   26  C8  UNL     1      26.635   2.119  53.284  1.00  0.00     0.030 A 
HETATM   27  C9  UNL     1      27.996   2.105  53.094  1.00  0.00     0.029 A 
HETATM   28  C10 UNL     1      28.906   1.271  53.699  1.00  0.00     0.002 A 
HETATM   29  C11 UNL     1      28.410   0.346  54.592  1.00  0.00     0.000 A 
HETATM   30  C12 UNL     1      27.057   0.311  54.825  1.00  0.00     0.002 A 
HETATM   31  C13 UNL     1      26.198   1.175  54.186  1.00  0.00     0.029 A 
ENDBRANCH  24  26
ENDBRANCH  11  24
TORSDOF 6
ENDMDL
MODEL 6
REMARK VINA RESULT:      -7.4      2.472      3.590
REMARK  6 active torsions:
REMARK  status: ('A' for Active; 'I' for Inactive)
REMARK    1  A    between atoms: C7_11  and  N3_12 
REMARK    2  A    between atoms: N3_12  and  C8_13 
REMARK    3  A    between atoms: N4_21  and  C16_22 
REMARK    4  A    between atoms: C16_22  and  C17_23 
REMARK    5  A    between atoms: C17_23  and  C18_24 
REMARK    6  A    between atoms: C18_24  and  N5_25 
ROOT
HETATM    1  O1  UNL     1      22.360   1.988  49.343  1.00  0.00    -0.271 OA
HETATM    2  C1  UNL     1      22.538   3.233  49.114  1.00  0.00     0.248 C 
HETATM    3  C2  UNL     1      21.805   3.848  47.966  1.00  0.00     0.279 C 
HETATM    4  O2  UNL     1      22.577   4.874  47.375  1.00  0.00    -0.340 OA
HETATM    5  C3  UNL     1      23.413   5.672  48.133  1.00  0.00     0.098 C 
HETATM    6  C4  UNL     1      23.805   6.881  47.665  1.00  0.00     0.071 C 
HETATM    7  C5  UNL     1      24.659   7.590  48.605  1.00  0.00     0.093 A 
HETATM    8  N1  UNL     1      24.763   8.862  48.920  1.00  0.00    -0.242 NA
HETATM    9  C6  UNL     1      25.788   8.963  49.938  1.00  0.00     0.230 A 
HETATM   10  N2  UNL     1      26.272   7.802  50.216  1.00  0.00    -0.240 NA
HETATM   11  C7  UNL     1      25.617   6.845  49.410  1.00  0.00     0.193 A 
HETATM   12  C14 UNL     1      24.911   5.731  50.166  1.00  0.00     0.067 C 
HETATM   13  C15 UNL     1      23.885   5.248  49.446  1.00  0.00     0.071 C 
HETATM   14  N4  UNL     1      23.439   3.974  49.977  1.00  0.00    -0.314 N 
ENDROOT
BRANCH  14  15
HETATM   15  C16 UNL     1      23.804   3.410  51.242  1.00  0.00     0.134 C 
BRANCH  15  16
HETATM   16  C17 UNL     1      24.993   2.504  51.177  1.00  0.00     0.050 C 
BRANCH  16  17
HETATM   17  C18 UNL     1      24.971   1.497  52.308  1.00  0.00     0.274 C 
BRANCH  17  18
HETATM   18  N5  UNL     1      26.355   1.127  52.524  1.00  0.00     0.092 N 
HETATM   19  C19 UNL     1      26.705  -0.156  51.992  1.00  0.00     0.298 C 
HETATM   20  C20 UNL     1      27.331  -1.053  53.051  1.00  0.00     0.198 C 
HETATM   21  O3  UNL     1      26.562  -1.056  54.210  1.00  0.00    -0.388 OA
HETATM   22  C21 UNL     1      26.331   0.194  54.724  1.00  0.00     0.198 C 
HETATM   23  C22 UNL     1      26.780   1.338  53.866  1.00  0.00     0.298 C 
ENDBRANCH  17  18
ENDBRANCH  16  17
ENDBRANCH  15  16
ENDBRANCH  14  15
BRANCH  11  24
HETATM   24  N3  UNL     1      26.567   6.101  48.565  1.00  0.00    -0.354 N 
HETATM   25  H5  UNL     1      26.219   5.151  48.211  1.00  0.00     0.163 HD
BRANCH  24  26
HETATM   26  C8  UNL     1      27.882   6.371  48.104  1.00  0.00     0.030 A 
HETATM   27  C9  UNL     1      28.997   5.607  48.353  1.00  0.00     0.029 A 
HETATM   28  C10 UNL     1      30.276   5.844  47.912  1.00  0.00     0.002 A 
HETATM   29  C11 UNL     1      30.473   6.966  47.137  1.00  0.00     0.000 A 
HETATM   30  C12 UNL     1      29.397   7.771  46.853  1.00  0.00     0.002 A 
HETATM   31  C13 UNL     1      28.139   7.477  47.326  1.00  0.00     0.029 A 
ENDBRANCH  24  26
ENDBRANCH  11  24
TORSDOF 6
ENDMDL
MODEL 7
REMARK VINA RESULT:      -7.3      2.236      3.051
REMARK  6 active torsions:
REMARK  status: ('A' for Active; 'I' for Inactive)
REMARK    1  A    between atoms: C7_11  and  N3_12 
REMARK    2  A    between atoms: N3_12  and  C8_13 
REMARK    3  A    between atoms: N4_21  and  C16_22 
REMARK    4  A    between atoms: C16_22  and  C17_23 
REMARK    5  A    between atoms: C17_23  and  C18_24 
REMARK    6  A    between atoms: C18_24  and  N5_25 
ROOT
HETATM    1  O1  UNL     1      20.823   0.841  51.821  1.00  0.00    -0.271 OA
HETATM    2  C1  UNL     1      21.133   2.082  51.839  1.00  0.00     0.248 C 
HETATM    3  C2  UNL     1      20.048   3.072  52.115  1.00  0.00     0.279 C 
HETATM    4  O2  UNL     1      20.280   4.273  51.408  1.00  0.00    -0.340 OA
HETATM    5  C3  UNL     1      21.562   4.739  51.182  1.00  0.00     0.098 C 
HETATM    6  C4  UNL     1      21.770   6.046  50.902  1.00  0.00     0.071 C 
HETATM    7  C5  UNL     1      23.179   6.359  50.720  1.00  0.00     0.093 A 
HETATM    8  N1  UNL     1      23.901   7.408  51.045  1.00  0.00    -0.242 NA
HETATM    9  C6  UNL     1      25.258   7.137  50.616  1.00  0.00     0.230 A 
HETATM   10  N2  UNL     1      25.338   5.977  50.059  1.00  0.00    -0.240 NA
HETATM   11  C7  UNL     1      24.053   5.392  50.071  1.00  0.00     0.193 A 
HETATM   12  C14 UNL     1      23.957   4.046  50.772  1.00  0.00     0.067 C 
HETATM   13  C15 UNL     1      22.717   3.849  51.249  1.00  0.00     0.071 C 
HETATM   14  N4  UNL     1      22.512   2.455  51.591  1.00  0.00    -0.314 N 
ENDROOT
BRANCH  14  15
HETATM   15  C16 UNL     1      23.530   1.452  51.699  1.00  0.00     0.134 C 
BRANCH  15  16
HETATM   16  C17 UNL     1      23.976   1.197  53.104  1.00  0.00     0.050 C 
BRANCH  16  17
HETATM   17  C18 UNL     1      24.744  -0.106  53.200  1.00  0.00     0.274 C 
BRANCH  17  18
HETATM   18  N5  UNL     1      26.079   0.196  52.725  1.00  0.00     0.092 N 
HETATM   19  C19 UNL     1      26.858  -0.961  52.399  1.00  0.00     0.298 C 
HETATM   20  C20 UNL     1      28.190  -0.969  53.135  1.00  0.00     0.198 C 
HETATM   21  O3  UNL     1      28.006  -0.714  54.489  1.00  0.00    -0.388 OA
HETATM   22  C21 UNL     1      27.330   0.452  54.745  1.00  0.00     0.198 C 
HETATM   23  C22 UNL     1      26.756   1.143  53.546  1.00  0.00     0.298 C 
ENDBRANCH  17  18
ENDBRANCH  16  17
ENDBRANCH  15  16
ENDBRANCH  14  15
BRANCH  11  24
HETATM   24  N3  UNL     1      23.586   5.072  48.710  1.00  0.00    -0.354 N 
HETATM   25  H5  UNL     1      23.530   4.028  48.479  1.00  0.00     0.163 HD
BRANCH  24  26
HETATM   26  C8  UNL     1      23.185   5.867  47.605  1.00  0.00     0.030 A 
HETATM   27  C9  UNL     1      23.746   7.062  47.225  1.00  0.00     0.029 A 
HETATM   28  C10 UNL     1      23.380   7.844  46.156  1.00  0.00     0.002 A 
HETATM   29  C11 UNL     1      22.340   7.389  45.376  1.00  0.00     0.000 A 
HETATM   30  C12 UNL     1      21.736   6.199  45.704  1.00  0.00     0.002 A 
HETATM   31  C13 UNL     1      22.151   5.463  46.789  1.00  0.00     0.029 A 
ENDBRANCH  24  26
ENDBRANCH  11  24
TORSDOF 6
ENDMDL
MODEL 8
REMARK VINA RESULT:      -7.3      7.728     11.542
REMARK  6 active torsions:
REMARK  status: ('A' for Active; 'I' for Inactive)
REMARK    1  A    between atoms: C7_11  and  N3_12 
REMARK    2  A    between atoms: N3_12  and  C8_13 
REMARK    3  A    between atoms: N4_21  and  C16_22 
REMARK    4  A    between atoms: C16_22  and  C17_23 
REMARK    5  A    between atoms: C17_23  and  C18_24 
REMARK    6  A    between atoms: C18_24  and  N5_25 
ROOT
HETATM    1  O1  UNL     1      35.213   4.806  48.489  1.00  0.00    -0.271 OA
HETATM    2  C1  UNL     1      34.664   5.884  48.073  1.00  0.00     0.248 C 
HETATM    3  C2  UNL     1      35.224   7.186  48.550  1.00  0.00     0.279 C 
HETATM    4  O2  UNL     1      34.199   8.151  48.676  1.00  0.00    -0.340 OA
HETATM    5  C3  UNL     1      33.118   8.169  47.815  1.00  0.00     0.098 C 
HETATM    6  C4  UNL     1      32.390   9.300  47.662  1.00  0.00     0.071 C 
HETATM    7  C5  UNL     1      31.311   9.142  46.700  1.00  0.00     0.093 A 
HETATM    8  N1  UNL     1      30.798   9.955  45.805  1.00  0.00    -0.242 NA
HETATM    9  C6  UNL     1      29.743   9.228  45.128  1.00  0.00     0.230 A 
HETATM   10  N2  UNL     1      29.634   8.035  45.601  1.00  0.00    -0.240 NA
HETATM   11  C7  UNL     1      30.596   7.876  46.623  1.00  0.00     0.193 A 
HETATM   12  C14 UNL     1      31.577   6.732  46.420  1.00  0.00     0.067 C 
HETATM   13  C15 UNL     1      32.738   6.989  47.046  1.00  0.00     0.071 C 
HETATM   14  N4  UNL     1      33.534   5.783  47.168  1.00  0.00    -0.314 N 
ENDROOT
BRANCH  14  15
HETATM   15  C16 UNL     1      33.302   4.543  46.489  1.00  0.00     0.134 C 
BRANCH  15  16
HETATM   16  C17 UNL     1      34.108   4.381  45.239  1.00  0.00     0.050 C 
BRANCH  16  17
HETATM   17  C18 UNL     1      33.266   4.660  44.011  1.00  0.00     0.274 C 
BRANCH  17  18
HETATM   18  N5  UNL     1      33.721   5.943  43.515  1.00  0.00     0.092 N 
HETATM   19  C19 UNL     1      32.705   6.706  42.853  1.00  0.00     0.298 C 
HETATM   20  C20 UNL     1      33.136   7.123  41.454  1.00  0.00     0.198 C 
HETATM   21  O3  UNL     1      33.645   6.037  40.751  1.00  0.00    -0.388 OA
HETATM   22  C21 UNL     1      34.675   5.397  41.393  1.00  0.00     0.198 C 
HETATM   23  C22 UNL     1      34.946   5.853  42.794  1.00  0.00     0.298 C 
ENDBRANCH  17  18
ENDBRANCH  16  17
ENDBRANCH  15  16
ENDBRANCH  14  15
BRANCH  11  24
HETATM   24  N3  UNL     1      29.971   7.530  47.912  1.00  0.00    -0.354 N 
HETATM   25  H5  UNL     1      30.489   7.882  48.781  1.00  0.00     0.163 HD
BRANCH  24  26
HETATM   26  C8  UNL     1      28.800   6.810  48.267  1.00  0.00     0.030 A 
HETATM   27  C9  UNL     1      28.679   5.442  48.319  1.00  0.00     0.029 A 
HETATM   28  C10 UNL     1      27.560   4.725  48.666  1.00  0.00     0.002 A 
HETATM   29  C11 UNL     1      26.433   5.445  48.998  1.00  0.00     0.000 A 
HETATM   30  C12 UNL     1      26.491   6.817  48.965  1.00  0.00     0.002 A 
HETATM   31  C13 UNL     1      27.644   7.476  48.608  1.00  0.00     0.029 A 
ENDBRANCH  24  26
ENDBRANCH  11  24
TORSDOF 6
ENDMDL
MODEL 9
REMARK VINA RESULT:      -7.3      2.357      4.696
REMARK  6 active torsions:
REMARK  status: ('A' for Active; 'I' for Inactive)
REMARK    1  A    between atoms: C7_11  and  N3_12 
REMARK    2  A    between atoms: N3_12  and  C8_13 
REMARK    3  A    between atoms: N4_21  and  C16_22 
REMARK    4  A    between atoms: C16_22  and  C17_23 
REMARK    5  A    between atoms: C17_23  and  C18_24 
REMARK    6  A    between atoms: C18_24  and  N5_25 
ROOT
HETATM    1  O1  UNL     1      27.511   2.518  51.815  1.00  0.00    -0.271 OA
HETATM    2  C1  UNL     1      26.408   2.621  51.176  1.00  0.00     0.248 C 
HETATM    3  C2  UNL     1      26.471   2.839  49.699  1.00  0.00     0.279 C 
HETATM    4  O2  UNL     1      25.390   3.640  49.268  1.00  0.00    -0.340 OA
HETATM    5  C3  UNL     1      24.151   3.563  49.875  1.00  0.00     0.098 C 
HETATM    6  C4  UNL     1      23.046   3.988  49.218  1.00  0.00     0.071 C 
HETATM    7  C5  UNL     1      21.832   3.807  49.999  1.00  0.00     0.093 A 
HETATM    8  N1  UNL     1      20.607   3.469  49.663  1.00  0.00    -0.242 NA
HETATM    9  C6  UNL     1      19.827   3.440  50.884  1.00  0.00     0.230 A 
HETATM   10  N2  UNL     1      20.556   3.747  51.900  1.00  0.00    -0.240 NA
HETATM   11  C7  UNL     1      21.867   4.006  51.440  1.00  0.00     0.193 A 
HETATM   12  C14 UNL     1      22.956   3.146  52.062  1.00  0.00     0.067 C 
HETATM   13  C15 UNL     1      23.995   3.019  51.219  1.00  0.00     0.071 C 
HETATM   14  N4  UNL     1      25.165   2.522  51.918  1.00  0.00    -0.314 N 
ENDROOT
BRANCH  14  15
HETATM   15  C16 UNL     1      25.189   1.960  53.235  1.00  0.00     0.134 C 
BRANCH  15  16
HETATM   16  C17 UNL     1      25.048   0.470  53.257  1.00  0.00     0.050 C 
BRANCH  16  17
HETATM   17  C18 UNL     1      24.145   0.027  54.389  1.00  0.00     0.274 C 
BRANCH  17  18
HETATM   18  N5  UNL     1      23.118  -0.783  53.770  1.00  0.00     0.092 N 
HETATM   19  C19 UNL     1      22.670  -0.289  52.501  1.00  0.00     0.298 C 
HETATM   20  C20 UNL     1      21.159  -0.107  52.469  1.00  0.00     0.198 C 
HETATM   21  O3  UNL     1      20.723   0.591  53.590  1.00  0.00    -0.388 OA
HETATM   22  C21 UNL     1      21.107   0.024  54.778  1.00  0.00     0.198 C 
HETATM   23  C22 UNL     1      22.066  -1.122  54.667  1.00  0.00     0.298 C 
ENDBRANCH  17  18
ENDBRANCH  16  17
ENDBRANCH  15  16
ENDBRANCH  14  15
BRANCH  11  24
HETATM   24  N3  UNL     1      22.306   5.370  51.786  1.00  0.00    -0.354 N 
HETATM   25  H5  UNL     1      22.513   5.536  52.824  1.00  0.00     0.163 HD
BRANCH  24  26
HETATM   26  C8  UNL     1      22.520   6.548  51.024  1.00  0.00     0.030 A 
HETATM   27  C9  UNL     1      21.555   7.262  50.355  1.00  0.00     0.029 A 
HETATM   28  C10 UNL     1      21.738   8.408  49.618  1.00  0.00     0.002 A 
HETATM   29  C11 UNL     1      23.021   8.901  49.536  1.00  0.00     0.000 A 
HETATM   30  C12 UNL     1      24.031   8.231  50.184  1.00  0.00     0.002 A 
HETATM   31  C13 UNL     1      23.781   7.088  50.906  1.00  0.00     0.029 A 
ENDBRANCH  24  26
ENDBRANCH  11  24
TORSDOF 6
ENDMDL
