MODEL 1
REMARK VINA RESULT:      -7.8      0.000      0.000
REMARK  7 active torsions:
REMARK  status: ('A' for Active; 'I' for Inactive)
REMARK       I    between atoms: C1_2  and  N1_3 
REMARK    1  A    between atoms: C1_2  and  C15_21 
REMARK    2  A    between atoms: N1_3  and  C2_4 
REMARK    3  A    between atoms: C3_5  and  C4_6 
REMARK    4  A    between atoms: C5_7  and  C6_8 
REMARK    5  A    between atoms: C6_8  and  N2_9 
REMARK    6  A    between atoms: N2_9  and  C7_10 
REMARK    7  A    between atoms: C10_14  and  C11_15 
ROOT
HETATM    1  C4  UNL     1      23.403   4.633  49.625  1.00  0.00    -0.001 C 
HETATM    2  C5  UNL     1      24.611   4.935  50.086  1.00  0.00    -0.007 C 
ENDROOT
BRANCH   2   3
HETATM    3  C6  UNL     1      25.850   4.262  49.623  1.00  0.00     0.165 C 
BRANCH   3   4
HETATM    4  N2  UNL     1      26.456   3.575  50.756  1.00  0.00    -0.219 N 
HETATM    5  H8  UNL     1      27.487   3.744  50.969  1.00  0.00     0.178 HD
BRANCH   4   6
HETATM    6  C7  UNL     1      26.081   2.664  51.777  1.00  0.00     0.723 A 
HETATM    7  N3  UNL     1      24.953   2.651  52.516  1.00  0.00    -0.075 NA
HETATM    8  C8  UNL     1      24.756   1.714  53.471  1.00  0.00     0.139 A 
HETATM    9  C9  UNL     1      25.744   0.773  53.664  1.00  0.00     0.054 A 
HETATM   10  C10 UNL     1      26.917   0.751  52.928  1.00  0.00     0.102 A 
HETATM   11  N5  UNL     1      27.029   1.709  52.009  1.00  0.00    -0.061 NA
BRANCH  10  12
HETATM   12  C11 UNL     1      27.959  -0.245  53.158  1.00  0.00     0.067 A 
HETATM   13  N4  UNL     1      27.920  -1.516  53.064  1.00  0.00    -0.263 NA
HETATM   14  C12 UNL     1      29.173  -2.110  53.379  1.00  0.00     0.113 A 
HETATM   15  C13 UNL     1      30.068  -1.168  53.695  1.00  0.00    -0.001 A 
HETATM   16  C14 UNL     1      29.348   0.113  53.573  1.00  0.00     0.090 A 
ENDBRANCH  10  12
ENDBRANCH   4   6
ENDBRANCH   3   4
ENDBRANCH   2   3
BRANCH   1  17
HETATM   17  C3  UNL     1      23.103   3.625  48.623  1.00  0.00     0.017 C 
HETATM   18  C2  UNL     1      22.794   2.365  48.955  1.00  0.00     0.091 C 
BRANCH  18  19
HETATM   19  N1  UNL     1      22.771   2.052  50.340  1.00  0.00    -0.333 N 
HETATM   20  C1  UNL     1      21.846   1.042  50.691  1.00  0.00     0.255 C 
HETATM   21  O1  UNL     1      21.179   0.570  49.718  1.00  0.00    -0.267 OA
HETATM   22  H1  UNL     1      23.341   2.471  51.108  1.00  0.00     0.168 HD
BRANCH  20  23
HETATM   23  C15 UNL     1      21.628   0.538  52.044  1.00  0.00     0.033 C 
HETATM   24  C16 UNL     1      20.819   1.120  52.913  1.00  0.00     0.018 C 
HETATM   25  C17 UNL     1      20.657   0.539  54.263  1.00  0.00     0.014 C 
HETATM   26  C18 UNL     1      21.631  -0.297  54.588  1.00  0.00    -0.014 C 
HETATM   27  C19 UNL     1      22.109  -1.090  53.697  1.00  0.00    -0.013 C 
HETATM   28  C20 UNL     1      22.331  -0.665  52.467  1.00  0.00     0.030 C 
ENDBRANCH  20  23
ENDBRANCH  18  19
ENDBRANCH   1  17
TORSDOF 7
ENDMDL
MODEL 2
REMARK VINA RESULT:      -7.8      5.366      7.791
REMARK  7 active torsions:
REMARK  status: ('A' for Active; 'I' for Inactive)
REMARK       I    between atoms: C1_2  and  N1_3 
REMARK    1  A    between atoms: C1_2  and  C15_21 
REMARK    2  A    between atoms: N1_3  and  C2_4 
REMARK    3  A    between atoms: C3_5  and  C4_6 
REMARK    4  A    between atoms: C5_7  and  C6_8 
REMARK    5  A    between atoms: C6_8  and  N2_9 
REMARK    6  A    between atoms: N2_9  and  C7_10 
REMARK    7  A    between atoms: C10_14  and  C11_15 
ROOT
HETATM    1  C4  UNL     1      27.200   4.393  48.880  1.00  0.00    -0.001 C 
HETATM    2  C5  UNL     1      27.862   5.480  48.503  1.00  0.00    -0.007 C 
ENDROOT
BRANCH   2   3
HETATM    3  C6  UNL     1      27.299   6.850  48.599  1.00  0.00     0.165 C 
BRANCH   3   4
HETATM    4  N2  UNL     1      28.292   7.718  49.218  1.00  0.00    -0.219 N 
HETATM    5  H8  UNL     1      28.255   7.871  50.272  1.00  0.00     0.178 HD
BRANCH   4   6
HETATM    6  C7  UNL     1      29.411   8.502  48.836  1.00  0.00     0.723 A 
HETATM    7  N3  UNL     1      29.435   9.793  48.445  1.00  0.00    -0.075 NA
HETATM    8  C8  UNL     1      30.594  10.394  48.094  1.00  0.00     0.139 A 
HETATM    9  C9  UNL     1      31.749   9.645  48.149  1.00  0.00     0.054 A 
HETATM   10  C10 UNL     1      31.769   8.318  48.544  1.00  0.00     0.102 A 
HETATM   11  N5  UNL     1      30.583   7.805  48.872  1.00  0.00    -0.061 NA
BRANCH  10  12
HETATM   12  C11 UNL     1      33.002   7.536  48.581  1.00  0.00     0.067 A 
HETATM   13  N4  UNL     1      34.217   7.908  48.482  1.00  0.00    -0.263 NA
HETATM   14  C12 UNL     1      35.116   6.810  48.572  1.00  0.00     0.113 A 
HETATM   15  C13 UNL     1      34.441   5.668  48.737  1.00  0.00    -0.001 A 
HETATM   16  C14 UNL     1      33.018   6.053  48.757  1.00  0.00     0.090 A 
ENDBRANCH  10  12
ENDBRANCH   4   6
ENDBRANCH   3   4
ENDBRANCH   2   3
BRANCH   1  17
HETATM   17  C3  UNL     1      25.856   4.364  49.431  1.00  0.00     0.017 C 
HETATM   18  C2  UNL     1      25.586   3.797  50.613  1.00  0.00     0.091 C 
BRANCH  18  19
HETATM   19  N1  UNL     1      26.678   3.220  51.315  1.00  0.00    -0.333 N 
HETATM   20  C1  UNL     1      26.414   1.935  51.840  1.00  0.00     0.255 C 
HETATM   21  O1  UNL     1      25.246   1.494  51.608  1.00  0.00    -0.267 OA
HETATM   22  H1  UNL     1      27.626   3.624  51.482  1.00  0.00     0.168 HD
BRANCH  20  23
HETATM   23  C15 UNL     1      27.366   1.129  52.600  1.00  0.00     0.033 C 
HETATM   24  C16 UNL     1      27.366  -0.193  52.593  1.00  0.00     0.018 C 
HETATM   25  C17 UNL     1      28.369  -0.929  53.392  1.00  0.00     0.014 C 
HETATM   26  C18 UNL     1      28.931  -0.184  54.331  1.00  0.00    -0.014 C 
HETATM   27  C19 UNL     1      29.214   1.044  54.081  1.00  0.00    -0.013 C 
HETATM   28  C20 UNL     1      28.371   1.806  53.408  1.00  0.00     0.030 C 
ENDBRANCH  20  23
ENDBRANCH  18  19
ENDBRANCH   1  17
TORSDOF 7
ENDMDL
MODEL 3
REMARK VINA RESULT:      -7.7      5.118      6.716
REMARK  7 active torsions:
REMARK  status: ('A' for Active; 'I' for Inactive)
REMARK       I    between atoms: C1_2  and  N1_3 
REMARK    1  A    between atoms: C1_2  and  C15_21 
REMARK    2  A    between atoms: N1_3  and  C2_4 
REMARK    3  A    between atoms: C3_5  and  C4_6 
REMARK    4  A    between atoms: C5_7  and  C6_8 
REMARK    5  A    between atoms: C6_8  and  N2_9 
REMARK    6  A    between atoms: N2_9  and  C7_10 
REMARK    7  A    between atoms: C10_14  and  C11_15 
ROOT
HETATM    1  C4  UNL     1      26.993   4.511  48.921  1.00  0.00    -0.001 C 
HETATM    2  C5  UNL     1      28.008   5.246  48.482  1.00  0.00    -0.007 C 
ENDROOT
BRANCH   2   3
HETATM    3  C6  UNL     1      27.933   6.719  48.317  1.00  0.00     0.165 C 
BRANCH   3   4
HETATM    4  N2  UNL     1      29.090   7.319  48.968  1.00  0.00    -0.219 N 
HETATM    5  H8  UNL     1      28.956   7.810  49.905  1.00  0.00     0.178 HD
BRANCH   4   6
HETATM    6  C7  UNL     1      30.482   7.473  48.742  1.00  0.00     0.723 A 
HETATM    7  N3  UNL     1      31.202   8.612  48.695  1.00  0.00    -0.075 NA
HETATM    8  C8  UNL     1      32.532   8.588  48.449  1.00  0.00     0.139 A 
HETATM    9  C9  UNL     1      33.126   7.362  48.247  1.00  0.00     0.054 A 
HETATM   10  C10 UNL     1      32.424   6.168  48.285  1.00  0.00     0.102 A 
HETATM   11  N5  UNL     1      31.120   6.284  48.533  1.00  0.00    -0.061 NA
BRANCH  10  12
HETATM   12  C11 UNL     1      33.069   4.880  48.053  1.00  0.00     0.067 A 
HETATM   13  N4  UNL     1      32.576   3.705  48.018  1.00  0.00    -0.263 NA
HETATM   14  C12 UNL     1      33.569   2.721  47.759  1.00  0.00     0.113 A 
HETATM   15  C13 UNL     1      34.769   3.294  47.621  1.00  0.00    -0.001 A 
HETATM   16  C14 UNL     1      34.535   4.739  47.800  1.00  0.00     0.090 A 
ENDBRANCH  10  12
ENDBRANCH   4   6
ENDBRANCH   3   4
ENDBRANCH   2   3
BRANCH   1  17
HETATM   17  C3  UNL     1      25.682   5.010  49.299  1.00  0.00     0.017 C 
HETATM   18  C2  UNL     1      25.043   4.571  50.391  1.00  0.00     0.091 C 
BRANCH  18  19
HETATM   19  N1  UNL     1      25.707   3.588  51.173  1.00  0.00    -0.333 N 
HETATM   20  C1  UNL     1      25.007   2.365  51.281  1.00  0.00     0.255 C 
HETATM   21  O1  UNL     1      23.896   2.331  50.666  1.00  0.00    -0.267 OA
HETATM   22  H1  UNL     1      26.625   3.663  51.663  1.00  0.00     0.168 HD
BRANCH  20  23
HETATM   23  C15 UNL     1      25.470   1.197  52.025  1.00  0.00     0.033 C 
HETATM   24  C16 UNL     1      26.666   0.658  51.859  1.00  0.00     0.018 C 
HETATM   25  C17 UNL     1      27.052  -0.525  52.659  1.00  0.00     0.014 C 
HETATM   26  C18 UNL     1      26.015  -1.151  53.193  1.00  0.00    -0.014 C 
HETATM   27  C19 UNL     1      25.031  -0.465  53.656  1.00  0.00    -0.013 C 
HETATM   28  C20 UNL     1      24.578   0.589  53.003  1.00  0.00     0.030 C 
ENDBRANCH  20  23
ENDBRANCH  18  19
ENDBRANCH   1  17
TORSDOF 7
ENDMDL
MODEL 4
REMARK VINA RESULT:      -7.7      1.837      2.722
REMARK  7 active torsions:
REMARK  status: ('A' for Active; 'I' for Inactive)
REMARK       I    between atoms: C1_2  and  N1_3 
REMARK    1  A    between atoms: C1_2  and  C15_21 
REMARK    2  A    between atoms: N1_3  and  C2_4 
REMARK    3  A    between atoms: C3_5  and  C4_6 
REMARK    4  A    between atoms: C5_7  and  C6_8 
REMARK    5  A    between atoms: C6_8  and  N2_9 
REMARK    6  A    between atoms: N2_9  and  C7_10 
REMARK    7  A    between atoms: C10_14  and  C11_15 
ROOT
HETATM    1  C4  UNL     1      21.016   2.647  48.145  1.00  0.00    -0.001 C 
HETATM    2  C5  UNL     1      22.263   2.833  47.728  1.00  0.00    -0.007 C 
ENDROOT
BRANCH   2   3
HETATM    3  C6  UNL     1      23.085   4.006  48.118  1.00  0.00     0.165 C 
BRANCH   3   4
HETATM    4  N2  UNL     1      23.962   3.614  49.213  1.00  0.00    -0.219 N 
HETATM    5  H8  UNL     1      24.902   3.166  48.984  1.00  0.00     0.178 HD
BRANCH   4   6
HETATM    6  C7  UNL     1      23.977   3.642  50.631  1.00  0.00     0.723 A 
HETATM    7  N3  UNL     1      23.295   4.458  51.461  1.00  0.00    -0.075 NA
HETATM    8  C8  UNL     1      23.435   4.365  52.802  1.00  0.00     0.139 A 
HETATM    9  C9  UNL     1      24.299   3.410  53.294  1.00  0.00     0.054 A 
HETATM   10  C10 UNL     1      25.019   2.554  52.479  1.00  0.00     0.102 A 
HETATM   11  N5  UNL     1      24.820   2.714  51.170  1.00  0.00    -0.061 NA
BRANCH  10  12
HETATM   12  C11 UNL     1      25.940   1.559  53.019  1.00  0.00     0.067 A 
HETATM   13  N4  UNL     1      26.562   1.528  54.131  1.00  0.00    -0.263 NA
HETATM   14  C12 UNL     1      27.367   0.363  54.257  1.00  0.00     0.113 A 
HETATM   15  C13 UNL     1      27.258  -0.399  53.163  1.00  0.00    -0.001 A 
HETATM   16  C14 UNL     1      26.323   0.319  52.278  1.00  0.00     0.090 A 
ENDBRANCH  10  12
ENDBRANCH   4   6
ENDBRANCH   3   4
ENDBRANCH   2   3
BRANCH   1  17
HETATM   17  C3  UNL     1      20.273   3.534  49.023  1.00  0.00     0.017 C 
HETATM   18  C2  UNL     1      20.184   3.315  50.342  1.00  0.00     0.091 C 
BRANCH  18  19
HETATM   19  N1  UNL     1      20.853   2.170  50.851  1.00  0.00    -0.333 N 
HETATM   20  C1  UNL     1      20.702   1.982  52.243  1.00  0.00     0.255 C 
HETATM   21  O1  UNL     1      19.995   2.861  52.826  1.00  0.00    -0.267 OA
HETATM   22  H1  UNL     1      21.428   1.472  50.329  1.00  0.00     0.168 HD
BRANCH  20  23
HETATM   23  C15 UNL     1      21.288   0.885  53.009  1.00  0.00     0.033 C 
HETATM   24  C16 UNL     1      20.836   0.502  54.190  1.00  0.00     0.018 C 
HETATM   25  C17 UNL     1      21.491  -0.621  54.895  1.00  0.00     0.014 C 
HETATM   26  C18 UNL     1      22.704  -0.885  54.435  1.00  0.00    -0.014 C 
HETATM   27  C19 UNL     1      22.931  -0.815  53.171  1.00  0.00    -0.013 C 
HETATM   28  C20 UNL     1      22.428   0.170  52.450  1.00  0.00     0.030 C 
ENDBRANCH  20  23
ENDBRANCH  18  19
ENDBRANCH   1  17
TORSDOF 7
ENDMDL
MODEL 5
REMARK VINA RESULT:      -7.6      2.082      5.838
REMARK  7 active torsions:
REMARK  status: ('A' for Active; 'I' for Inactive)
REMARK       I    between atoms: C1_2  and  N1_3 
REMARK    1  A    between atoms: C1_2  and  C15_21 
REMARK    2  A    between atoms: N1_3  and  C2_4 
REMARK    3  A    between atoms: C3_5  and  C4_6 
REMARK    4  A    between atoms: C5_7  and  C6_8 
REMARK    5  A    between atoms: C6_8  and  N2_9 
REMARK    6  A    between atoms: N2_9  and  C7_10 
REMARK    7  A    between atoms: C10_14  and  C11_15 
ROOT
HETATM    1  C4  UNL     1      24.804   3.218  50.115  1.00  0.00    -0.001 C 
HETATM    2  C5  UNL     1      24.069   3.224  49.009  1.00  0.00    -0.007 C 
ENDROOT
BRANCH   2   3
HETATM    3  C6  UNL     1      22.619   3.541  48.998  1.00  0.00     0.165 C 
BRANCH   3   4
HETATM    4  N2  UNL     1      21.871   2.291  49.028  1.00  0.00    -0.219 N 
HETATM    5  H8  UNL     1      21.876   1.668  48.163  1.00  0.00     0.178 HD
BRANCH   4   6
HETATM    6  C7  UNL     1      21.057   1.555  49.927  1.00  0.00     0.723 A 
HETATM    7  N3  UNL     1      19.724   1.352  49.877  1.00  0.00    -0.075 NA
HETATM    8  C8  UNL     1      19.092   0.633  50.832  1.00  0.00     0.139 A 
HETATM    9  C9  UNL     1      19.853   0.116  51.857  1.00  0.00     0.054 A 
HETATM   10  C10 UNL     1      21.222   0.302  51.948  1.00  0.00     0.102 A 
HETATM   11  N5  UNL     1      21.764   1.022  50.965  1.00  0.00    -0.061 NA
BRANCH  10  12
HETATM   12  C11 UNL     1      22.009  -0.241  53.051  1.00  0.00     0.067 A 
HETATM   13  N4  UNL     1      23.272  -0.313  53.206  1.00  0.00    -0.263 NA
HETATM   14  C12 UNL     1      23.621  -0.924  54.442  1.00  0.00     0.113 A 
HETATM   15  C13 UNL     1      22.520  -1.267  55.119  1.00  0.00    -0.001 A 
HETATM   16  C14 UNL     1      21.391  -0.848  54.268  1.00  0.00     0.090 A 
ENDBRANCH  10  12
ENDBRANCH   4   6
ENDBRANCH   3   4
ENDBRANCH   2   3
BRANCH   1  17
HETATM   17  C3  UNL     1      24.326   3.510  51.455  1.00  0.00     0.017 C 
HETATM   18  C2  UNL     1      24.719   2.798  52.519  1.00  0.00     0.091 C 
BRANCH  18  19
HETATM   19  N1  UNL     1      25.632   1.736  52.281  1.00  0.00    -0.333 N 
HETATM   20  C1  UNL     1      26.420   1.388  53.401  1.00  0.00     0.255 C 
HETATM   21  O1  UNL     1      26.194   2.075  54.446  1.00  0.00    -0.267 OA
HETATM   22  H1  UNL     1      25.784   1.199  51.399  1.00  0.00     0.168 HD
BRANCH  20  23
HETATM   23  C15 UNL     1      27.431   0.334  53.420  1.00  0.00     0.033 C 
HETATM   24  C16 UNL     1      28.678   0.531  53.810  1.00  0.00     0.018 C 
HETATM   25  C17 UNL     1      29.636  -0.596  53.798  1.00  0.00     0.014 C 
HETATM   26  C18 UNL     1      29.238  -1.605  53.038  1.00  0.00    -0.014 C 
HETATM   27  C19 UNL     1      27.995  -1.932  53.019  1.00  0.00    -0.013 C 
HETATM   28  C20 UNL     1      27.055  -1.006  52.989  1.00  0.00     0.030 C 
ENDBRANCH  20  23
ENDBRANCH  18  19
ENDBRANCH   1  17
TORSDOF 7
ENDMDL
MODEL 6
REMARK VINA RESULT:      -7.4      4.960      8.470
REMARK  7 active torsions:
REMARK  status: ('A' for Active; 'I' for Inactive)
REMARK       I    between atoms: C1_2  and  N1_3 
REMARK    1  A    between atoms: C1_2  and  C15_21 
REMARK    2  A    between atoms: N1_3  and  C2_4 
REMARK    3  A    between atoms: C3_5  and  C4_6 
REMARK    4  A    between atoms: C5_7  and  C6_8 
REMARK    5  A    between atoms: C6_8  and  N2_9 
REMARK    6  A    between atoms: N2_9  and  C7_10 
REMARK    7  A    between atoms: C10_14  and  C11_15 
ROOT
HETATM    1  C4  UNL     1      26.856   5.461  48.949  1.00  0.00    -0.001 C 
HETATM    2  C5  UNL     1      25.991   4.660  49.559  1.00  0.00    -0.007 C 
ENDROOT
BRANCH   2   3
HETATM    3  C6  UNL     1      26.298   3.252  49.916  1.00  0.00     0.165 C 
BRANCH   3   4
HETATM    4  N2  UNL     1      26.823   3.222  51.274  1.00  0.00    -0.219 N 
HETATM    5  H8  UNL     1      27.000   4.145  51.777  1.00  0.00     0.178 HD
BRANCH   4   6
HETATM    6  C7  UNL     1      27.209   2.266  52.249  1.00  0.00     0.723 A 
HETATM    7  N3  UNL     1      28.448   1.981  52.698  1.00  0.00    -0.075 NA
HETATM    8  C8  UNL     1      28.649   1.019  53.627  1.00  0.00     0.139 A 
HETATM    9  C9  UNL     1      27.548   0.340  54.098  1.00  0.00     0.054 A 
HETATM   10  C10 UNL     1      26.259   0.599  53.664  1.00  0.00     0.102 A 
HETATM   11  N5  UNL     1      26.151   1.562  52.748  1.00  0.00    -0.061 NA
BRANCH  10  12
HETATM   12  C11 UNL     1      25.106  -0.142  54.164  1.00  0.00     0.067 A 
HETATM   13  N4  UNL     1      25.001  -0.930  55.161  1.00  0.00    -0.263 NA
HETATM   14  C12 UNL     1      23.683  -1.445  55.294  1.00  0.00     0.113 A 
HETATM   15  C13 UNL     1      22.894  -0.963  54.328  1.00  0.00    -0.001 A 
HETATM   16  C14 UNL     1      23.758  -0.080  53.522  1.00  0.00     0.090 A 
ENDBRANCH  10  12
ENDBRANCH   4   6
ENDBRANCH   3   4
ENDBRANCH   2   3
BRANCH   1  17
HETATM   17  C3  UNL     1      28.204   5.105  48.542  1.00  0.00     0.017 C 
HETATM   18  C2  UNL     1      29.112   6.030  48.206  1.00  0.00     0.091 C 
BRANCH  18  19
HETATM   19  N1  UNL     1      28.699   7.388  48.266  1.00  0.00    -0.333 N 
HETATM   20  C1  UNL     1      29.719   8.287  48.651  1.00  0.00     0.255 C 
HETATM   21  O1  UNL     1      30.845   7.747  48.885  1.00  0.00    -0.267 OA
HETATM   22  H1  UNL     1      27.755   7.787  48.064  1.00  0.00     0.168 HD
BRANCH  20  23
HETATM   23  C15 UNL     1      29.554   9.732  48.788  1.00  0.00     0.033 C 
HETATM   24  C16 UNL     1      28.394  10.348  48.639  1.00  0.00     0.018 C 
HETATM   25  C17 UNL     1      28.320  11.816  48.798  1.00  0.00     0.014 C 
HETATM   26  C18 UNL     1      29.501  12.408  48.705  1.00  0.00    -0.014 C 
HETATM   27  C19 UNL     1      30.534  11.845  49.223  1.00  0.00    -0.013 C 
HETATM   28  C20 UNL     1      30.721  10.544  49.107  1.00  0.00     0.030 C 
ENDBRANCH  20  23
ENDBRANCH  18  19
ENDBRANCH   1  17
TORSDOF 7
ENDMDL
MODEL 7
REMARK VINA RESULT:      -7.3      4.970      8.036
REMARK  7 active torsions:
REMARK  status: ('A' for Active; 'I' for Inactive)
REMARK       I    between atoms: C1_2  and  N1_3 
REMARK    1  A    between atoms: C1_2  and  C15_21 
REMARK    2  A    between atoms: N1_3  and  C2_4 
REMARK    3  A    between atoms: C3_5  and  C4_6 
REMARK    4  A    between atoms: C5_7  and  C6_8 
REMARK    5  A    between atoms: C6_8  and  N2_9 
REMARK    6  A    between atoms: N2_9  and  C7_10 
REMARK    7  A    between atoms: C10_14  and  C11_15 
ROOT
HETATM    1  C4  UNL     1      27.753   4.682  48.582  1.00  0.00    -0.001 C 
HETATM    2  C5  UNL     1      26.799   4.022  49.229  1.00  0.00    -0.007 C 
ENDROOT
BRANCH   2   3
HETATM    3  C6  UNL     1      25.770   4.690  50.064  1.00  0.00     0.165 C 
BRANCH   3   4
HETATM    4  N2  UNL     1      24.744   3.714  50.405  1.00  0.00    -0.219 N 
HETATM    5  H8  UNL     1      23.831   3.715  49.855  1.00  0.00     0.178 HD
BRANCH   4   6
HETATM    6  C7  UNL     1      24.545   2.651  51.322  1.00  0.00     0.723 A 
HETATM    7  N3  UNL     1      23.386   2.064  51.687  1.00  0.00    -0.075 NA
HETATM    8  C8  UNL     1      23.366   1.064  52.596  1.00  0.00     0.139 A 
HETATM    9  C9  UNL     1      24.568   0.664  53.139  1.00  0.00     0.054 A 
HETATM   10  C10 UNL     1      25.779   1.240  52.795  1.00  0.00     0.102 A 
HETATM   11  N5  UNL     1      25.707   2.218  51.892  1.00  0.00    -0.061 NA
BRANCH  10  12
HETATM   12  C11 UNL     1      27.040   0.813  53.393  1.00  0.00     0.067 A 
HETATM   13  N4  UNL     1      27.796   1.402  54.233  1.00  0.00    -0.263 NA
HETATM   14  C12 UNL     1      28.942   0.623  54.553  1.00  0.00     0.113 A 
HETATM   15  C13 UNL     1      28.923  -0.532  53.881  1.00  0.00    -0.001 A 
HETATM   16  C14 UNL     1      27.686  -0.497  53.078  1.00  0.00     0.090 A 
ENDBRANCH  10  12
ENDBRANCH   4   6
ENDBRANCH   3   4
ENDBRANCH   2   3
BRANCH   1  17
HETATM   17  C3  UNL     1      27.941   6.122  48.585  1.00  0.00     0.017 C 
HETATM   18  C2  UNL     1      29.084   6.689  48.175  1.00  0.00     0.091 C 
BRANCH  18  19
HETATM   19  N1  UNL     1      30.113   5.816  47.733  1.00  0.00    -0.333 N 
HETATM   20  C1  UNL     1      31.314   5.917  48.469  1.00  0.00     0.255 C 
HETATM   21  O1  UNL     1      31.293   6.770  49.410  1.00  0.00    -0.267 OA
HETATM   22  H1  UNL     1      30.084   5.127  46.948  1.00  0.00     0.168 HD
BRANCH  20  23
HETATM   23  C15 UNL     1      32.520   5.132  48.217  1.00  0.00     0.033 C 
HETATM   24  C16 UNL     1      33.738   5.563  48.496  1.00  0.00     0.018 C 
HETATM   25  C17 UNL     1      34.904   4.700  48.208  1.00  0.00     0.014 C 
HETATM   26  C18 UNL     1      34.630   3.728  47.351  1.00  0.00    -0.014 C 
HETATM   27  C19 UNL     1      33.496   3.126  47.417  1.00  0.00    -0.013 C 
HETATM   28  C20 UNL     1      32.384   3.805  47.631  1.00  0.00     0.030 C 
ENDBRANCH  20  23
ENDBRANCH  18  19
ENDBRANCH   1  17
TORSDOF 7
ENDMDL
MODEL 8
REMARK VINA RESULT:      -7.2      5.509      8.380
REMARK  7 active torsions:
REMARK  status: ('A' for Active; 'I' for Inactive)
REMARK       I    between atoms: C1_2  and  N1_3 
REMARK    1  A    between atoms: C1_2  and  C15_21 
REMARK    2  A    between atoms: N1_3  and  C2_4 
REMARK    3  A    between atoms: C3_5  and  C4_6 
REMARK    4  A    between atoms: C5_7  and  C6_8 
REMARK    5  A    between atoms: C6_8  and  N2_9 
REMARK    6  A    between atoms: N2_9  and  C7_10 
REMARK    7  A    between atoms: C10_14  and  C11_15 
ROOT
HETATM    1  C4  UNL     1      26.713   4.363  49.062  1.00  0.00    -0.001 C 
HETATM    2  C5  UNL     1      27.328   5.476  48.680  1.00  0.00    -0.007 C 
ENDROOT
BRANCH   2   3
HETATM    3  C6  UNL     1      26.728   6.826  48.820  1.00  0.00     0.165 C 
BRANCH   3   4
HETATM    4  N2  UNL     1      27.730   7.723  49.380  1.00  0.00    -0.219 N 
HETATM    5  H8  UNL     1      28.225   7.443  50.281  1.00  0.00     0.178 HD
BRANCH   4   6
HETATM    6  C7  UNL     1      28.326   8.976  49.083  1.00  0.00     0.723 A 
HETATM    7  N3  UNL     1      27.767  10.202  49.128  1.00  0.00    -0.075 NA
HETATM    8  C8  UNL     1      28.474  11.305  48.794  1.00  0.00     0.139 A 
HETATM    9  C9  UNL     1      29.785  11.134  48.405  1.00  0.00     0.054 A 
HETATM   10  C10 UNL     1      30.398   9.894  48.343  1.00  0.00     0.102 A 
HETATM   11  N5  UNL     1      29.628   8.862  48.690  1.00  0.00    -0.061 NA
BRANCH  10  12
HETATM   12  C11 UNL     1      31.784   9.733  47.915  1.00  0.00     0.067 A 
HETATM   13  N4  UNL     1      32.599   8.771  48.104  1.00  0.00    -0.263 NA
HETATM   14  C12 UNL     1      33.865   9.024  47.508  1.00  0.00     0.113 A 
HETATM   15  C13 UNL     1      33.865  10.216  46.903  1.00  0.00    -0.001 A 
HETATM   16  C14 UNL     1      32.514  10.765  47.120  1.00  0.00     0.090 A 
ENDBRANCH  10  12
ENDBRANCH   4   6
ENDBRANCH   3   4
ENDBRANCH   2   3
BRANCH   1  17
HETATM   17  C3  UNL     1      25.392   4.284  49.661  1.00  0.00     0.017 C 
HETATM   18  C2  UNL     1      25.188   3.723  50.860  1.00  0.00     0.091 C 
BRANCH  18  19
HETATM   19  N1  UNL     1      26.329   3.203  51.528  1.00  0.00    -0.333 N 
HETATM   20  C1  UNL     1      26.203   1.851  51.921  1.00  0.00     0.255 C 
HETATM   21  O1  UNL     1      25.095   1.309  51.619  1.00  0.00    -0.267 OA
HETATM   22  H1  UNL     1      27.223   3.690  51.757  1.00  0.00     0.168 HD
BRANCH  20  23
HETATM   23  C15 UNL     1      27.229   1.084  52.623  1.00  0.00     0.033 C 
HETATM   24  C16 UNL     1      28.200   1.642  53.325  1.00  0.00     0.018 C 
HETATM   25  C17 UNL     1      29.196   0.786  54.005  1.00  0.00     0.014 C 
HETATM   26  C18 UNL     1      29.230  -0.449  53.528  1.00  0.00    -0.014 C 
HETATM   27  C19 UNL     1      28.133  -1.030  53.196  1.00  0.00    -0.013 C 
HETATM   28  C20 UNL     1      27.189  -0.371  52.551  1.00  0.00     0.030 C 
ENDBRANCH  20  23
ENDBRANCH  18  19
ENDBRANCH   1  17
TORSDOF 7
ENDMDL
MODEL 9
REMARK VINA RESULT:      -7.1      1.835      3.105
REMARK  7 active torsions:
REMARK  status: ('A' for Active; 'I' for Inactive)
REMARK       I    between atoms: C1_2  and  N1_3 
REMARK    1  A    between atoms: C1_2  and  C15_21 
REMARK    2  A    between atoms: N1_3  and  C2_4 
REMARK    3  A    between atoms: C3_5  and  C4_6 
REMARK    4  A    between atoms: C5_7  and  C6_8 
REMARK    5  A    between atoms: C6_8  and  N2_9 
REMARK    6  A    between atoms: N2_9  and  C7_10 
REMARK    7  A    between atoms: C10_14  and  C11_15 
ROOT
HETATM    1  C4  UNL     1      23.469   3.874  50.185  1.00  0.00    -0.001 C 
HETATM    2  C5  UNL     1      24.624   4.141  50.782  1.00  0.00    -0.007 C 
ENDROOT
BRANCH   2   3
HETATM    3  C6  UNL     1      25.944   3.886  50.152  1.00  0.00     0.165 C 
BRANCH   3   4
HETATM    4  N2  UNL     1      26.461   2.620  50.656  1.00  0.00    -0.219 N 
HETATM    5  H8  UNL     1      26.607   1.816  49.971  1.00  0.00     0.178 HD
BRANCH   4   6
HETATM    6  C7  UNL     1      26.883   2.053  51.885  1.00  0.00     0.723 A 
HETATM    7  N3  UNL     1      28.084   2.160  52.490  1.00  0.00    -0.075 NA
HETATM    8  C8  UNL     1      28.332   1.537  53.664  1.00  0.00     0.139 A 
HETATM    9  C9  UNL     1      27.319   0.787  54.221  1.00  0.00     0.054 A 
HETATM   10  C10 UNL     1      26.073   0.649  53.634  1.00  0.00     0.102 A 
HETATM   11  N5  UNL     1      25.914   1.297  52.480  1.00  0.00    -0.061 NA
BRANCH  10  12
HETATM   12  C11 UNL     1      25.017  -0.162  54.233  1.00  0.00     0.067 A 
HETATM   13  N4  UNL     1      25.051  -0.951  55.233  1.00  0.00    -0.263 NA
HETATM   14  C12 UNL     1      23.784  -1.547  55.480  1.00  0.00     0.113 A 
HETATM   15  C13 UNL     1      22.885  -1.119  54.589  1.00  0.00    -0.001 A 
HETATM   16  C14 UNL     1      23.617  -0.186  53.712  1.00  0.00     0.090 A 
ENDBRANCH  10  12
ENDBRANCH   4   6
ENDBRANCH   3   4
ENDBRANCH   2   3
BRANCH   1  17
HETATM   17  C3  UNL     1      23.310   3.304  48.859  1.00  0.00     0.017 C 
HETATM   18  C2  UNL     1      22.652   2.155  48.654  1.00  0.00     0.091 C 
BRANCH  18  19
HETATM   19  N1  UNL     1      22.111   1.511  49.799  1.00  0.00    -0.333 N 
HETATM   20  C1  UNL     1      20.706   1.362  49.771  1.00  0.00     0.255 C 
HETATM   21  O1  UNL     1      20.143   1.826  48.731  1.00  0.00    -0.267 OA
HETATM   22  H1  UNL     1      22.618   1.145  50.636  1.00  0.00     0.168 HD
BRANCH  20  23
HETATM   23  C15 UNL     1      19.908   0.737  50.822  1.00  0.00     0.033 C 
HETATM   24  C16 UNL     1      20.403   0.383  51.996  1.00  0.00     0.018 C 
HETATM   25  C17 UNL     1      19.520  -0.244  53.003  1.00  0.00     0.014 C 
HETATM   26  C18 UNL     1      18.404  -0.730  52.482  1.00  0.00    -0.014 C 
HETATM   27  C19 UNL     1      17.806  -0.081  51.547  1.00  0.00    -0.013 C 
HETATM   28  C20 UNL     1      18.495   0.486  50.574  1.00  0.00     0.030 C 
ENDBRANCH  20  23
ENDBRANCH  18  19
ENDBRANCH   1  17
TORSDOF 7
ENDMDL
