MODEL 1
REMARK VINA RESULT:      -9.1      0.000      0.000
REMARK  5 active torsions:
REMARK  status: ('A' for Active; 'I' for Inactive)
REMARK    1  A    between atoms: C3_3  and  N1_4 
REMARK    2  A    between atoms: N1_4  and  C4_5 
REMARK    3  A    between atoms: C9_12  and  N4_13 
REMARK    4  A    between atoms: N4_13  and  C10_14 
REMARK    5  A    between atoms: C15_19  and  O1_20 
ROOT
HETATM    1  C4  UNL     1      21.635   0.462  51.647  1.00  0.00     0.142 A 
HETATM    2  N2  UNL     1      20.326   0.571  51.395  1.00  0.00    -0.224 NA
HETATM    3  C5  UNL     1      19.445   0.086  52.320  1.00  0.00     0.236 A 
HETATM    4  N3  UNL     1      19.861  -0.493  53.471  1.00  0.00    -0.241 NA
HETATM    5  C6  UNL     1      21.162  -0.603  53.728  1.00  0.00     0.072 A 
HETATM    6  C7  UNL     1      21.624  -1.194  54.904  1.00  0.00     0.035 A 
HETATM    7  C8  UNL     1      22.977  -1.258  55.073  1.00  0.00     0.031 A 
HETATM    8  C9  UNL     1      23.936  -0.799  54.198  1.00  0.00     0.029 A 
HETATM    9  C16 UNL     1      23.424  -0.231  53.066  1.00  0.00     0.046 A 
HETATM   10  C17 UNL     1      22.076  -0.124  52.815  1.00  0.00     0.041 A 
ENDROOT
BRANCH   1  11
HETATM   11  N1  UNL     1      22.505   0.974  50.668  1.00  0.00    -0.340 N 
HETATM   12  H4  UNL     1      23.082   0.575  49.913  1.00  0.00     0.167 HD
BRANCH  11  13
HETATM   13  C3  UNL     1      22.731   2.379  50.597  1.00  0.00     0.041 A 
HETATM   14  C2  UNL     1      22.656   3.016  49.445  1.00  0.00    -0.032 A 
HETATM   15  C1  UNL     1      22.325   2.203  48.221  1.00  0.00     0.051 C 
HETATM   16  P1  UNL     1      22.915   4.803  49.148  1.00  0.00    -0.092 P 
HETATM   17  C20 UNL     1      23.288   5.545  50.807  1.00  0.00     0.087 A 
HETATM   18  H20 UNL     1      24.090   4.914  48.307  1.00  0.00     0.062 HD
HETATM   19  C19 UNL     1      23.268   4.466  51.801  1.00  0.00     0.018 A 
HETATM   20  C18 UNL     1      23.047   3.173  51.762  1.00  0.00     0.050 A 
HETATM   21 CL1  UNL     1      23.636   5.181  53.380  1.00  0.00    -0.089 Cl
ENDBRANCH  11  13
ENDBRANCH   1  11
BRANCH   8  22
HETATM   22  N4  UNL     1      25.327  -0.885  54.403  1.00  0.00    -0.379 N 
HETATM   23  H8  UNL     1      25.627  -1.566  55.162  1.00  0.00     0.160 HD
BRANCH  22  24
HETATM   24  C10 UNL     1      26.398  -0.174  53.720  1.00  0.00     0.137 A 
HETATM   25  C11 UNL     1      27.252  -1.181  53.003  1.00  0.00     0.001 A 
HETATM   26  C12 UNL     1      28.530  -1.482  53.053  1.00  0.00    -0.002 A 
HETATM   27  C13 UNL     1      29.318  -0.698  53.982  1.00  0.00    -0.002 A 
HETATM   28  C14 UNL     1      28.681   0.226  54.669  1.00  0.00     0.007 A 
HETATM   29  C15 UNL     1      27.243   0.644  54.675  1.00  0.00     0.167 A 
BRANCH  29  30
HETATM   30  O1  UNL     1      27.262   1.986  54.235  1.00  0.00    -0.389 OA
HETATM   31  H15 UNL     1      27.760   2.061  53.372  1.00  0.00     0.210 HD
ENDBRANCH  29  30
ENDBRANCH  22  24
ENDBRANCH   8  22
TORSDOF 5
ENDMDL
MODEL 2
REMARK VINA RESULT:      -8.9      2.631      5.292
REMARK  5 active torsions:
REMARK  status: ('A' for Active; 'I' for Inactive)
REMARK    1  A    between atoms: C3_3  and  N1_4 
REMARK    2  A    between atoms: N1_4  and  C4_5 
REMARK    3  A    between atoms: C9_12  and  N4_13 
REMARK    4  A    between atoms: N4_13  and  C10_14 
REMARK    5  A    between atoms: C15_19  and  O1_20 
ROOT
HETATM    1  C4  UNL     1      26.660   1.962  52.078  1.00  0.00     0.142 A 
HETATM    2  N2  UNL     1      27.795   2.594  52.398  1.00  0.00    -0.224 NA
HETATM    3  C5  UNL     1      28.377   2.311  53.602  1.00  0.00     0.236 A 
HETATM    4  N3  UNL     1      27.839   1.418  54.466  1.00  0.00    -0.241 NA
HETATM    5  C6  UNL     1      26.710   0.785  54.152  1.00  0.00     0.072 A 
HETATM    6  C7  UNL     1      26.130  -0.140  55.019  1.00  0.00     0.035 A 
HETATM    7  C8  UNL     1      24.973  -0.734  54.604  1.00  0.00     0.031 A 
HETATM    8  C9  UNL     1      24.317  -0.511  53.413  1.00  0.00     0.029 A 
HETATM    9  C16 UNL     1      24.933   0.404  52.608  1.00  0.00     0.046 A 
HETATM   10  C17 UNL     1      26.099   1.049  52.945  1.00  0.00     0.041 A 
ENDROOT
BRANCH   1  11
HETATM   11  N1  UNL     1      26.097   2.284  50.830  1.00  0.00    -0.340 N 
HETATM   12  H4  UNL     1      26.011   1.815  49.917  1.00  0.00     0.167 HD
BRANCH  11  13
HETATM   13  C3  UNL     1      25.457   3.545  50.654  1.00  0.00     0.041 A 
HETATM   14  C2  UNL     1      25.946   4.437  49.817  1.00  0.00    -0.032 A 
HETATM   15  C1  UNL     1      27.197   4.072  49.062  1.00  0.00     0.051 C 
HETATM   16  P1  UNL     1      25.277   6.103  49.458  1.00  0.00    -0.092 P 
HETATM   17  C20 UNL     1      23.753   6.274  50.501  1.00  0.00     0.087 A 
HETATM   18  H20 UNL     1      26.271   7.053  49.915  1.00  0.00     0.062 HD
HETATM   19  C19 UNL     1      23.592   5.038  51.275  1.00  0.00     0.018 A 
HETATM   20  C18 UNL     1      24.255   3.909  51.369  1.00  0.00     0.050 A 
HETATM   21 CL1  UNL     1      22.141   5.215  52.277  1.00  0.00    -0.089 Cl
ENDBRANCH  11  13
ENDBRANCH   1  11
BRANCH   8  22
HETATM   22  N4  UNL     1      23.120  -1.140  53.018  1.00  0.00    -0.379 N 
HETATM   23  H8  UNL     1      23.226  -2.151  52.709  1.00  0.00     0.160 HD
BRANCH  22  24
HETATM   24  C10 UNL     1      21.771  -0.594  52.977  1.00  0.00     0.137 A 
HETATM   25  C11 UNL     1      21.465  -0.198  51.560  1.00  0.00     0.001 A 
HETATM   26  C12 UNL     1      21.109   0.933  50.994  1.00  0.00    -0.002 A 
HETATM   27  C13 UNL     1      20.968   2.061  51.894  1.00  0.00    -0.002 A 
HETATM   28  C14 UNL     1      21.203   1.837  53.168  1.00  0.00     0.007 A 
HETATM   29  C15 UNL     1      21.604   0.594  53.901  1.00  0.00     0.167 A 
BRANCH  29  30
HETATM   30  O1  UNL     1      20.529   0.341  54.782  1.00  0.00    -0.389 OA
HETATM   31  H15 UNL     1      19.789  -0.128  54.301  1.00  0.00     0.210 HD
ENDBRANCH  29  30
ENDBRANCH  22  24
ENDBRANCH   8  22
TORSDOF 5
ENDMDL
MODEL 3
REMARK VINA RESULT:      -8.8      2.434      3.351
REMARK  5 active torsions:
REMARK  status: ('A' for Active; 'I' for Inactive)
REMARK    1  A    between atoms: C3_3  and  N1_4 
REMARK    2  A    between atoms: N1_4  and  C4_5 
REMARK    3  A    between atoms: C9_12  and  N4_13 
REMARK    4  A    between atoms: N4_13  and  C10_14 
REMARK    5  A    between atoms: C15_19  and  O1_20 
ROOT
HETATM    1  C4  UNL     1      22.272   4.277  51.903  1.00  0.00     0.142 A 
HETATM    2  N2  UNL     1      21.034   4.378  51.405  1.00  0.00    -0.224 NA
HETATM    3  C5  UNL     1      20.282   3.242  51.303  1.00  0.00     0.236 A 
HETATM    4  N3  UNL     1      20.754   2.032  51.690  1.00  0.00    -0.241 NA
HETATM    5  C6  UNL     1      21.984   1.927  52.187  1.00  0.00     0.072 A 
HETATM    6  C7  UNL     1      22.500   0.697  52.594  1.00  0.00     0.035 A 
HETATM    7  C8  UNL     1      23.772   0.695  53.090  1.00  0.00     0.031 A 
HETATM    8  C9  UNL     1      24.601   1.786  53.229  1.00  0.00     0.029 A 
HETATM    9  C16 UNL     1      24.041   2.960  52.813  1.00  0.00     0.046 A 
HETATM   10  C17 UNL     1      22.768   3.055  52.303  1.00  0.00     0.041 A 
ENDROOT
BRANCH   1  11
HETATM   11  N1  UNL     1      23.010   5.472  51.989  1.00  0.00    -0.340 N 
HETATM   12  H4  UNL     1      23.223   6.154  52.731  1.00  0.00     0.167 HD
BRANCH  11  13
HETATM   13  C3  UNL     1      23.673   5.971  50.831  1.00  0.00     0.041 A 
HETATM   14  C2  UNL     1      23.205   7.020  50.187  1.00  0.00    -0.032 A 
HETATM   15  C1  UNL     1      21.951   7.662  50.719  1.00  0.00     0.051 C 
HETATM   16  P1  UNL     1      23.906   7.803  48.688  1.00  0.00    -0.092 P 
HETATM   17  C20 UNL     1      25.428   6.829  48.270  1.00  0.00     0.087 A 
HETATM   18  H20 UNL     1      22.927   7.624  47.634  1.00  0.00     0.062 HD
HETATM   19  C19 UNL     1      25.562   5.752  49.258  1.00  0.00     0.018 A 
HETATM   20  C18 UNL     1      24.878   5.367  50.310  1.00  0.00     0.050 A 
HETATM   21 CL1  UNL     1      27.012   4.820  48.845  1.00  0.00    -0.089 Cl
ENDBRANCH  11  13
ENDBRANCH   1  11
BRANCH   8  22
HETATM   22  N4  UNL     1      25.912   1.747  53.741  1.00  0.00    -0.379 N 
HETATM   23  H8  UNL     1      25.987   1.885  54.793  1.00  0.00     0.160 HD
BRANCH  22  24
HETATM   24  C10 UNL     1      27.167   1.546  53.030  1.00  0.00     0.137 A 
HETATM   25  C11 UNL     1      27.381   0.068  52.860  1.00  0.00     0.001 A 
HETATM   26  C12 UNL     1      28.343  -0.753  53.214  1.00  0.00    -0.002 A 
HETATM   27  C13 UNL     1      29.453  -0.144  53.919  1.00  0.00    -0.002 A 
HETATM   28  C14 UNL     1      29.385   1.154  54.126  1.00  0.00     0.007 A 
HETATM   29  C15 UNL     1      28.343   2.165  53.756  1.00  0.00     0.167 A 
BRANCH  29  30
HETATM   30  O1  UNL     1      29.006   3.052  52.880  1.00  0.00    -0.389 OA
HETATM   31  H15 UNL     1      29.954   2.766  52.748  1.00  0.00     0.210 HD
ENDBRANCH  29  30
ENDBRANCH  22  24
ENDBRANCH   8  22
TORSDOF 5
ENDMDL
MODEL 4
REMARK VINA RESULT:      -8.8      2.031      2.741
REMARK  5 active torsions:
REMARK  status: ('A' for Active; 'I' for Inactive)
REMARK    1  A    between atoms: C3_3  and  N1_4 
REMARK    2  A    between atoms: N1_4  and  C4_5 
REMARK    3  A    between atoms: C9_12  and  N4_13 
REMARK    4  A    between atoms: N4_13  and  C10_14 
REMARK    5  A    between atoms: C15_19  and  O1_20 
ROOT
HETATM    1  C4  UNL     1      22.826   2.271  49.737  1.00  0.00     0.142 A 
HETATM    2  N2  UNL     1      21.662   2.059  49.113  1.00  0.00    -0.224 NA
HETATM    3  C5  UNL     1      20.754   1.224  49.701  1.00  0.00     0.236 A 
HETATM    4  N3  UNL     1      21.002   0.614  50.885  1.00  0.00    -0.241 NA
HETATM    5  C6  UNL     1      22.159   0.822  51.510  1.00  0.00     0.072 A 
HETATM    6  C7  UNL     1      22.446   0.210  52.730  1.00  0.00     0.035 A 
HETATM    7  C8  UNL     1      23.660   0.488  53.289  1.00  0.00     0.031 A 
HETATM    8  C9  UNL     1      24.633   1.312  52.771  1.00  0.00     0.029 A 
HETATM    9  C16 UNL     1      24.295   1.882  51.577  1.00  0.00     0.046 A 
HETATM   10  C17 UNL     1      23.095   1.659  50.943  1.00  0.00     0.041 A 
ENDROOT
BRANCH   1  11
HETATM   11  N1  UNL     1      23.730   3.137  49.095  1.00  0.00    -0.340 N 
HETATM   12  H4  UNL     1      24.427   3.049  48.342  1.00  0.00     0.167 HD
BRANCH  11  13
HETATM   13  C3  UNL     1      23.797   4.503  49.497  1.00  0.00     0.041 A 
HETATM   14  C2  UNL     1      24.960   5.099  49.662  1.00  0.00    -0.032 A 
HETATM   15  C1  UNL     1      26.202   4.285  49.412  1.00  0.00     0.051 C 
HETATM   16  P1  UNL     1      25.254   6.832  50.174  1.00  0.00    -0.092 P 
HETATM   17  C20 UNL     1      23.574   7.587  50.396  1.00  0.00     0.087 A 
HETATM   18  H20 UNL     1      25.919   6.773  51.461  1.00  0.00     0.062 HD
HETATM   19  C19 UNL     1      22.572   6.556  50.106  1.00  0.00     0.018 A 
HETATM   20  C18 UNL     1      22.615   5.297  49.738  1.00  0.00     0.050 A 
HETATM   21 CL1  UNL     1      20.971   7.284  50.331  1.00  0.00    -0.089 Cl
ENDBRANCH  11  13
ENDBRANCH   1  11
BRANCH   8  22
HETATM   22  N4  UNL     1      25.878   1.574  53.374  1.00  0.00    -0.379 N 
HETATM   23  H8  UNL     1      25.825   1.981  54.355  1.00  0.00     0.160 HD
BRANCH  22  24
HETATM   24  C10 UNL     1      27.217   1.363  52.840  1.00  0.00     0.137 A 
HETATM   25  C11 UNL     1      27.449  -0.116  52.718  1.00  0.00     0.001 A 
HETATM   26  C12 UNL     1      28.354  -0.933  53.208  1.00  0.00    -0.002 A 
HETATM   27  C13 UNL     1      29.360  -0.314  54.047  1.00  0.00    -0.002 A 
HETATM   28  C14 UNL     1      29.268   0.986  54.226  1.00  0.00     0.007 A 
HETATM   29  C15 UNL     1      28.286   1.992  53.708  1.00  0.00     0.167 A 
BRANCH  29  30
HETATM   30  O1  UNL     1      29.062   2.868  52.917  1.00  0.00    -0.389 OA
HETATM   31  H15 UNL     1      30.004   2.894  53.249  1.00  0.00     0.210 HD
ENDBRANCH  29  30
ENDBRANCH  22  24
ENDBRANCH   8  22
TORSDOF 5
ENDMDL
MODEL 5
REMARK VINA RESULT:      -8.6      3.143      5.612
REMARK  5 active torsions:
REMARK  status: ('A' for Active; 'I' for Inactive)
REMARK    1  A    between atoms: C3_3  and  N1_4 
REMARK    2  A    between atoms: N1_4  and  C4_5 
REMARK    3  A    between atoms: C9_12  and  N4_13 
REMARK    4  A    between atoms: N4_13  and  C10_14 
REMARK    5  A    between atoms: C15_19  and  O1_20 
ROOT
HETATM    1  C4  UNL     1      26.575   1.909  51.925  1.00  0.00     0.142 A 
HETATM    2  N2  UNL     1      27.716   2.541  52.217  1.00  0.00    -0.224 NA
HETATM    3  C5  UNL     1      28.301   2.298  53.427  1.00  0.00     0.236 A 
HETATM    4  N3  UNL     1      27.760   1.441  54.326  1.00  0.00    -0.241 NA
HETATM    5  C6  UNL     1      26.624   0.808  54.040  1.00  0.00     0.072 A 
HETATM    6  C7  UNL     1      26.040  -0.080  54.943  1.00  0.00     0.035 A 
HETATM    7  C8  UNL     1      24.875  -0.678  54.554  1.00  0.00     0.031 A 
HETATM    8  C9  UNL     1      24.216  -0.493  53.360  1.00  0.00     0.029 A 
HETATM    9  C16 UNL     1      24.836   0.387  52.519  1.00  0.00     0.046 A 
HETATM   10  C17 UNL     1      26.010   1.033  52.827  1.00  0.00     0.041 A 
ENDROOT
BRANCH   1  11
HETATM   11  N1  UNL     1      26.008   2.190  50.668  1.00  0.00    -0.340 N 
HETATM   12  H4  UNL     1      25.550   1.641  49.927  1.00  0.00     0.167 HD
BRANCH  11  13
HETATM   13  C3  UNL     1      26.007   3.530  50.184  1.00  0.00     0.041 A 
HETATM   14  C2  UNL     1      25.006   4.343  50.456  1.00  0.00    -0.032 A 
HETATM   15  C1  UNL     1      23.875   3.800  51.289  1.00  0.00     0.051 C 
HETATM   16  P1  UNL     1      24.818   6.085  49.927  1.00  0.00    -0.092 P 
HETATM   17  C20 UNL     1      26.340   6.484  48.943  1.00  0.00     0.087 A 
HETATM   18  H20 UNL     1      23.665   6.127  49.050  1.00  0.00     0.062 HD
HETATM   19  C19 UNL     1      27.179   5.281  48.899  1.00  0.00     0.018 A 
HETATM   20  C18 UNL     1      27.086   4.066  49.386  1.00  0.00     0.050 A 
HETATM   21 CL1  UNL     1      28.624   5.668  47.949  1.00  0.00    -0.089 Cl
ENDBRANCH  11  13
ENDBRANCH   1  11
BRANCH   8  22
HETATM   22  N4  UNL     1      23.012  -1.124  52.993  1.00  0.00    -0.379 N 
HETATM   23  H8  UNL     1      23.115  -2.129  52.662  1.00  0.00     0.160 HD
BRANCH  22  24
HETATM   24  C10 UNL     1      21.657  -0.590  53.007  1.00  0.00     0.137 A 
HETATM   25  C11 UNL     1      21.308  -0.155  51.612  1.00  0.00     0.001 A 
HETATM   26  C12 UNL     1      20.925   0.989  51.091  1.00  0.00    -0.002 A 
HETATM   27  C13 UNL     1      20.801   2.088  52.027  1.00  0.00    -0.002 A 
HETATM   28  C14 UNL     1      21.076   1.829  53.287  1.00  0.00     0.007 A 
HETATM   29  C15 UNL     1      21.507   0.568  53.971  1.00  0.00     0.167 A 
BRANCH  29  30
HETATM   30  O1  UNL     1      20.460   0.279  54.874  1.00  0.00    -0.389 OA
HETATM   31  H15 UNL     1      20.193  -0.681  54.801  1.00  0.00     0.210 HD
ENDBRANCH  29  30
ENDBRANCH  22  24
ENDBRANCH   8  22
TORSDOF 5
ENDMDL
MODEL 6
REMARK VINA RESULT:      -8.4      1.936      2.555
REMARK  5 active torsions:
REMARK  status: ('A' for Active; 'I' for Inactive)
REMARK    1  A    between atoms: C3_3  and  N1_4 
REMARK    2  A    between atoms: N1_4  and  C4_5 
REMARK    3  A    between atoms: C9_12  and  N4_13 
REMARK    4  A    between atoms: N4_13  and  C10_14 
REMARK    5  A    between atoms: C15_19  and  O1_20 
ROOT
HETATM    1  C4  UNL     1      22.208   0.978  51.624  1.00  0.00     0.142 A 
HETATM    2  N2  UNL     1      21.016   1.185  51.053  1.00  0.00    -0.224 NA
HETATM    3  C5  UNL     1      19.915   0.614  51.626  1.00  0.00     0.236 A 
HETATM    4  N3  UNL     1      20.000  -0.145  52.745  1.00  0.00    -0.241 NA
HETATM    5  C6  UNL     1      21.184  -0.353  53.318  1.00  0.00     0.072 A 
HETATM    6  C7  UNL     1      21.307  -1.130  54.469  1.00  0.00     0.035 A 
HETATM    7  C8  UNL     1      22.564  -1.283  54.979  1.00  0.00     0.031 A 
HETATM    8  C9  UNL     1      23.727  -0.749  54.470  1.00  0.00     0.029 A 
HETATM    9  C16 UNL     1      23.543   0.000  53.344  1.00  0.00     0.046 A 
HETATM   10  C17 UNL     1      22.313   0.208  52.763  1.00  0.00     0.041 A 
ENDROOT
BRANCH   1  11
HETATM   11  N1  UNL     1      23.314   1.583  51.000  1.00  0.00    -0.340 N 
HETATM   12  H4  UNL     1      24.285   1.309  50.795  1.00  0.00     0.167 HD
BRANCH  11  13
HETATM   13  C3  UNL     1      23.189   2.905  50.481  1.00  0.00     0.041 A 
HETATM   14  C2  UNL     1      23.410   3.952  51.249  1.00  0.00    -0.032 A 
HETATM   15  C1  UNL     1      23.796   3.696  52.682  1.00  0.00     0.051 C 
HETATM   16  P1  UNL     1      23.298   5.717  50.775  1.00  0.00    -0.092 P 
HETATM   17  C20 UNL     1      22.827   5.731  48.981  1.00  0.00     0.087 A 
HETATM   18  H20 UNL     1      22.214   6.284  51.552  1.00  0.00     0.062 HD
HETATM   19  C19 UNL     1      22.685   4.340  48.538  1.00  0.00     0.018 A 
HETATM   20  C18 UNL     1      22.822   3.166  49.108  1.00  0.00     0.050 A 
HETATM   21 CL1  UNL     1      22.224   4.363  46.827  1.00  0.00    -0.089 Cl
ENDBRANCH  11  13
ENDBRANCH   1  11
BRANCH   8  22
HETATM   22  N4  UNL     1      25.010  -0.932  55.021  1.00  0.00    -0.379 N 
HETATM   23  H8  UNL     1      25.023  -1.324  56.009  1.00  0.00     0.160 HD
BRANCH  22  24
HETATM   24  C10 UNL     1      26.310  -0.657  54.423  1.00  0.00     0.137 A 
HETATM   25  C11 UNL     1      26.516   0.830  54.405  1.00  0.00     0.001 A 
HETATM   26  C12 UNL     1      26.756   1.698  53.448  1.00  0.00    -0.002 A 
HETATM   27  C13 UNL     1      26.851   1.142  52.114  1.00  0.00    -0.002 A 
HETATM   28  C14 UNL     1      26.694  -0.159  52.000  1.00  0.00     0.007 A 
HETATM   29  C15 UNL     1      26.427  -1.220  53.022  1.00  0.00     0.167 A 
BRANCH  29  30
HETATM   30  O1  UNL     1      27.559  -2.063  52.961  1.00  0.00    -0.389 OA
HETATM   31  H15 UNL     1      28.379  -1.530  52.761  1.00  0.00     0.210 HD
ENDBRANCH  29  30
ENDBRANCH  22  24
ENDBRANCH   8  22
TORSDOF 5
ENDMDL
MODEL 7
REMARK VINA RESULT:      -8.3      3.387      6.542
REMARK  5 active torsions:
REMARK  status: ('A' for Active; 'I' for Inactive)
REMARK    1  A    between atoms: C3_3  and  N1_4 
REMARK    2  A    between atoms: N1_4  and  C4_5 
REMARK    3  A    between atoms: C9_12  and  N4_13 
REMARK    4  A    between atoms: N4_13  and  C10_14 
REMARK    5  A    between atoms: C15_19  and  O1_20 
ROOT
HETATM    1  C4  UNL     1      23.387   0.918  52.056  1.00  0.00     0.142 A 
HETATM    2  N2  UNL     1      24.680   0.969  52.393  1.00  0.00    -0.224 NA
HETATM    3  C5  UNL     1      25.099   0.238  53.468  1.00  0.00     0.236 A 
HETATM    4  N3  UNL     1      24.248  -0.529  54.190  1.00  0.00    -0.241 NA
HETATM    5  C6  UNL     1      22.960  -0.584  53.859  1.00  0.00     0.072 A 
HETATM    6  C7  UNL     1      22.056  -1.363  54.581  1.00  0.00     0.035 A 
HETATM    7  C8  UNL     1      20.757  -1.352  54.160  1.00  0.00     0.031 A 
HETATM    8  C9  UNL     1      20.246  -0.648  53.093  1.00  0.00     0.029 A 
HETATM    9  C16 UNL     1      21.178   0.095  52.426  1.00  0.00     0.046 A 
HETATM   10  C17 UNL     1      22.506   0.142  52.779  1.00  0.00     0.041 A 
ENDROOT
BRANCH   1  11
HETATM   11  N1  UNL     1      23.000   1.687  50.943  1.00  0.00    -0.340 N 
HETATM   12  H4  UNL     1      22.367   1.556  50.141  1.00  0.00     0.167 HD
BRANCH  11  13
HETATM   13  C3  UNL     1      23.549   2.990  50.767  1.00  0.00     0.041 A 
HETATM   14  C2  UNL     1      22.913   4.054  51.213  1.00  0.00    -0.032 A 
HETATM   15  C1  UNL     1      21.595   3.837  51.908  1.00  0.00     0.051 C 
HETATM   16  P1  UNL     1      23.448   5.800  51.081  1.00  0.00    -0.092 P 
HETATM   17  C20 UNL     1      25.083   5.766  50.207  1.00  0.00     0.087 A 
HETATM   18  H20 UNL     1      22.475   6.465  50.237  1.00  0.00     0.062 HD
HETATM   19  C19 UNL     1      25.402   4.368  49.897  1.00  0.00     0.018 A 
HETATM   20  C18 UNL     1      24.814   3.213  50.105  1.00  0.00     0.050 A 
HETATM   21 CL1  UNL     1      26.960   4.346  49.052  1.00  0.00    -0.089 Cl
ENDBRANCH  11  13
ENDBRANCH   1  11
BRANCH   8  22
HETATM   22  N4  UNL     1      18.897  -0.656  52.689  1.00  0.00    -0.379 N 
HETATM   23  H8  UNL     1      18.718  -0.266  51.717  1.00  0.00     0.160 HD
BRANCH  22  24
HETATM   24  C10 UNL     1      17.726  -1.124  53.418  1.00  0.00     0.137 A 
HETATM   25  C11 UNL     1      17.930  -2.572  53.759  1.00  0.00     0.001 A 
HETATM   26  C12 UNL     1      17.250  -3.667  53.503  1.00  0.00    -0.002 A 
HETATM   27  C13 UNL     1      16.038  -3.478  52.731  1.00  0.00    -0.002 A 
HETATM   28  C14 UNL     1      15.745  -2.246  52.375  1.00  0.00     0.007 A 
HETATM   29  C15 UNL     1      16.449  -0.947  52.624  1.00  0.00     0.167 A 
BRANCH  29  30
HETATM   30  O1  UNL     1      15.534  -0.192  53.391  1.00  0.00    -0.389 OA
HETATM   31  H15 UNL     1      15.972   0.637  53.737  1.00  0.00     0.210 HD
ENDBRANCH  29  30
ENDBRANCH  22  24
ENDBRANCH   8  22
TORSDOF 5
ENDMDL
MODEL 8
REMARK VINA RESULT:      -8.3      2.843      4.591
REMARK  5 active torsions:
REMARK  status: ('A' for Active; 'I' for Inactive)
REMARK    1  A    between atoms: C3_3  and  N1_4 
REMARK    2  A    between atoms: N1_4  and  C4_5 
REMARK    3  A    between atoms: C9_12  and  N4_13 
REMARK    4  A    between atoms: N4_13  and  C10_14 
REMARK    5  A    between atoms: C15_19  and  O1_20 
ROOT
HETATM    1  C4  UNL     1      22.861   2.987  51.339  1.00  0.00     0.142 A 
HETATM    2  N2  UNL     1      22.338   3.360  50.166  1.00  0.00    -0.224 NA
HETATM    3  C5  UNL     1      23.186   3.577  49.117  1.00  0.00     0.236 A 
HETATM    4  N3  UNL     1      24.527   3.425  49.236  1.00  0.00    -0.241 NA
HETATM    5  C6  UNL     1      25.053   3.053  50.402  1.00  0.00     0.072 A 
HETATM    6  C7  UNL     1      26.429   2.888  50.558  1.00  0.00     0.035 A 
HETATM    7  C8  UNL     1      26.868   2.505  51.793  1.00  0.00     0.031 A 
HETATM    8  C9  UNL     1      26.089   2.266  52.903  1.00  0.00     0.029 A 
HETATM    9  C16 UNL     1      24.753   2.444  52.688  1.00  0.00     0.046 A 
HETATM   10  C17 UNL     1      24.223   2.827  51.478  1.00  0.00     0.041 A 
ENDROOT
BRANCH   1  11
HETATM   11  N1  UNL     1      21.950   2.775  52.390  1.00  0.00    -0.340 N 
HETATM   12  H4  UNL     1      21.973   2.872  53.416  1.00  0.00     0.167 HD
BRANCH  11  13
HETATM   13  C3  UNL     1      20.636   2.308  52.096  1.00  0.00     0.041 A 
HETATM   14  C2  UNL     1      20.370   1.018  52.075  1.00  0.00    -0.032 A 
HETATM   15  C1  UNL     1      21.500   0.068  52.371  1.00  0.00     0.051 C 
HETATM   16  P1  UNL     1      18.759   0.226  51.716  1.00  0.00    -0.092 P 
HETATM   17  C20 UNL     1      17.568   1.614  51.407  1.00  0.00     0.087 A 
HETATM   18  H20 UNL     1      18.934  -0.527  50.490  1.00  0.00     0.062 HD
HETATM   19  C19 UNL     1      18.302   2.878  51.534  1.00  0.00     0.018 A 
HETATM   20  C18 UNL     1      19.541   3.207  51.812  1.00  0.00     0.050 A 
HETATM   21 CL1  UNL     1      17.159   4.197  51.226  1.00  0.00    -0.089 Cl
ENDBRANCH  11  13
ENDBRANCH   1  11
BRANCH   8  22
HETATM   22  N4  UNL     1      26.577   1.875  54.165  1.00  0.00    -0.379 N 
HETATM   23  H8  UNL     1      26.655   2.660  54.879  1.00  0.00     0.160 HD
BRANCH  22  24
HETATM   24  C10 UNL     1      26.986   0.553  54.620  1.00  0.00     0.137 A 
HETATM   25  C11 UNL     1      28.486   0.480  54.569  1.00  0.00     0.001 A 
HETATM   26  C12 UNL     1      29.332  -0.317  53.956  1.00  0.00    -0.002 A 
HETATM   27  C13 UNL     1      28.731  -1.361  53.151  1.00  0.00    -0.002 A 
HETATM   28  C14 UNL     1      27.416  -1.405  53.120  1.00  0.00     0.007 A 
HETATM   29  C15 UNL     1      26.378  -0.554  53.784  1.00  0.00     0.167 A 
BRANCH  29  30
HETATM   30  O1  UNL     1      25.684  -1.441  54.636  1.00  0.00    -0.389 OA
HETATM   31  H15 UNL     1      26.203  -1.594  55.476  1.00  0.00     0.210 HD
ENDBRANCH  29  30
ENDBRANCH  22  24
ENDBRANCH   8  22
TORSDOF 5
ENDMDL
MODEL 9
REMARK VINA RESULT:      -8.2      2.229      2.758
REMARK  5 active torsions:
REMARK  status: ('A' for Active; 'I' for Inactive)
REMARK    1  A    between atoms: C3_3  and  N1_4 
REMARK    2  A    between atoms: N1_4  and  C4_5 
REMARK    3  A    between atoms: C9_12  and  N4_13 
REMARK    4  A    between atoms: N4_13  and  C10_14 
REMARK    5  A    between atoms: C15_19  and  O1_20 
ROOT
HETATM    1  C4  UNL     1      22.381   1.935  51.049  1.00  0.00     0.142 A 
HETATM    2  N2  UNL     1      21.133   1.758  50.602  1.00  0.00    -0.224 NA
HETATM    3  C5  UNL     1      20.397   0.731  51.123  1.00  0.00     0.236 A 
HETATM    4  N3  UNL     1      20.895  -0.101  52.069  1.00  0.00    -0.241 NA
HETATM    5  C6  UNL     1      22.137   0.071  52.517  1.00  0.00     0.072 A 
HETATM    6  C7  UNL     1      22.680  -0.768  53.490  1.00  0.00     0.035 A 
HETATM    7  C8  UNL     1      23.962  -0.508  53.883  1.00  0.00     0.031 A 
HETATM    8  C9  UNL     1      24.776   0.500  53.415  1.00  0.00     0.029 A 
HETATM    9  C16 UNL     1      24.189   1.287  52.465  1.00  0.00     0.046 A 
HETATM   10  C17 UNL     1      22.904   1.098  52.012  1.00  0.00     0.041 A 
ENDROOT
BRANCH   1  11
HETATM   11  N1  UNL     1      23.101   3.004  50.485  1.00  0.00    -0.340 N 
HETATM   12  H4  UNL     1      24.055   3.380  50.579  1.00  0.00     0.167 HD
BRANCH  11  13
HETATM   13  C3  UNL     1      22.465   3.853  49.535  1.00  0.00     0.041 A 
HETATM   14  C2  UNL     1      21.879   4.970  49.916  1.00  0.00    -0.032 A 
HETATM   15  C1  UNL     1      21.909   5.305  51.384  1.00  0.00     0.051 C 
HETATM   16  P1  UNL     1      21.010   6.183  48.856  1.00  0.00    -0.092 P 
HETATM   17  C20 UNL     1      21.140   5.530  47.125  1.00  0.00     0.087 A 
HETATM   18  H20 UNL     1      19.619   6.165  49.265  1.00  0.00     0.062 HD
HETATM   19  C19 UNL     1      21.875   4.262  47.173  1.00  0.00     0.018 A 
HETATM   20  C18 UNL     1      22.430   3.546  48.123  1.00  0.00     0.050 A 
HETATM   21 CL1  UNL     1      21.984   3.640  45.518  1.00  0.00    -0.089 Cl
ENDBRANCH  11  13
ENDBRANCH   1  11
BRANCH   8  22
HETATM   22  N4  UNL     1      26.097   0.737  53.840  1.00  0.00    -0.379 N 
HETATM   23  H8  UNL     1      26.197   1.007  54.864  1.00  0.00     0.160 HD
BRANCH  22  24
HETATM   24  C10 UNL     1      27.333   0.663  53.073  1.00  0.00     0.137 A 
HETATM   25  C11 UNL     1      27.653  -0.785  52.834  1.00  0.00     0.001 A 
HETATM   26  C12 UNL     1      28.691  -1.540  53.117  1.00  0.00    -0.002 A 
HETATM   27  C13 UNL     1      29.778  -0.871  53.802  1.00  0.00    -0.002 A 
HETATM   28  C14 UNL     1      29.619   0.408  54.064  1.00  0.00     0.007 A 
HETATM   29  C15 UNL     1      28.486   1.346  53.777  1.00  0.00     0.167 A 
BRANCH  29  30
HETATM   30  O1  UNL     1      29.041   2.315  52.912  1.00  0.00    -0.389 OA
HETATM   31  H15 UNL     1      28.394   2.544  52.187  1.00  0.00     0.210 HD
ENDBRANCH  29  30
ENDBRANCH  22  24
ENDBRANCH   8  22
TORSDOF 5
ENDMDL
