MODEL 1
REMARK VINA RESULT:      -5.8      0.000      0.000
REMARK  6 active torsions:
REMARK  status: ('A' for Active; 'I' for Inactive)
REMARK    1  A    between atoms: C5_5  and  O1_6 
REMARK    2  A    between atoms: C8_9  and  O2_10 
REMARK    3  A    between atoms: O2_10  and  C9_11 
REMARK    4  A    between atoms: C9_11  and  O3_12 
REMARK    5  A    between atoms: C11_14  and  O4_15 
REMARK    6  A    between atoms: C13_17  and  O5_18 
ROOT
HETATM    1  C1  UNL     1      25.745   4.866  49.307  1.00  0.00     0.044 C 
HETATM    2  C2  UNL     1      25.037   4.018  50.022  1.00  0.00     0.036 C 
HETATM    3  C3  UNL     1      25.922   2.981  50.531  1.00  0.00     0.015 C 
HETATM    4  C4  UNL     1      24.956   2.383  51.122  1.00  0.00     0.082 C 
HETATM    5  C5  UNL     1      24.284   1.404  51.907  1.00  0.00     0.068 C 
HETATM    6  C7  UNL     1      23.019   1.774  51.864  1.00  0.00     0.042 C 
HETATM    7  C8  UNL     1      22.910   2.778  51.019  1.00  0.00     0.107 C 
HETATM    8  C11 UNL     1      23.017   3.940  51.839  1.00  0.00     0.187 C 
HETATM    9  C13 UNL     1      21.431   3.943  51.937  1.00  0.00     0.088 C 
HETATM   10  C15 UNL     1      20.926   4.855  51.019  1.00  0.00     0.056 C 
HETATM   11  C16 UNL     1      21.890   5.962  50.535  1.00  0.00     0.256 A 
HETATM   12  N1  UNL     1      21.509   6.328  49.228  1.00  0.00     0.349 N 
HETATM   13  C17 UNL     1      22.352   5.531  48.115  1.00  0.00     0.429 C 
HETATM   14  N2  UNL     1      23.398   4.618  48.370  1.00  0.00    -0.095 NA
HETATM   15  N3  UNL     1      23.747   4.710  49.865  1.00  0.00    -0.277 N 
HETATM   16  C18 UNL     1      23.153   5.363  51.299  1.00  0.00     0.144 A 
HETATM   17  C19 UNL     1      23.327   6.475  50.683  1.00  0.00     0.081 A 
ENDROOT
BRANCH   7  18
HETATM   18  O2  UNL     1      22.744   2.439  49.731  1.00  0.00    -0.326 OA
BRANCH  18  19
HETATM   19  C9  UNL     1      21.849   1.480  49.244  1.00  0.00     0.343 C 
BRANCH  19  20
HETATM   20  O3  UNL     1      21.345   1.937  48.028  1.00  0.00    -0.371 OA
HETATM   21  C10 UNL     1      20.133   2.592  48.227  1.00  0.00     0.204 C 
ENDBRANCH  19  20
ENDBRANCH  18  19
ENDBRANCH   7  18
BRANCH   8  22
HETATM   22  O4  UNL     1      23.434   3.945  53.093  1.00  0.00    -0.368 OA
HETATM   23  C12 UNL     1      23.812   4.995  53.817  1.00  0.00     0.204 C 
ENDBRANCH   8  22
BRANCH   5  24
HETATM   24  O1  UNL     1      23.893   0.316  52.718  1.00  0.00    -0.359 OA
HETATM   25  C6  UNL     1      24.821  -0.279  53.611  1.00  0.00     0.209 C 
ENDBRANCH   5  24
BRANCH   9  26
HETATM   26  O5  UNL     1      20.378   3.426  52.545  1.00  0.00    -0.357 OA
HETATM   27  C14 UNL     1      19.273   2.877  51.903  1.00  0.00     0.209 C 
ENDBRANCH   9  26
TORSDOF 6
ENDMDL
MODEL 2
REMARK VINA RESULT:      -5.6      8.549     11.479
REMARK  6 active torsions:
REMARK  status: ('A' for Active; 'I' for Inactive)
REMARK    1  A    between atoms: C5_5  and  O1_6 
REMARK    2  A    between atoms: C8_9  and  O2_10 
REMARK    3  A    between atoms: O2_10  and  C9_11 
REMARK    4  A    between atoms: C9_11  and  O3_12 
REMARK    5  A    between atoms: C11_14  and  O4_15 
REMARK    6  A    between atoms: C13_17  and  O5_18 
ROOT
HETATM    1  C1  UNL     1      29.117   5.533  48.241  1.00  0.00     0.044 C 
HETATM    2  C2  UNL     1      29.609   6.566  47.591  1.00  0.00     0.036 C 
HETATM    3  C3  UNL     1      28.508   7.331  47.025  1.00  0.00     0.015 C 
HETATM    4  C4  UNL     1      29.308   8.182  46.500  1.00  0.00     0.082 C 
HETATM    5  C5  UNL     1      29.733   9.324  45.765  1.00  0.00     0.068 C 
HETATM    6  C7  UNL     1      31.050   9.266  45.820  1.00  0.00     0.042 C 
HETATM    7  C8  UNL     1      31.390   8.130  46.394  1.00  0.00     0.107 C 
HETATM    8  C11 UNL     1      31.544   8.466  47.771  1.00  0.00     0.187 C 
HETATM    9  C13 UNL     1      33.089   8.700  47.479  1.00  0.00     0.088 C 
HETATM   10  C15 UNL     1      33.794   7.564  47.860  1.00  0.00     0.056 C 
HETATM   11  C16 UNL     1      33.111   6.630  48.884  1.00  0.00     0.256 A 
HETATM   12  N1  UNL     1      33.575   5.320  48.653  1.00  0.00     0.349 N 
HETATM   13  C17 UNL     1      32.581   4.495  47.695  1.00  0.00     0.429 C 
HETATM   14  N2  UNL     1      31.353   4.965  47.181  1.00  0.00    -0.095 NA
HETATM   15  N3  UNL     1      31.023   6.288  47.890  1.00  0.00    -0.277 N 
HETATM   16  C18 UNL     1      31.739   7.441  48.888  1.00  0.00     0.144 A 
HETATM   17  C19 UNL     1      31.827   6.454  49.703  1.00  0.00     0.081 A 
ENDROOT
BRANCH   7  18
HETATM   18  O2  UNL     1      31.485   7.070  45.576  1.00  0.00    -0.326 OA
BRANCH  18  19
HETATM   19  C9  UNL     1      32.224   7.014  44.389  1.00  0.00     0.343 C 
BRANCH  19  20
HETATM   20  O3  UNL     1      33.352   6.228  44.619  1.00  0.00    -0.371 OA
HETATM   21  C10 UNL     1      33.206   4.990  43.999  1.00  0.00     0.204 C 
ENDBRANCH  19  20
ENDBRANCH  18  19
ENDBRANCH   7  18
BRANCH   8  22
HETATM   22  O4  UNL     1      31.131   9.591  48.327  1.00  0.00    -0.368 OA
HETATM   23  C12 UNL     1      30.531   9.740  49.505  1.00  0.00     0.204 C 
ENDBRANCH   8  22
BRANCH   5  24
HETATM   24  O1  UNL     1      29.861  10.502  44.999  1.00  0.00    -0.359 OA
HETATM   25  C6  UNL     1      30.399  11.679  45.582  1.00  0.00     0.209 C 
ENDBRANCH   5  24
BRANCH   9  26
HETATM   26  O5  UNL     1      33.992   9.545  47.017  1.00  0.00    -0.357 OA
HETATM   27  C14 UNL     1      34.887   9.275  45.986  1.00  0.00     0.209 C 
ENDBRANCH   9  26
TORSDOF 6
ENDMDL
MODEL 3
REMARK VINA RESULT:      -5.6      8.451     11.291
REMARK  6 active torsions:
REMARK  status: ('A' for Active; 'I' for Inactive)
REMARK    1  A    between atoms: C5_5  and  O1_6 
REMARK    2  A    between atoms: C8_9  and  O2_10 
REMARK    3  A    between atoms: O2_10  and  C9_11 
REMARK    4  A    between atoms: C9_11  and  O3_12 
REMARK    5  A    between atoms: C11_14  and  O4_15 
REMARK    6  A    between atoms: C13_17  and  O5_18 
ROOT
HETATM    1  C1  UNL     1      30.632   9.466  44.554  1.00  0.00     0.044 C 
HETATM    2  C2  UNL     1      30.623   8.606  45.552  1.00  0.00     0.036 C 
HETATM    3  C3  UNL     1      29.311   7.980  45.620  1.00  0.00     0.015 C 
HETATM    4  C4  UNL     1      29.651   7.272  46.631  1.00  0.00     0.082 C 
HETATM    5  C5  UNL     1      29.532   6.326  47.687  1.00  0.00     0.068 C 
HETATM    6  C7  UNL     1      30.701   6.379  48.296  1.00  0.00     0.042 C 
HETATM    7  C8  UNL     1      31.400   7.360  47.764  1.00  0.00     0.107 C 
HETATM    8  C11 UNL     1      32.178   6.727  46.751  1.00  0.00     0.187 C 
HETATM    9  C13 UNL     1      33.340   6.573  47.823  1.00  0.00     0.088 C 
HETATM   10  C15 UNL     1      34.260   7.599  47.638  1.00  0.00     0.056 C 
HETATM   11  C16 UNL     1      34.277   8.277  46.249  1.00  0.00     0.256 A 
HETATM   12  N1  UNL     1      34.703   9.610  46.422  1.00  0.00     0.349 N 
HETATM   13  C17 UNL     1      33.461  10.620  46.563  1.00  0.00     0.429 C 
HETATM   14  N2  UNL     1      32.097  10.269  46.465  1.00  0.00    -0.095 NA
HETATM   15  N3  UNL     1      32.021   8.819  45.962  1.00  0.00    -0.277 N 
HETATM   16  C18 UNL     1      33.008   7.478  45.711  1.00  0.00     0.144 A 
HETATM   17  C19 UNL     1      33.593   8.259  44.878  1.00  0.00     0.081 A 
ENDROOT
BRANCH   7  18
HETATM   18  O2  UNL     1      31.191   8.576  48.292  1.00  0.00    -0.326 OA
BRANCH  18  19
HETATM   19  C9  UNL     1      31.221   8.895  49.655  1.00  0.00     0.343 C 
BRANCH  19  20
HETATM   20  O3  UNL     1      30.593  10.128  49.824  1.00  0.00    -0.371 OA
HETATM   21  C10 UNL     1      29.455  10.198  49.025  1.00  0.00     0.204 C 
ENDBRANCH  19  20
ENDBRANCH  18  19
ENDBRANCH   7  18
BRANCH   8  22
HETATM   22  O4  UNL     1      31.975   5.503  46.294  1.00  0.00    -0.368 OA
HETATM   23  C12 UNL     1      32.841   4.724  45.653  1.00  0.00     0.204 C 
ENDBRANCH   8  22
BRANCH   5  24
HETATM   24  O1  UNL     1      29.136   5.349  48.626  1.00  0.00    -0.359 OA
HETATM   25  C6  UNL     1      27.797   4.879  48.647  1.00  0.00     0.209 C 
ENDBRANCH   5  24
BRANCH   9  26
HETATM   26  O5  UNL     1      33.800   5.858  48.834  1.00  0.00    -0.357 OA
HETATM   27  C14 UNL     1      35.116   5.429  48.978  1.00  0.00     0.209 C 
ENDBRANCH   9  26
TORSDOF 6
ENDMDL
MODEL 4
REMARK VINA RESULT:      -5.5      2.172      2.819
REMARK  6 active torsions:
REMARK  status: ('A' for Active; 'I' for Inactive)
REMARK    1  A    between atoms: C5_5  and  O1_6 
REMARK    2  A    between atoms: C8_9  and  O2_10 
REMARK    3  A    between atoms: O2_10  and  C9_11 
REMARK    4  A    between atoms: C9_11  and  O3_12 
REMARK    5  A    between atoms: C11_14  and  O4_15 
REMARK    6  A    between atoms: C13_17  and  O5_18 
ROOT
HETATM    1  C1  UNL     1      26.246   5.922  49.192  1.00  0.00     0.044 C 
HETATM    2  C2  UNL     1      25.147   5.201  49.282  1.00  0.00     0.036 C 
HETATM    3  C3  UNL     1      25.515   3.795  49.360  1.00  0.00     0.015 C 
HETATM    4  C4  UNL     1      24.289   3.431  49.421  1.00  0.00     0.082 C 
HETATM    5  C5  UNL     1      23.168   2.559  49.514  1.00  0.00     0.068 C 
HETATM    6  C7  UNL     1      22.128   3.369  49.451  1.00  0.00     0.042 C 
HETATM    7  C8  UNL     1      22.566   4.584  49.193  1.00  0.00     0.107 C 
HETATM    8  C11 UNL     1      22.707   5.185  50.479  1.00  0.00     0.187 C 
HETATM    9  C13 UNL     1      21.234   5.755  50.308  1.00  0.00     0.088 C 
HETATM   10  C15 UNL     1      21.311   7.075  49.879  1.00  0.00     0.056 C 
HETATM   11  C16 UNL     1      22.635   7.822  50.155  1.00  0.00     0.256 A 
HETATM   12  N1  UNL     1      22.804   8.793  49.148  1.00  0.00     0.349 N 
HETATM   13  C17 UNL     1      23.717   8.248  47.941  1.00  0.00     0.429 C 
HETATM   14  N2  UNL     1      24.345   6.986  47.888  1.00  0.00    -0.095 NA
HETATM   15  N3  UNL     1      24.208   6.334  49.273  1.00  0.00    -0.277 N 
HETATM   16  C18 UNL     1      23.381   6.534  50.726  1.00  0.00     0.144 A 
HETATM   17  C19 UNL     1      24.030   7.640  50.764  1.00  0.00     0.081 A 
ENDROOT
BRANCH   7  18
HETATM   18  O2  UNL     1      22.737   4.878  47.895  1.00  0.00    -0.326 OA
BRANCH  18  19
HETATM   19  C9  UNL     1      21.747   4.836  46.907  1.00  0.00     0.343 C 
BRANCH  19  20
HETATM   20  O3  UNL     1      22.127   3.892  45.955  1.00  0.00    -0.371 OA
HETATM   21  C10 UNL     1      21.226   3.892  44.895  1.00  0.00     0.204 C 
ENDBRANCH  19  20
ENDBRANCH  18  19
ENDBRANCH   7  18
BRANCH   8  22
HETATM   22  O4  UNL     1      22.686   4.531  51.627  1.00  0.00    -0.368 OA
HETATM   23  C12 UNL     1      23.392   4.795  52.723  1.00  0.00     0.204 C 
ENDBRANCH   8  22
BRANCH   5  24
HETATM   24  O1  UNL     1      22.264   1.479  49.620  1.00  0.00    -0.359 OA
HETATM   25  C6  UNL     1      21.293   1.259  48.609  1.00  0.00     0.209 C 
ENDBRANCH   5  24
BRANCH   9  26
HETATM   26  O5  UNL     1      19.945   5.486  50.409  1.00  0.00    -0.357 OA
HETATM   27  C14 UNL     1      19.004   5.684  49.404  1.00  0.00     0.209 C 
ENDBRANCH   9  26
TORSDOF 6
ENDMDL
MODEL 5
REMARK VINA RESULT:      -5.5      1.692      3.443
REMARK  6 active torsions:
REMARK  status: ('A' for Active; 'I' for Inactive)
REMARK    1  A    between atoms: C5_5  and  O1_6 
REMARK    2  A    between atoms: C8_9  and  O2_10 
REMARK    3  A    between atoms: O2_10  and  C9_11 
REMARK    4  A    between atoms: C9_11  and  O3_12 
REMARK    5  A    between atoms: C11_14  and  O4_15 
REMARK    6  A    between atoms: C13_17  and  O5_18 
ROOT
HETATM    1  C1  UNL     1      22.705   6.012  46.947  1.00  0.00     0.044 C 
HETATM    2  C2  UNL     1      22.619   5.041  47.832  1.00  0.00     0.036 C 
HETATM    3  C3  UNL     1      22.234   3.816  47.148  1.00  0.00     0.015 C 
HETATM    4  C4  UNL     1      22.239   3.149  48.241  1.00  0.00     0.082 C 
HETATM    5  C5  UNL     1      22.109   2.033  49.113  1.00  0.00     0.068 C 
HETATM    6  C7  UNL     1      22.356   2.532  50.309  1.00  0.00     0.042 C 
HETATM    7  C8  UNL     1      22.471   3.839  50.195  1.00  0.00     0.107 C 
HETATM    8  C11 UNL     1      23.871   4.055  50.033  1.00  0.00     0.187 C 
HETATM    9  C13 UNL     1      23.962   4.254  51.607  1.00  0.00     0.088 C 
HETATM   10  C15 UNL     1      23.965   5.615  51.888  1.00  0.00     0.056 C 
HETATM   11  C16 UNL     1      24.396   6.561  50.744  1.00  0.00     0.256 A 
HETATM   12  N1  UNL     1      23.737   7.793  50.929  1.00  0.00     0.349 N 
HETATM   13  C17 UNL     1      22.376   7.876  50.076  1.00  0.00     0.429 C 
HETATM   14  N2  UNL     1      21.897   6.888  49.189  1.00  0.00    -0.095 NA
HETATM   15  N3  UNL     1      23.013   5.849  48.998  1.00  0.00    -0.277 N 
HETATM   16  C18 UNL     1      24.496   5.398  49.659  1.00  0.00     0.144 A 
HETATM   17  C19 UNL     1      24.846   6.573  49.279  1.00  0.00     0.081 A 
ENDROOT
BRANCH   7  18
HETATM   18  O2  UNL     1      21.324   4.533  50.261  1.00  0.00    -0.326 OA
BRANCH  18  19
HETATM   19  C9  UNL     1      20.311   4.355  51.210  1.00  0.00     0.343 C 
BRANCH  19  20
HETATM   20  O3  UNL     1      19.174   3.897  50.549  1.00  0.00    -0.371 OA
HETATM   21  C10 UNL     1      18.953   4.651  49.400  1.00  0.00     0.204 C 
ENDBRANCH  19  20
ENDBRANCH  18  19
ENDBRANCH   7  18
BRANCH   8  22
HETATM   22  O4  UNL     1      24.756   3.112  49.760  1.00  0.00    -0.368 OA
HETATM   23  C12 UNL     1      26.079   3.234  49.704  1.00  0.00     0.204 C 
ENDBRANCH   8  22
BRANCH   5  24
HETATM   24  O1  UNL     1      21.916   0.776  49.726  1.00  0.00    -0.359 OA
HETATM   25  C6  UNL     1      20.920   0.613  50.724  1.00  0.00     0.209 C 
ENDBRANCH   5  24
BRANCH   9  26
HETATM   26  O5  UNL     1      24.038   3.647  52.778  1.00  0.00    -0.357 OA
HETATM   27  C14 UNL     1      24.847   2.551  53.060  1.00  0.00     0.209 C 
ENDBRANCH   9  26
TORSDOF 6
ENDMDL
MODEL 6
REMARK VINA RESULT:      -5.4      2.438      5.066
REMARK  6 active torsions:
REMARK  status: ('A' for Active; 'I' for Inactive)
REMARK    1  A    between atoms: C5_5  and  O1_6 
REMARK    2  A    between atoms: C8_9  and  O2_10 
REMARK    3  A    between atoms: O2_10  and  C9_11 
REMARK    4  A    between atoms: C9_11  and  O3_12 
REMARK    5  A    between atoms: C11_14  and  O4_15 
REMARK    6  A    between atoms: C13_17  and  O5_18 
ROOT
HETATM    1  C1  UNL     1      21.902   0.934  50.788  1.00  0.00     0.044 C 
HETATM    2  C2  UNL     1      21.997   1.864  49.860  1.00  0.00     0.036 C 
HETATM    3  C3  UNL     1      21.786   1.249  48.559  1.00  0.00     0.015 C 
HETATM    4  C4  UNL     1      21.949   2.366  47.954  1.00  0.00     0.082 C 
HETATM    5  C5  UNL     1      22.038   3.288  46.874  1.00  0.00     0.068 C 
HETATM    6  C7  UNL     1      22.338   4.433  47.456  1.00  0.00     0.042 C 
HETATM    7  C8  UNL     1      22.559   4.202  48.733  1.00  0.00     0.107 C 
HETATM    8  C11 UNL     1      21.299   4.442  49.356  1.00  0.00     0.187 C 
HETATM    9  C13 UNL     1      21.779   5.934  49.615  1.00  0.00     0.088 C 
HETATM   10  C15 UNL     1      22.243   6.035  50.921  1.00  0.00     0.056 C 
HETATM   11  C16 UNL     1      21.747   4.967  51.922  1.00  0.00     0.256 A 
HETATM   12  N1  UNL     1      22.744   4.796  52.903  1.00  0.00     0.349 N 
HETATM   13  C17 UNL     1      23.724   3.571  52.550  1.00  0.00     0.429 C 
HETATM   14  N2  UNL     1      23.598   2.708  51.440  1.00  0.00    -0.095 NA
HETATM   15  N3  UNL     1      22.239   2.988  50.780  1.00  0.00    -0.277 N 
HETATM   16  C18 UNL     1      20.985   4.112  50.814  1.00  0.00     0.144 A 
HETATM   17  C19 UNL     1      20.871   3.714  52.029  1.00  0.00     0.081 A 
ENDROOT
BRANCH   7  18
HETATM   18  O2  UNL     1      23.811   3.836  49.051  1.00  0.00    -0.326 OA
BRANCH  18  19
HETATM   19  C9  UNL     1      24.946   4.652  48.985  1.00  0.00     0.343 C 
BRANCH  19  20
HETATM   20  O3  UNL     1      26.054   3.879  49.325  1.00  0.00    -0.371 OA
HETATM   21  C10 UNL     1      27.225   4.524  48.937  1.00  0.00     0.204 C 
ENDBRANCH  19  20
ENDBRANCH  18  19
ENDBRANCH   7  18
BRANCH   8  22
HETATM   22  O4  UNL     1      20.149   4.562  48.716  1.00  0.00    -0.368 OA
HETATM   23  C12 UNL     1      19.020   5.098  49.171  1.00  0.00     0.204 C 
ENDBRANCH   8  22
BRANCH   5  24
HETATM   24  O1  UNL     1      22.063   3.962  45.633  1.00  0.00    -0.359 OA
HETATM   25  C6  UNL     1      21.630   5.311  45.545  1.00  0.00     0.209 C 
ENDBRANCH   5  24
BRANCH   9  26
HETATM   26  O5  UNL     1      21.919   7.138  49.090  1.00  0.00    -0.357 OA
HETATM   27  C14 UNL     1      22.676   8.167  49.640  1.00  0.00     0.209 C 
ENDBRANCH   9  26
TORSDOF 6
ENDMDL
MODEL 7
REMARK VINA RESULT:      -5.4      1.596      3.189
REMARK  6 active torsions:
REMARK  status: ('A' for Active; 'I' for Inactive)
REMARK    1  A    between atoms: C5_5  and  O1_6 
REMARK    2  A    between atoms: C8_9  and  O2_10 
REMARK    3  A    between atoms: O2_10  and  C9_11 
REMARK    4  A    between atoms: C9_11  and  O3_12 
REMARK    5  A    between atoms: C11_14  and  O4_15 
REMARK    6  A    between atoms: C13_17  and  O5_18 
ROOT
HETATM    1  C1  UNL     1      22.147   2.407  47.466  1.00  0.00     0.044 C 
HETATM    2  C2  UNL     1      22.115   2.177  48.762  1.00  0.00     0.036 C 
HETATM    3  C3  UNL     1      21.645   0.818  48.985  1.00  0.00     0.015 C 
HETATM    4  C4  UNL     1      21.729   0.949  50.256  1.00  0.00     0.082 C 
HETATM    5  C5  UNL     1      21.650   0.599  51.633  1.00  0.00     0.068 C 
HETATM    6  C7  UNL     1      22.008   1.700  52.264  1.00  0.00     0.042 C 
HETATM    7  C8  UNL     1      22.143   2.661  51.373  1.00  0.00     0.107 C 
HETATM    8  C11 UNL     1      23.528   2.637  51.038  1.00  0.00     0.187 C 
HETATM    9  C13 UNL     1      23.757   3.740  52.158  1.00  0.00     0.088 C 
HETATM   10  C15 UNL     1      23.815   4.990  51.553  1.00  0.00     0.056 C 
HETATM   11  C16 UNL     1      24.167   5.019  50.048  1.00  0.00     0.256 A 
HETATM   12  N1  UNL     1      23.554   6.155  49.482  1.00  0.00     0.349 N 
HETATM   13  C17 UNL     1      22.127   5.800  48.830  1.00  0.00     0.429 C 
HETATM   14  N2  UNL     1      21.553   4.513  48.754  1.00  0.00    -0.095 NA
HETATM   15  N3  UNL     1      22.625   3.495  49.174  1.00  0.00    -0.277 N 
HETATM   16  C18 UNL     1      24.148   3.434  49.891  1.00  0.00     0.144 A 
HETATM   17  C19 UNL     1      24.490   4.112  48.856  1.00  0.00     0.081 A 
ENDROOT
BRANCH   7  18
HETATM   18  O2  UNL     1      21.021   3.331  51.066  1.00  0.00    -0.326 OA
BRANCH  18  19
HETATM   19  C9  UNL     1      20.169   3.966  51.977  1.00  0.00     0.343 C 
BRANCH  19  20
HETATM   20  O3  UNL     1      18.942   3.306  51.953  1.00  0.00    -0.371 OA
HETATM   21  C10 UNL     1      18.609   2.962  50.646  1.00  0.00     0.204 C 
ENDBRANCH  19  20
ENDBRANCH  18  19
ENDBRANCH   7  18
BRANCH   8  22
HETATM   22  O4  UNL     1      24.365   1.662  51.346  1.00  0.00    -0.368 OA
HETATM   23  C12 UNL     1      25.677   1.752  51.545  1.00  0.00     0.204 C 
ENDBRANCH   8  22
BRANCH   5  24
HETATM   24  O1  UNL     1      21.482  -0.015  52.894  1.00  0.00    -0.359 OA
HETATM   25  C6  UNL     1      22.336  -1.077  53.291  1.00  0.00     0.209 C 
ENDBRANCH   5  24
BRANCH   9  26
HETATM   26  O5  UNL     1      23.920   3.960  53.451  1.00  0.00    -0.357 OA
HETATM   27  C14 UNL     1      23.795   5.197  54.074  1.00  0.00     0.209 C 
ENDBRANCH   9  26
TORSDOF 6
ENDMDL
MODEL 8
REMARK VINA RESULT:      -5.3      2.020      4.037
REMARK  6 active torsions:
REMARK  status: ('A' for Active; 'I' for Inactive)
REMARK    1  A    between atoms: C5_5  and  O1_6 
REMARK    2  A    between atoms: C8_9  and  O2_10 
REMARK    3  A    between atoms: O2_10  and  C9_11 
REMARK    4  A    between atoms: C9_11  and  O3_12 
REMARK    5  A    between atoms: C11_14  and  O4_15 
REMARK    6  A    between atoms: C13_17  and  O5_18 
ROOT
HETATM    1  C1  UNL     1      21.090   0.627  49.797  1.00  0.00     0.044 C 
HETATM    2  C2  UNL     1      21.933   1.395  50.456  1.00  0.00     0.036 C 
HETATM    3  C3  UNL     1      22.377   0.687  51.647  1.00  0.00     0.015 C 
HETATM    4  C4  UNL     1      23.116   1.669  52.010  1.00  0.00     0.082 C 
HETATM    5  C5  UNL     1      24.029   2.418  52.803  1.00  0.00     0.068 C 
HETATM    6  C7  UNL     1      24.129   3.571  52.170  1.00  0.00     0.042 C 
HETATM    7  C8  UNL     1      23.254   3.579  51.185  1.00  0.00     0.107 C 
HETATM    8  C11 UNL     1      23.994   3.120  50.056  1.00  0.00     0.187 C 
HETATM    9  C13 UNL     1      24.293   4.642  49.709  1.00  0.00     0.088 C 
HETATM   10  C15 UNL     1      23.401   5.063  48.730  1.00  0.00     0.056 C 
HETATM   11  C16 UNL     1      22.742   3.962  47.868  1.00  0.00     0.256 A 
HETATM   12  N1  UNL     1      21.478   4.430  47.458  1.00  0.00     0.349 N 
HETATM   13  C17 UNL     1      20.309   3.933  48.443  1.00  0.00     0.429 C 
HETATM   14  N2  UNL     1      20.475   3.078  49.554  1.00  0.00    -0.095 NA
HETATM   15  N3  UNL     1      21.906   2.519  49.506  1.00  0.00    -0.277 N 
HETATM   16  C18 UNL     1      23.369   2.762  48.708  1.00  0.00     0.144 A 
HETATM   17  C19 UNL     1      22.680   2.443  47.674  1.00  0.00     0.081 A 
ENDROOT
BRANCH   7  18
HETATM   18  O2  UNL     1      22.017   3.987  51.509  1.00  0.00    -0.326 OA
BRANCH  18  19
HETATM   19  C9  UNL     1      21.681   5.225  52.067  1.00  0.00     0.343 C 
BRANCH  19  20
HETATM   20  O3  UNL     1      21.086   6.000  51.073  1.00  0.00    -0.371 OA
HETATM   21  C10 UNL     1      21.754   7.214  50.949  1.00  0.00     0.204 C 
ENDBRANCH  19  20
ENDBRANCH  18  19
ENDBRANCH   7  18
BRANCH   8  22
HETATM   22  O4  UNL     1      25.183   2.546  50.112  1.00  0.00    -0.368 OA
HETATM   23  C12 UNL     1      26.318   2.977  49.569  1.00  0.00     0.204 C 
ENDBRANCH   8  22
BRANCH   5  24
HETATM   24  O1  UNL     1      24.937   2.916  53.762  1.00  0.00    -0.359 OA
HETATM   25  C6  UNL     1      26.233   2.351  53.881  1.00  0.00     0.209 C 
ENDBRANCH   5  24
BRANCH   9  26
HETATM   26  O5  UNL     1      25.056   5.688  49.973  1.00  0.00    -0.357 OA
HETATM   27  C14 UNL     1      25.206   6.797  49.147  1.00  0.00     0.209 C 
ENDBRANCH   9  26
TORSDOF 6
ENDMDL
MODEL 9
REMARK VINA RESULT:      -5.3      9.631     11.679
REMARK  6 active torsions:
REMARK  status: ('A' for Active; 'I' for Inactive)
REMARK    1  A    between atoms: C5_5  and  O1_6 
REMARK    2  A    between atoms: C8_9  and  O2_10 
REMARK    3  A    between atoms: O2_10  and  C9_11 
REMARK    4  A    between atoms: C9_11  and  O3_12 
REMARK    5  A    between atoms: C11_14  and  O4_15 
REMARK    6  A    between atoms: C13_17  and  O5_18 
ROOT
HETATM    1  C1  UNL     1      35.732   8.496  48.142  1.00  0.00     0.044 C 
HETATM    2  C2  UNL     1      34.705   7.731  47.836  1.00  0.00     0.036 C 
HETATM    3  C3  UNL     1      34.803   6.492  48.593  1.00  0.00     0.015 C 
HETATM    4  C4  UNL     1      33.728   6.034  48.070  1.00  0.00     0.082 C 
HETATM    5  C5  UNL     1      32.664   5.126  47.806  1.00  0.00     0.068 C 
HETATM    6  C7  UNL     1      31.943   5.739  46.887  1.00  0.00     0.042 C 
HETATM    7  C8  UNL     1      32.582   6.830  46.519  1.00  0.00     0.107 C 
HETATM    8  C11 UNL     1      32.034   7.853  47.348  1.00  0.00     0.187 C 
HETATM    9  C13 UNL     1      30.995   8.155  46.186  1.00  0.00     0.088 C 
HETATM   10  C15 UNL     1      31.449   9.243  45.449  1.00  0.00     0.056 C 
HETATM   11  C16 UNL     1      32.455  10.186  46.147  1.00  0.00     0.256 A 
HETATM   12  N1  UNL     1      33.274  10.758  45.153  1.00  0.00     0.349 N 
HETATM   13  C17 UNL     1      34.643   9.936  44.961  1.00  0.00     0.429 C 
HETATM   14  N2  UNL     1      35.044   8.815  45.719  1.00  0.00    -0.095 NA
HETATM   15  N3  UNL     1      34.072   8.675  46.901  1.00  0.00    -0.277 N 
HETATM   16  C18 UNL     1      32.594   9.272  47.445  1.00  0.00     0.144 A 
HETATM   17  C19 UNL     1      33.226  10.388  47.456  1.00  0.00     0.081 A 
ENDROOT
BRANCH   7  18
HETATM   18  O2  UNL     1      33.493   6.672  45.546  1.00  0.00    -0.326 OA
BRANCH  18  19
HETATM   19  C9  UNL     1      33.313   5.942  44.365  1.00  0.00     0.343 C 
BRANCH  19  20
HETATM   20  O3  UNL     1      34.544   5.399  44.002  1.00  0.00    -0.371 OA
HETATM   21  C10 UNL     1      34.859   4.329  44.834  1.00  0.00     0.204 C 
ENDBRANCH  19  20
ENDBRANCH  18  19
ENDBRANCH   7  18
BRANCH   8  22
HETATM   22  O4  UNL     1      31.291   7.641  48.420  1.00  0.00    -0.368 OA
HETATM   23  C12 UNL     1      30.752   8.552  49.225  1.00  0.00     0.204 C 
ENDBRANCH   8  22
BRANCH   5  24
HETATM   24  O1  UNL     1      31.746   4.055  47.748  1.00  0.00    -0.359 OA
HETATM   25  C6  UNL     1      31.835   3.093  46.709  1.00  0.00     0.209 C 
ENDBRANCH   5  24
BRANCH   9  26
HETATM   26  O5  UNL     1      29.856   7.792  45.623  1.00  0.00    -0.357 OA
HETATM   27  C14 UNL     1      28.589   8.108  46.104  1.00  0.00     0.209 C 
ENDBRANCH   9  26
TORSDOF 6
ENDMDL
