MODEL 1
REMARK VINA RESULT:      -7.7      0.000      0.000
REMARK  6 active torsions:
REMARK  status: ('A' for Active; 'I' for Inactive)
REMARK    1  A    between atoms: O1_2  and  C2_3 
REMARK    2  A    between atoms: C3_4  and  C4_5 
REMARK    3  A    between atoms: C4_5  and  C5_6 
REMARK    4  A    between atoms: C5_6  and  S1_7 
REMARK    5  A    between atoms: S1_7  and  C6_10 
REMARK    6  A    between atoms: C11_15  and  O4_16 
ROOT
HETATM    1  S1  UNL     1      26.965   1.679  52.939  1.00  0.00     0.178 S 
HETATM    2  O2  UNL     1      28.081   2.485  52.265  1.00  0.00    -0.223 OA
HETATM    3  O3  UNL     1      26.804   2.141  54.343  1.00  0.00    -0.223 OA
ENDROOT
BRANCH   1   4
HETATM    4  C5  UNL     1      25.525   1.814  51.990  1.00  0.00     0.150 C 
BRANCH   4   5
HETATM    5  C4  UNL     1      24.346   2.265  52.787  1.00  0.00     0.056 C 
BRANCH   5   6
HETATM    6  C3  UNL     1      23.275   1.307  53.041  1.00  0.00    -0.028 A 
HETATM    7  C2  UNL     1      22.014   1.454  52.592  1.00  0.00     0.056 A 
HETATM    8  C15 UNL     1      21.082   0.356  52.962  1.00  0.00     0.098 A 
HETATM    9  C13 UNL     1      22.004  -0.549  53.692  1.00  0.00    -0.077 A 
HETATM   10  C12 UNL     1      23.195   0.022  53.720  1.00  0.00     0.012 A 
HETATM   11  C14 UNL     1      21.578  -1.843  54.275  1.00  0.00     0.044 C 
BRANCH   7  12
HETATM   12  O1  UNL     1      21.558   2.540  51.825  1.00  0.00    -0.359 OA
HETATM   13  C1  UNL     1      20.453   3.299  52.291  1.00  0.00     0.209 C 
ENDBRANCH   7  12
ENDBRANCH   5   6
ENDBRANCH   4   5
ENDBRANCH   1   4
BRANCH   1  14
HETATM   14  C6  UNL     1      27.614   0.042  52.978  1.00  0.00     0.092 A 
HETATM   15  C7  UNL     1      26.872  -1.043  52.536  1.00  0.00     0.026 A 
HETATM   16  C8  UNL     1      27.438  -2.291  52.594  1.00  0.00     0.002 A 
HETATM   17  C9  UNL     1      28.712  -2.458  53.080  1.00  0.00     0.003 A 
HETATM   18  C10 UNL     1      29.418  -1.374  53.507  1.00  0.00     0.038 A 
HETATM   19  C11 UNL     1      28.912  -0.084  53.479  1.00  0.00     0.087 A 
BRANCH  19  20
HETATM   20  O4  UNL     1      29.630   1.013  53.912  1.00  0.00    -0.359 OA
HETATM   21  H12 UNL     1      30.323   1.376  53.245  1.00  0.00     0.217 HD
ENDBRANCH  19  20
ENDBRANCH   1  14
TORSDOF 6
ENDMDL
MODEL 2
REMARK VINA RESULT:      -7.6      1.427      2.253
REMARK  6 active torsions:
REMARK  status: ('A' for Active; 'I' for Inactive)
REMARK    1  A    between atoms: O1_2  and  C2_3 
REMARK    2  A    between atoms: C3_4  and  C4_5 
REMARK    3  A    between atoms: C4_5  and  C5_6 
REMARK    4  A    between atoms: C5_6  and  S1_7 
REMARK    5  A    between atoms: S1_7  and  C6_10 
REMARK    6  A    between atoms: C11_15  and  O4_16 
ROOT
HETATM    1  S1  UNL     1      26.709   1.629  52.850  1.00  0.00     0.178 S 
HETATM    2  O2  UNL     1      27.518   2.502  51.884  1.00  0.00    -0.223 OA
HETATM    3  O3  UNL     1      26.633   2.300  54.175  1.00  0.00    -0.223 OA
ENDROOT
BRANCH   1   4
HETATM    4  C5  UNL     1      25.164   1.299  52.145  1.00  0.00     0.150 C 
BRANCH   4   5
HETATM    5  C4  UNL     1      24.027   1.720  53.017  1.00  0.00     0.056 C 
BRANCH   5   6
HETATM    6  C3  UNL     1      22.941   0.771  53.243  1.00  0.00    -0.028 A 
HETATM    7  C2  UNL     1      23.099  -0.416  53.860  1.00  0.00     0.056 A 
HETATM    8  C15 UNL     1      21.859  -1.227  53.991  1.00  0.00     0.098 A 
HETATM    9  C13 UNL     1      20.867  -0.306  53.383  1.00  0.00    -0.077 A 
HETATM   10  C12 UNL     1      21.511   0.774  52.976  1.00  0.00     0.012 A 
HETATM   11  C14 UNL     1      19.424  -0.626  53.274  1.00  0.00     0.044 C 
BRANCH   7  12
HETATM   12  O1  UNL     1      24.318  -0.901  54.365  1.00  0.00    -0.359 OA
HETATM   13  C1  UNL     1      24.414  -1.231  55.742  1.00  0.00     0.209 C 
ENDBRANCH   7  12
ENDBRANCH   5   6
ENDBRANCH   4   5
ENDBRANCH   1   4
BRANCH   1  14
HETATM   14  C6  UNL     1      27.707   0.188  53.028  1.00  0.00     0.092 A 
HETATM   15  C7  UNL     1      27.233  -1.069  52.689  1.00  0.00     0.026 A 
HETATM   16  C8  UNL     1      28.063  -2.149  52.853  1.00  0.00     0.002 A 
HETATM   17  C9  UNL     1      29.335  -1.983  53.343  1.00  0.00     0.003 A 
HETATM   18  C10 UNL     1      29.775  -0.736  53.668  1.00  0.00     0.038 A 
HETATM   19  C11 UNL     1      28.994   0.401  53.530  1.00  0.00     0.087 A 
BRANCH  19  20
HETATM   20  O4  UNL     1      29.442   1.664  53.860  1.00  0.00    -0.359 OA
HETATM   21  H12 UNL     1      30.445   1.732  54.079  1.00  0.00     0.217 HD
ENDBRANCH  19  20
ENDBRANCH   1  14
TORSDOF 6
ENDMDL
MODEL 3
REMARK VINA RESULT:      -7.3      2.600      4.982
REMARK  6 active torsions:
REMARK  status: ('A' for Active; 'I' for Inactive)
REMARK    1  A    between atoms: O1_2  and  C2_3 
REMARK    2  A    between atoms: C3_4  and  C4_5 
REMARK    3  A    between atoms: C4_5  and  C5_6 
REMARK    4  A    between atoms: C5_6  and  S1_7 
REMARK    5  A    between atoms: S1_7  and  C6_10 
REMARK    6  A    between atoms: C11_15  and  O4_16 
ROOT
HETATM    1  S1  UNL     1      26.357   0.090  53.682  1.00  0.00     0.178 S 
HETATM    2  O2  UNL     1      27.193  -1.137  54.066  1.00  0.00    -0.223 OA
HETATM    3  O3  UNL     1      26.676   1.211  54.606  1.00  0.00    -0.223 OA
ENDROOT
BRANCH   1   4
HETATM    4  C5  UNL     1      26.637   0.458  52.015  1.00  0.00     0.150 C 
BRANCH   4   5
HETATM    5  C4  UNL     1      26.737   1.925  51.755  1.00  0.00     0.056 C 
BRANCH   5   6
HETATM    6  C3  UNL     1      25.702   2.556  50.942  1.00  0.00    -0.028 A 
HETATM    7  C2  UNL     1      25.957   3.420  49.941  1.00  0.00     0.056 A 
HETATM    8  C15 UNL     1      24.754   3.942  49.238  1.00  0.00     0.098 A 
HETATM    9  C13 UNL     1      23.682   3.203  49.949  1.00  0.00    -0.077 A 
HETATM   10  C12 UNL     1      24.251   2.463  50.884  1.00  0.00     0.012 A 
HETATM   11  C14 UNL     1      22.244   3.341  49.617  1.00  0.00     0.044 C 
BRANCH   7  12
HETATM   12  O1  UNL     1      27.241   3.833  49.547  1.00  0.00    -0.359 OA
HETATM   13  C1  UNL     1      27.376   4.988  48.732  1.00  0.00     0.209 C 
ENDBRANCH   7  12
ENDBRANCH   5   6
ENDBRANCH   4   5
ENDBRANCH   1   4
BRANCH   1  14
HETATM   14  C6  UNL     1      24.705  -0.427  54.008  1.00  0.00     0.092 A 
HETATM   15  C7  UNL     1      23.702  -0.283  53.062  1.00  0.00     0.026 A 
HETATM   16  C8  UNL     1      22.436  -0.706  53.380  1.00  0.00     0.002 A 
HETATM   17  C9  UNL     1      22.173  -1.260  54.610  1.00  0.00     0.003 A 
HETATM   18  C10 UNL     1      23.180  -1.389  55.519  1.00  0.00     0.038 A 
HETATM   19  C11 UNL     1      24.481  -0.984  55.269  1.00  0.00     0.087 A 
BRANCH  19  20
HETATM   20  O4  UNL     1      25.499  -1.117  56.192  1.00  0.00    -0.359 OA
HETATM   21  H12 UNL     1      26.359  -0.595  55.976  1.00  0.00     0.217 HD
ENDBRANCH  19  20
ENDBRANCH   1  14
TORSDOF 6
ENDMDL
MODEL 4
REMARK VINA RESULT:      -7.1      2.131      2.962
REMARK  6 active torsions:
REMARK  status: ('A' for Active; 'I' for Inactive)
REMARK    1  A    between atoms: O1_2  and  C2_3 
REMARK    2  A    between atoms: C3_4  and  C4_5 
REMARK    3  A    between atoms: C4_5  and  C5_6 
REMARK    4  A    between atoms: C5_6  and  S1_7 
REMARK    5  A    between atoms: S1_7  and  C6_10 
REMARK    6  A    between atoms: C11_15  and  O4_16 
ROOT
HETATM    1  S1  UNL     1      26.315   1.579  52.939  1.00  0.00     0.178 S 
HETATM    2  O2  UNL     1      26.748   2.441  51.747  1.00  0.00    -0.223 OA
HETATM    3  O3  UNL     1      26.257   2.424  54.162  1.00  0.00    -0.223 OA
ENDROOT
BRANCH   1   4
HETATM    4  C5  UNL     1      24.818   0.803  52.554  1.00  0.00     0.150 C 
BRANCH   4   5
HETATM    5  C4  UNL     1      23.711   1.773  52.302  1.00  0.00     0.056 C 
BRANCH   5   6
HETATM    6  C3  UNL     1      23.040   1.736  51.006  1.00  0.00    -0.028 A 
HETATM    7  C2  UNL     1      21.993   0.936  50.726  1.00  0.00     0.056 A 
HETATM    8  C15 UNL     1      21.458   1.061  49.344  1.00  0.00     0.098 A 
HETATM    9  C13 UNL     1      22.333   2.133  48.809  1.00  0.00    -0.077 A 
HETATM   10  C12 UNL     1      23.195   2.463  49.756  1.00  0.00     0.012 A 
HETATM   11  C14 UNL     1      22.209   2.671  47.435  1.00  0.00     0.044 C 
BRANCH   7  12
HETATM   12  O1  UNL     1      21.408   0.035  51.632  1.00  0.00    -0.359 OA
HETATM   13  C1  UNL     1      20.065   0.242  52.044  1.00  0.00     0.209 C 
ENDBRANCH   7  12
ENDBRANCH   5   6
ENDBRANCH   4   5
ENDBRANCH   1   4
BRANCH   1  14
HETATM   14  C6  UNL     1      27.652   0.447  53.126  1.00  0.00     0.092 A 
HETATM   15  C7  UNL     1      27.456  -0.924  53.051  1.00  0.00     0.026 A 
HETATM   16  C8  UNL     1      28.540  -1.750  53.206  1.00  0.00     0.002 A 
HETATM   17  C9  UNL     1      29.790  -1.227  53.430  1.00  0.00     0.003 A 
HETATM   18  C10 UNL     1      29.952   0.124  53.499  1.00  0.00     0.038 A 
HETATM   19  C11 UNL     1      28.905   1.020  53.353  1.00  0.00     0.087 A 
BRANCH  19  20
HETATM   20  O4  UNL     1      29.073   2.388  53.423  1.00  0.00    -0.359 OA
HETATM   21  H12 UNL     1      29.664   2.797  52.687  1.00  0.00     0.217 HD
ENDBRANCH  19  20
ENDBRANCH   1  14
TORSDOF 6
ENDMDL
MODEL 5
REMARK VINA RESULT:      -7.1      1.124      1.586
REMARK  6 active torsions:
REMARK  status: ('A' for Active; 'I' for Inactive)
REMARK    1  A    between atoms: O1_2  and  C2_3 
REMARK    2  A    between atoms: C3_4  and  C4_5 
REMARK    3  A    between atoms: C4_5  and  C5_6 
REMARK    4  A    between atoms: C5_6  and  S1_7 
REMARK    5  A    between atoms: S1_7  and  C6_10 
REMARK    6  A    between atoms: C11_15  and  O4_16 
ROOT
HETATM    1  S1  UNL     1      26.873   1.567  52.921  1.00  0.00     0.178 S 
HETATM    2  O2  UNL     1      27.808   2.431  52.067  1.00  0.00    -0.223 OA
HETATM    3  O3  UNL     1      26.782   2.143  54.289  1.00  0.00    -0.223 OA
ENDROOT
BRANCH   1   4
HETATM    4  C5  UNL     1      25.346   1.434  52.117  1.00  0.00     0.150 C 
BRANCH   4   5
HETATM    5  C4  UNL     1      24.218   1.167  53.058  1.00  0.00     0.056 C 
BRANCH   5   6
HETATM    6  C3  UNL     1      22.853   1.308  52.558  1.00  0.00    -0.028 A 
HETATM    7  C2  UNL     1      22.259   2.494  52.325  1.00  0.00     0.056 A 
HETATM    8  C15 UNL     1      20.865   2.409  51.813  1.00  0.00     0.098 A 
HETATM    9  C13 UNL     1      20.700   0.938  51.715  1.00  0.00    -0.077 A 
HETATM   10  C12 UNL     1      21.815   0.375  52.147  1.00  0.00     0.012 A 
HETATM   11  C14 UNL     1      19.461   0.291  51.224  1.00  0.00     0.044 C 
BRANCH   7  12
HETATM   12  O1  UNL     1      22.862   3.747  52.529  1.00  0.00    -0.359 OA
HETATM   13  C1  UNL     1      22.347   4.881  51.849  1.00  0.00     0.209 C 
ENDBRANCH   7  12
ENDBRANCH   5   6
ENDBRANCH   4   5
ENDBRANCH   1   4
BRANCH   1  14
HETATM   14  C6  UNL     1      27.729   0.032  53.034  1.00  0.00     0.092 A 
HETATM   15  C7  UNL     1      27.121  -1.164  52.686  1.00  0.00     0.026 A 
HETATM   16  C8  UNL     1      27.845  -2.324  52.798  1.00  0.00     0.002 A 
HETATM   17  C9  UNL     1      29.143  -2.296  53.246  1.00  0.00     0.003 A 
HETATM   18  C10 UNL     1      29.715  -1.106  53.580  1.00  0.00     0.038 A 
HETATM   19  C11 UNL     1      29.046   0.105  53.493  1.00  0.00     0.087 A 
BRANCH  19  20
HETATM   20  O4  UNL     1      29.628   1.310  53.833  1.00  0.00    -0.359 OA
HETATM   21  H12 UNL     1      28.987   2.114  53.867  1.00  0.00     0.217 HD
ENDBRANCH  19  20
ENDBRANCH   1  14
TORSDOF 6
ENDMDL
MODEL 6
REMARK VINA RESULT:      -6.9      2.346      4.010
REMARK  6 active torsions:
REMARK  status: ('A' for Active; 'I' for Inactive)
REMARK    1  A    between atoms: O1_2  and  C2_3 
REMARK    2  A    between atoms: C3_4  and  C4_5 
REMARK    3  A    between atoms: C4_5  and  C5_6 
REMARK    4  A    between atoms: C5_6  and  S1_7 
REMARK    5  A    between atoms: S1_7  and  C6_10 
REMARK    6  A    between atoms: C11_15  and  O4_16 
ROOT
HETATM    1  S1  UNL     1      26.842   1.488  52.911  1.00  0.00     0.178 S 
HETATM    2  O2  UNL     1      27.825   2.451  52.234  1.00  0.00    -0.223 OA
HETATM    3  O3  UNL     1      26.539   1.979  54.282  1.00  0.00    -0.223 OA
ENDROOT
BRANCH   1   4
HETATM    4  C5  UNL     1      25.445   1.317  51.906  1.00  0.00     0.150 C 
BRANCH   4   5
HETATM    5  C4  UNL     1      24.562   2.521  51.932  1.00  0.00     0.056 C 
BRANCH   5   6
HETATM    6  C3  UNL     1      24.920   3.660  51.092  1.00  0.00    -0.028 A 
HETATM    7  C2  UNL     1      24.299   4.853  51.142  1.00  0.00     0.056 A 
HETATM    8  C15 UNL     1      24.826   5.878  50.202  1.00  0.00     0.098 A 
HETATM    9  C13 UNL     1      25.941   5.124  49.576  1.00  0.00    -0.077 A 
HETATM   10  C12 UNL     1      25.945   3.906  50.089  1.00  0.00     0.012 A 
HETATM   11  C14 UNL     1      26.836   5.704  48.548  1.00  0.00     0.044 C 
BRANCH   7  12
HETATM   12  O1  UNL     1      23.229   5.164  51.999  1.00  0.00    -0.359 OA
HETATM   13  C1  UNL     1      21.983   5.548  51.437  1.00  0.00     0.209 C 
ENDBRANCH   7  12
ENDBRANCH   5   6
ENDBRANCH   4   5
ENDBRANCH   1   4
BRANCH   1  14
HETATM   14  C6  UNL     1      27.771  -0.001  53.061  1.00  0.00     0.092 A 
HETATM   15  C7  UNL     1      27.249  -1.223  52.669  1.00  0.00     0.026 A 
HETATM   16  C8  UNL     1      28.026  -2.345  52.814  1.00  0.00     0.002 A 
HETATM   17  C9  UNL     1      29.293  -2.254  53.335  1.00  0.00     0.003 A 
HETATM   18  C10 UNL     1      29.781  -1.038  53.712  1.00  0.00     0.038 A 
HETATM   19  C11 UNL     1      29.055   0.136  53.596  1.00  0.00     0.087 A 
BRANCH  19  20
HETATM   20  O4  UNL     1      29.551   1.366  53.978  1.00  0.00    -0.359 OA
HETATM   21  H12 UNL     1      28.868   2.136  53.978  1.00  0.00     0.217 HD
ENDBRANCH  19  20
ENDBRANCH   1  14
TORSDOF 6
ENDMDL
MODEL 7
REMARK VINA RESULT:      -6.7      2.753      5.338
REMARK  6 active torsions:
REMARK  status: ('A' for Active; 'I' for Inactive)
REMARK    1  A    between atoms: O1_2  and  C2_3 
REMARK    2  A    between atoms: C3_4  and  C4_5 
REMARK    3  A    between atoms: C4_5  and  C5_6 
REMARK    4  A    between atoms: C5_6  and  S1_7 
REMARK    5  A    between atoms: S1_7  and  C6_10 
REMARK    6  A    between atoms: C11_15  and  O4_16 
ROOT
HETATM    1  S1  UNL     1      25.826   0.187  53.954  1.00  0.00     0.178 S 
HETATM    2  O2  UNL     1      26.419  -0.965  53.135  1.00  0.00    -0.223 OA
HETATM    3  O3  UNL     1      26.447   0.201  55.305  1.00  0.00    -0.223 OA
ENDROOT
BRANCH   1   4
HETATM    4  C5  UNL     1      26.033   1.663  53.076  1.00  0.00     0.150 C 
BRANCH   4   5
HETATM    5  C4  UNL     1      26.093   1.455  51.598  1.00  0.00     0.056 C 
BRANCH   5   6
HETATM    6  C3  UNL     1      25.902   2.611  50.728  1.00  0.00    -0.028 A 
HETATM    7  C2  UNL     1      24.695   3.081  50.359  1.00  0.00     0.056 A 
HETATM    8  C15 UNL     1      24.728   4.274  49.472  1.00  0.00     0.098 A 
HETATM    9  C13 UNL     1      26.190   4.508  49.385  1.00  0.00    -0.077 A 
HETATM   10  C12 UNL     1      26.795   3.562  50.083  1.00  0.00     0.012 A 
HETATM   11  C14 UNL     1      26.790   5.622  48.614  1.00  0.00     0.044 C 
BRANCH   7  12
HETATM   12  O1  UNL     1      23.465   2.528  50.755  1.00  0.00    -0.359 OA
HETATM   13  C1  UNL     1      22.581   2.028  49.762  1.00  0.00     0.209 C 
ENDBRANCH   7  12
ENDBRANCH   5   6
ENDBRANCH   4   5
ENDBRANCH   1   4
BRANCH   1  14
HETATM   14  C6  UNL     1      24.136  -0.274  54.139  1.00  0.00     0.092 A 
HETATM   15  C7  UNL     1      23.142   0.282  53.349  1.00  0.00     0.026 A 
HETATM   16  C8  UNL     1      21.846  -0.122  53.545  1.00  0.00     0.002 A 
HETATM   17  C9  UNL     1      21.544  -1.057  54.504  1.00  0.00     0.003 A 
HETATM   18  C10 UNL     1      22.541  -1.587  55.266  1.00  0.00     0.038 A 
HETATM   19  C11 UNL     1      23.872  -1.228  55.125  1.00  0.00     0.087 A 
BRANCH  19  20
HETATM   20  O4  UNL     1      24.881  -1.767  55.898  1.00  0.00    -0.359 OA
HETATM   21  H12 UNL     1      24.973  -1.368  56.842  1.00  0.00     0.217 HD
ENDBRANCH  19  20
ENDBRANCH   1  14
TORSDOF 6
ENDMDL
MODEL 8
REMARK VINA RESULT:      -6.6      3.503      5.986
REMARK  6 active torsions:
REMARK  status: ('A' for Active; 'I' for Inactive)
REMARK    1  A    between atoms: O1_2  and  C2_3 
REMARK    2  A    between atoms: C3_4  and  C4_5 
REMARK    3  A    between atoms: C4_5  and  C5_6 
REMARK    4  A    between atoms: C5_6  and  S1_7 
REMARK    5  A    between atoms: S1_7  and  C6_10 
REMARK    6  A    between atoms: C11_15  and  O4_16 
ROOT
HETATM    1  S1  UNL     1      23.367   4.671  51.419  1.00  0.00     0.178 S 
HETATM    2  O2  UNL     1      22.114   5.476  51.055  1.00  0.00    -0.223 OA
HETATM    3  O3  UNL     1      23.670   4.857  52.863  1.00  0.00    -0.223 OA
ENDROOT
BRANCH   1   4
HETATM    4  C5  UNL     1      23.123   3.020  50.964  1.00  0.00     0.150 C 
BRANCH   4   5
HETATM    5  C4  UNL     1      24.146   2.101  51.546  1.00  0.00     0.056 C 
BRANCH   5   6
HETATM    6  C3  UNL     1      23.701   1.079  52.489  1.00  0.00    -0.028 A 
HETATM    7  C2  UNL     1      24.537   0.293  53.193  1.00  0.00     0.056 A 
HETATM    8  C15 UNL     1      23.873  -0.680  54.101  1.00  0.00     0.098 A 
HETATM    9  C13 UNL     1      22.448  -0.329  53.879  1.00  0.00    -0.077 A 
HETATM   10  C12 UNL     1      22.404   0.635  52.975  1.00  0.00     0.012 A 
HETATM   11  C14 UNL     1      21.328  -1.004  54.576  1.00  0.00     0.044 C 
BRANCH   7  12
HETATM   12  O1  UNL     1      25.940   0.346  53.119  1.00  0.00    -0.359 OA
HETATM   13  C1  UNL     1      26.671   0.880  54.213  1.00  0.00     0.209 C 
ENDBRANCH   7  12
ENDBRANCH   5   6
ENDBRANCH   4   5
ENDBRANCH   1   4
BRANCH   1  14
HETATM   14  C6  UNL     1      24.640   5.461  50.492  1.00  0.00     0.092 A 
HETATM   15  C7  UNL     1      25.396   4.767  49.561  1.00  0.00     0.026 A 
HETATM   16  C8  UNL     1      26.372   5.443  48.874  1.00  0.00     0.002 A 
HETATM   17  C9  UNL     1      26.592   6.779  49.107  1.00  0.00     0.003 A 
HETATM   18  C10 UNL     1      25.833   7.436  50.028  1.00  0.00     0.038 A 
HETATM   19  C11 UNL     1      24.831   6.819  50.760  1.00  0.00     0.087 A 
BRANCH  19  20
HETATM   20  O4  UNL     1      24.063   7.487  51.692  1.00  0.00    -0.359 OA
HETATM   21  H12 UNL     1      24.400   8.425  51.950  1.00  0.00     0.217 HD
ENDBRANCH  19  20
ENDBRANCH   1  14
TORSDOF 6
ENDMDL
MODEL 9
REMARK VINA RESULT:      -6.5      1.892      2.273
REMARK  6 active torsions:
REMARK  status: ('A' for Active; 'I' for Inactive)
REMARK    1  A    between atoms: O1_2  and  C2_3 
REMARK    2  A    between atoms: C3_4  and  C4_5 
REMARK    3  A    between atoms: C4_5  and  C5_6 
REMARK    4  A    between atoms: C5_6  and  S1_7 
REMARK    5  A    between atoms: S1_7  and  C6_10 
REMARK    6  A    between atoms: C11_15  and  O4_16 
ROOT
HETATM    1  S1  UNL     1      25.750   1.827  52.812  1.00  0.00     0.178 S 
HETATM    2  O2  UNL     1      26.239   2.771  51.708  1.00  0.00    -0.223 OA
HETATM    3  O3  UNL     1      25.482   2.611  54.048  1.00  0.00    -0.223 OA
ENDROOT
BRANCH   1   4
HETATM    4  C5  UNL     1      24.377   0.950  52.231  1.00  0.00     0.150 C 
BRANCH   4   5
HETATM    5  C4  UNL     1      23.373   1.826  51.556  1.00  0.00     0.056 C 
BRANCH   5   6
HETATM    6  C3  UNL     1      22.000   1.344  51.443  1.00  0.00    -0.028 A 
HETATM    7  C2  UNL     1      21.227   1.530  50.356  1.00  0.00     0.056 A 
HETATM    8  C15 UNL     1      19.860   0.953  50.449  1.00  0.00     0.098 A 
HETATM    9  C13 UNL     1      19.924   0.316  51.788  1.00  0.00    -0.077 A 
HETATM   10  C12 UNL     1      21.116   0.568  52.300  1.00  0.00     0.012 A 
HETATM   11  C14 UNL     1      18.797  -0.440  52.382  1.00  0.00     0.044 C 
BRANCH   7  12
HETATM   12  O1  UNL     1      21.630   2.208  49.193  1.00  0.00    -0.359 OA
HETATM   13  C1  UNL     1      20.738   2.282  48.091  1.00  0.00     0.209 C 
ENDBRANCH   7  12
ENDBRANCH   5   6
ENDBRANCH   4   5
ENDBRANCH   1   4
BRANCH   1  14
HETATM   14  C6  UNL     1      27.148   0.799  53.115  1.00  0.00     0.092 A 
HETATM   15  C7  UNL     1      27.133  -0.553  52.807  1.00  0.00     0.026 A 
HETATM   16  C8  UNL     1      28.256  -1.297  53.069  1.00  0.00     0.002 A 
HETATM   17  C9  UNL     1      29.368  -0.711  53.623  1.00  0.00     0.003 A 
HETATM   18  C10 UNL     1      29.354   0.620  53.915  1.00  0.00     0.038 A 
HETATM   19  C11 UNL     1      28.257   1.434  53.679  1.00  0.00     0.087 A 
BRANCH  19  20
HETATM   20  O4  UNL     1      28.245   2.782  53.975  1.00  0.00    -0.359 OA
HETATM   21  H12 UNL     1      27.392   3.123  54.440  1.00  0.00     0.217 HD
ENDBRANCH  19  20
ENDBRANCH   1  14
TORSDOF 6
ENDMDL
