MODEL 1
REMARK VINA RESULT:      -6.9      0.000      0.000
REMARK  6 active torsions:
REMARK  status: ('A' for Active; 'I' for Inactive)
REMARK    1  A    between atoms: C2_2  and  N1_3 
REMARK    2  A    between atoms: N1_3  and  C3_4 
REMARK    3  A    between atoms: N1_3  and  C5_7 
REMARK    4  A    between atoms: C3_4  and  C4_5 
REMARK    5  A    between atoms: C8_11  and  N2_12 
REMARK    6  A    between atoms: C14_18  and  O1_19 
ROOT
HETATM    1  C5  UNL     1      25.937  -0.040  52.634  1.00  0.00     0.029 C 
HETATM    2  C6  UNL     1      26.018   1.004  51.833  1.00  0.00     0.030 C 
HETATM    3  C7  UNL     1      25.015   1.992  51.467  1.00  0.00     0.016 C 
HETATM    4  P1  UNL     1      23.499   2.197  52.111  1.00  0.00    -0.031 P 
HETATM    5  C8  UNL     1      22.860   1.091  53.485  1.00  0.00     0.146 C 
HETATM    6  C15 UNL     1      23.663  -0.103  53.728  1.00  0.00     0.006 C 
HETATM    7  C16 UNL     1      24.831  -0.563  53.422  1.00  0.00     0.027 C 
ENDROOT
BRANCH   5   8
HETATM    8  N2  UNL     1      21.567   0.672  52.973  1.00  0.00    -0.348 N 
HETATM    9  C9  UNL     1      21.152   1.212  51.702  1.00  0.00     0.090 A 
HETATM   10  C10 UNL     1      19.983   0.866  51.190  1.00  0.00     0.023 A 
HETATM   11  C11 UNL     1      19.069  -0.055  51.856  1.00  0.00    -0.060 A 
HETATM   12  C12 UNL     1      17.764  -0.444  51.290  1.00  0.00     0.048 C 
HETATM   13  C13 UNL     1      19.502  -0.520  53.017  1.00  0.00     0.033 A 
HETATM   14  C14 UNL     1      20.760  -0.252  53.740  1.00  0.00     0.245 A 
BRANCH  14  15
HETATM   15  O1  UNL     1      20.480   0.393  54.959  1.00  0.00    -0.373 OA
HETATM   16  H20 UNL     1      19.729  -0.132  55.365  1.00  0.00     0.212 HD
ENDBRANCH  14  15
ENDBRANCH   5   8
BRANCH   1  17
HETATM   17  N1  UNL     1      27.097  -0.850  52.810  1.00  0.00    -0.380 N 
BRANCH  17  18
HETATM   18  C2  UNL     1      27.259  -2.270  52.632  1.00  0.00     0.118 C 
HETATM   19  C1  UNL     1      28.630  -2.774  52.997  1.00  0.00     0.026 C 
ENDBRANCH  17  18
BRANCH  17  20
HETATM   20  C3  UNL     1      28.350  -0.300  53.216  1.00  0.00     0.138 C 
BRANCH  20  21
HETATM   21  C4  UNL     1      28.315   0.587  54.414  1.00  0.00     0.134 C 
HETATM   22 CL1  UNL     1      28.728   2.255  53.885  1.00  0.00    -0.129 Cl
ENDBRANCH  20  21
ENDBRANCH  17  20
ENDBRANCH   1  17
TORSDOF 6
ENDMDL
MODEL 2
REMARK VINA RESULT:      -6.7      3.336      7.217
REMARK  6 active torsions:
REMARK  status: ('A' for Active; 'I' for Inactive)
REMARK    1  A    between atoms: C2_2  and  N1_3 
REMARK    2  A    between atoms: N1_3  and  C3_4 
REMARK    3  A    between atoms: N1_3  and  C5_7 
REMARK    4  A    between atoms: C3_4  and  C4_5 
REMARK    5  A    between atoms: C8_11  and  N2_12 
REMARK    6  A    between atoms: C14_18  and  O1_19 
ROOT
HETATM    1  C5  UNL     1      22.103   1.448  50.246  1.00  0.00     0.029 C 
HETATM    2  C6  UNL     1      21.476   0.527  50.950  1.00  0.00     0.030 C 
HETATM    3  C7  UNL     1      21.849  -0.125  52.195  1.00  0.00     0.016 C 
HETATM    4  P1  UNL     1      23.114   0.245  53.204  1.00  0.00    -0.031 P 
HETATM    5  C8  UNL     1      24.295   1.651  52.820  1.00  0.00     0.146 C 
HETATM    6  C15 UNL     1      24.188   2.182  51.464  1.00  0.00     0.006 C 
HETATM    7  C16 UNL     1      23.372   2.125  50.464  1.00  0.00     0.027 C 
ENDROOT
BRANCH   5   8
HETATM    8  N2  UNL     1      25.594   1.013  52.955  1.00  0.00    -0.348 N 
HETATM    9  C9  UNL     1      25.616  -0.422  53.093  1.00  0.00     0.090 A 
HETATM   10  C10 UNL     1      26.770  -1.053  53.223  1.00  0.00     0.023 A 
HETATM   11  C11 UNL     1      28.054  -0.361  53.234  1.00  0.00    -0.060 A 
HETATM   12  C12 UNL     1      29.344  -1.059  53.378  1.00  0.00     0.048 C 
HETATM   13  C13 UNL     1      27.973   0.954  53.102  1.00  0.00     0.033 A 
HETATM   14  C14 UNL     1      26.792   1.825  52.949  1.00  0.00     0.245 A 
BRANCH  14  15
HETATM   15  O1  UNL     1      26.687   2.685  54.057  1.00  0.00    -0.373 OA
HETATM   16  H20 UNL     1      27.515   3.249  54.028  1.00  0.00     0.212 HD
ENDBRANCH  14  15
ENDBRANCH   5   8
BRANCH   1  17
HETATM   17  N1  UNL     1      21.494   1.913  49.043  1.00  0.00    -0.380 N 
BRANCH  17  18
HETATM   18  C2  UNL     1      20.156   2.394  48.820  1.00  0.00     0.118 C 
HETATM   19  C1  UNL     1      19.737   3.483  49.773  1.00  0.00     0.026 C 
ENDBRANCH  17  18
BRANCH  17  20
HETATM   20  C3  UNL     1      22.205   1.966  47.805  1.00  0.00     0.138 C 
BRANCH  20  21
HETATM   21  C4  UNL     1      21.961   3.174  46.966  1.00  0.00     0.134 C 
HETATM   22 CL1  UNL     1      22.772   4.573  47.752  1.00  0.00    -0.129 Cl
ENDBRANCH  20  21
ENDBRANCH  17  20
ENDBRANCH   1  17
TORSDOF 6
ENDMDL
MODEL 3
REMARK VINA RESULT:      -6.7      3.453      7.234
REMARK  6 active torsions:
REMARK  status: ('A' for Active; 'I' for Inactive)
REMARK    1  A    between atoms: C2_2  and  N1_3 
REMARK    2  A    between atoms: N1_3  and  C3_4 
REMARK    3  A    between atoms: N1_3  and  C5_7 
REMARK    4  A    between atoms: C3_4  and  C4_5 
REMARK    5  A    between atoms: C8_11  and  N2_12 
REMARK    6  A    between atoms: C14_18  and  O1_19 
ROOT
HETATM    1  C5  UNL     1      22.859   2.186  50.285  1.00  0.00     0.029 C 
HETATM    2  C6  UNL     1      22.137   1.256  50.879  1.00  0.00     0.030 C 
HETATM    3  C7  UNL     1      22.407   0.470  52.072  1.00  0.00     0.016 C 
HETATM    4  P1  UNL     1      23.652   0.651  53.156  1.00  0.00    -0.031 P 
HETATM    5  C8  UNL     1      24.948   1.991  52.944  1.00  0.00     0.146 C 
HETATM    6  C15 UNL     1      24.937   2.647  51.641  1.00  0.00     0.006 C 
HETATM    7  C16 UNL     1      24.163   2.742  50.610  1.00  0.00     0.027 C 
ENDROOT
BRANCH   5   8
HETATM    8  N2  UNL     1      26.189   1.247  53.068  1.00  0.00    -0.348 N 
HETATM    9  C9  UNL     1      26.093  -0.187  53.187  1.00  0.00     0.090 A 
HETATM   10  C10 UNL     1      27.191  -0.912  53.305  1.00  0.00     0.023 A 
HETATM   11  C11 UNL     1      28.528  -0.329  53.321  1.00  0.00    -0.060 A 
HETATM   12  C12 UNL     1      29.756  -1.133  53.453  1.00  0.00     0.048 C 
HETATM   13  C13 UNL     1      28.555   0.990  53.208  1.00  0.00     0.033 A 
HETATM   14  C14 UNL     1      27.450   1.957  53.069  1.00  0.00     0.245 A 
BRANCH  14  15
HETATM   15  O1  UNL     1      27.419   2.808  54.189  1.00  0.00    -0.373 OA
HETATM   16  H20 UNL     1      27.172   3.708  53.824  1.00  0.00     0.212 HD
ENDBRANCH  14  15
ENDBRANCH   5   8
BRANCH   1  17
HETATM   17  N1  UNL     1      22.338   2.801  49.109  1.00  0.00    -0.380 N 
BRANCH  17  18
HETATM   18  C2  UNL     1      22.133   2.243  47.797  1.00  0.00     0.118 C 
HETATM   19  C1  UNL     1      21.970   3.280  46.717  1.00  0.00     0.026 C 
ENDBRANCH  17  18
BRANCH  17  20
HETATM   20  C3  UNL     1      21.914   4.164  49.091  1.00  0.00     0.138 C 
BRANCH  20  21
HETATM   21  C4  UNL     1      20.907   4.547  50.121  1.00  0.00     0.134 C 
HETATM   22 CL1  UNL     1      21.758   5.435  51.432  1.00  0.00    -0.129 Cl
ENDBRANCH  20  21
ENDBRANCH  17  20
ENDBRANCH   1  17
TORSDOF 6
ENDMDL
MODEL 4
REMARK VINA RESULT:      -6.6      1.531      1.624
REMARK  6 active torsions:
REMARK  status: ('A' for Active; 'I' for Inactive)
REMARK    1  A    between atoms: C2_2  and  N1_3 
REMARK    2  A    between atoms: N1_3  and  C3_4 
REMARK    3  A    between atoms: N1_3  and  C5_7 
REMARK    4  A    between atoms: C3_4  and  C4_5 
REMARK    5  A    between atoms: C8_11  and  N2_12 
REMARK    6  A    between atoms: C14_18  and  O1_19 
ROOT
HETATM    1  C5  UNL     1      25.936   0.882  52.595  1.00  0.00     0.029 C 
HETATM    2  C6  UNL     1      26.220   1.651  51.562  1.00  0.00     0.030 C 
HETATM    3  C7  UNL     1      25.368   2.534  50.782  1.00  0.00     0.016 C 
HETATM    4  P1  UNL     1      23.796   2.974  51.089  1.00  0.00    -0.031 P 
HETATM    5  C8  UNL     1      22.875   2.330  52.591  1.00  0.00     0.146 C 
HETATM    6  C15 UNL     1      23.531   1.223  53.279  1.00  0.00     0.006 C 
HETATM    7  C16 UNL     1      24.688   0.648  53.305  1.00  0.00     0.027 C 
ENDROOT
BRANCH   5   8
HETATM    8  N2  UNL     1      21.639   1.834  52.009  1.00  0.00    -0.348 N 
HETATM    9  C9  UNL     1      21.738   1.102  50.771  1.00  0.00     0.090 A 
HETATM   10  C10 UNL     1      20.644   0.631  50.197  1.00  0.00     0.023 A 
HETATM   11  C11 UNL     1      19.312   0.814  50.761  1.00  0.00    -0.060 A 
HETATM   12  C12 UNL     1      18.089   0.290  50.125  1.00  0.00     0.048 C 
HETATM   13  C13 UNL     1      19.283   1.491  51.898  1.00  0.00     0.033 A 
HETATM   14  C14 UNL     1      20.382   2.088  52.679  1.00  0.00     0.245 A 
BRANCH  14  15
HETATM   15  O1  UNL     1      20.235   3.487  52.716  1.00  0.00    -0.373 OA
HETATM   16  H20 UNL     1      19.926   3.691  53.647  1.00  0.00     0.212 HD
ENDBRANCH  14  15
ENDBRANCH   5   8
BRANCH   1  17
HETATM   17  N1  UNL     1      26.986   0.110  53.173  1.00  0.00    -0.380 N 
BRANCH  17  18
HETATM   18  C2  UNL     1      27.723  -0.996  52.618  1.00  0.00     0.118 C 
HETATM   19  C1  UNL     1      26.906  -2.251  52.459  1.00  0.00     0.026 C 
ENDBRANCH  17  18
BRANCH  17  20
HETATM   20  C3  UNL     1      27.480   0.366  54.488  1.00  0.00     0.138 C 
BRANCH  20  21
HETATM   21  C4  UNL     1      28.878   0.877  54.570  1.00  0.00     0.134 C 
HETATM   22 CL1  UNL     1      28.925   2.501  53.800  1.00  0.00    -0.129 Cl
ENDBRANCH  20  21
ENDBRANCH  17  20
ENDBRANCH   1  17
TORSDOF 6
ENDMDL
MODEL 5
REMARK VINA RESULT:      -6.3      3.296      3.542
REMARK  6 active torsions:
REMARK  status: ('A' for Active; 'I' for Inactive)
REMARK    1  A    between atoms: C2_2  and  N1_3 
REMARK    2  A    between atoms: N1_3  and  C3_4 
REMARK    3  A    between atoms: N1_3  and  C5_7 
REMARK    4  A    between atoms: C3_4  and  C4_5 
REMARK    5  A    between atoms: C8_11  and  N2_12 
REMARK    6  A    between atoms: C14_18  and  O1_19 
ROOT
HETATM    1  C5  UNL     1      26.244   1.888  52.470  1.00  0.00     0.029 C 
HETATM    2  C6  UNL     1      26.812   2.224  51.329  1.00  0.00     0.030 C 
HETATM    3  C7  UNL     1      26.360   3.122  50.278  1.00  0.00     0.016 C 
HETATM    4  P1  UNL     1      25.052   4.145  50.300  1.00  0.00    -0.031 P 
HETATM    5  C8  UNL     1      23.925   4.263  51.795  1.00  0.00     0.146 C 
HETATM    6  C15 UNL     1      24.116   3.208  52.785  1.00  0.00     0.006 C 
HETATM    7  C16 UNL     1      24.981   2.291  53.070  1.00  0.00     0.027 C 
ENDROOT
BRANCH   5   8
HETATM    8  N2  UNL     1      22.607   4.100  51.206  1.00  0.00    -0.348 N 
HETATM    9  C9  UNL     1      22.493   3.216  50.072  1.00  0.00     0.090 A 
HETATM   10  C10 UNL     1      21.318   3.034  49.496  1.00  0.00     0.023 A 
HETATM   11  C11 UNL     1      20.100   3.693  49.955  1.00  0.00    -0.060 A 
HETATM   12  C12 UNL     1      18.787   3.492  49.316  1.00  0.00     0.048 C 
HETATM   13  C13 UNL     1      20.264   4.490  50.999  1.00  0.00     0.033 A 
HETATM   14  C14 UNL     1      21.481   4.817  51.766  1.00  0.00     0.245 A 
BRANCH  14  15
HETATM   15  O1  UNL     1      21.780   6.184  51.626  1.00  0.00    -0.373 OA
HETATM   16  H20 UNL     1      21.477   6.423  50.700  1.00  0.00     0.212 HD
ENDBRANCH  14  15
ENDBRANCH   5   8
BRANCH   1  17
HETATM   17  N1  UNL     1      26.925   0.969  53.322  1.00  0.00    -0.380 N 
BRANCH  17  18
HETATM   18  C2  UNL     1      26.531  -0.347  53.751  1.00  0.00     0.118 C 
HETATM   19  C1  UNL     1      26.404  -1.339  52.624  1.00  0.00     0.026 C 
ENDBRANCH  17  18
BRANCH  17  20
HETATM   20  C3  UNL     1      28.196   1.271  53.898  1.00  0.00     0.138 C 
BRANCH  20  21
HETATM   21  C4  UNL     1      28.852   0.160  54.646  1.00  0.00     0.134 C 
HETATM   22 CL1  UNL     1      30.072  -0.597  53.565  1.00  0.00    -0.129 Cl
ENDBRANCH  20  21
ENDBRANCH  17  20
ENDBRANCH   1  17
TORSDOF 6
ENDMDL
MODEL 6
REMARK VINA RESULT:      -6.2      3.933      7.512
REMARK  6 active torsions:
REMARK  status: ('A' for Active; 'I' for Inactive)
REMARK    1  A    between atoms: C2_2  and  N1_3 
REMARK    2  A    between atoms: N1_3  and  C3_4 
REMARK    3  A    between atoms: N1_3  and  C5_7 
REMARK    4  A    between atoms: C3_4  and  C4_5 
REMARK    5  A    between atoms: C8_11  and  N2_12 
REMARK    6  A    between atoms: C14_18  and  O1_19 
ROOT
HETATM    1  C5  UNL     1      23.945   2.818  50.307  1.00  0.00     0.029 C 
HETATM    2  C6  UNL     1      23.069   2.428  51.213  1.00  0.00     0.030 C 
HETATM    3  C7  UNL     1      23.270   1.884  52.547  1.00  0.00     0.016 C 
HETATM    4  P1  UNL     1      24.690   1.765  53.400  1.00  0.00    -0.031 P 
HETATM    5  C8  UNL     1      26.317   2.362  52.683  1.00  0.00     0.146 C 
HETATM    6  C15 UNL     1      26.279   2.659  51.254  1.00  0.00     0.006 C 
HETATM    7  C16 UNL     1      25.400   2.838  50.324  1.00  0.00     0.027 C 
ENDROOT
BRANCH   5   8
HETATM    8  N2  UNL     1      27.186   1.217  52.885  1.00  0.00    -0.348 N 
HETATM    9  C9  UNL     1      26.623  -0.091  52.658  1.00  0.00     0.090 A 
HETATM   10  C10 UNL     1      27.369  -1.168  52.831  1.00  0.00     0.023 A 
HETATM   11  C11 UNL     1      28.765  -1.106  53.248  1.00  0.00    -0.060 A 
HETATM   12  C12 UNL     1      29.602  -2.304  53.442  1.00  0.00     0.048 C 
HETATM   13  C13 UNL     1      29.229   0.119  53.441  1.00  0.00     0.033 A 
HETATM   14  C14 UNL     1      28.557   1.425  53.301  1.00  0.00     0.245 A 
BRANCH  14  15
HETATM   15  O1  UNL     1      28.492   2.063  54.553  1.00  0.00    -0.373 OA
HETATM   16  H20 UNL     1      27.562   1.892  54.885  1.00  0.00     0.212 HD
ENDBRANCH  14  15
ENDBRANCH   5   8
BRANCH   1  17
HETATM   17  N1  UNL     1      23.458   3.318  49.065  1.00  0.00    -0.380 N 
BRANCH  17  18
HETATM   18  C2  UNL     1      23.510   4.655  48.531  1.00  0.00     0.118 C 
HETATM   19  C1  UNL     1      23.053   5.712  49.501  1.00  0.00     0.026 C 
ENDBRANCH  17  18
BRANCH  17  20
HETATM   20  C3  UNL     1      22.806   2.477  48.112  1.00  0.00     0.138 C 
BRANCH  20  21
HETATM   21  C4  UNL     1      21.370   2.783  47.849  1.00  0.00     0.134 C 
HETATM   22 CL1  UNL     1      20.371   1.654  48.828  1.00  0.00    -0.129 Cl
ENDBRANCH  20  21
ENDBRANCH  17  20
ENDBRANCH   1  17
TORSDOF 6
ENDMDL
MODEL 7
REMARK VINA RESULT:      -6.1      3.525      7.153
REMARK  6 active torsions:
REMARK  status: ('A' for Active; 'I' for Inactive)
REMARK    1  A    between atoms: C2_2  and  N1_3 
REMARK    2  A    between atoms: N1_3  and  C3_4 
REMARK    3  A    between atoms: N1_3  and  C5_7 
REMARK    4  A    between atoms: C3_4  and  C4_5 
REMARK    5  A    between atoms: C8_11  and  N2_12 
REMARK    6  A    between atoms: C14_18  and  O1_19 
ROOT
HETATM    1  C5  UNL     1      23.063   3.516  50.459  1.00  0.00     0.029 C 
HETATM    2  C6  UNL     1      22.231   2.493  50.455  1.00  0.00     0.030 C 
HETATM    3  C7  UNL     1      22.251   1.259  51.225  1.00  0.00     0.016 C 
HETATM    4  P1  UNL     1      23.249   0.858  52.490  1.00  0.00    -0.031 P 
HETATM    5  C8  UNL     1      24.565   2.041  53.112  1.00  0.00     0.146 C 
HETATM    6  C15 UNL     1      24.823   3.180  52.236  1.00  0.00     0.006 C 
HETATM    7  C16 UNL     1      24.275   3.766  51.223  1.00  0.00     0.027 C 
ENDROOT
BRANCH   5   8
HETATM    8  N2  UNL     1      25.753   1.205  53.130  1.00  0.00    -0.348 N 
HETATM    9  C9  UNL     1      25.559  -0.218  53.255  1.00  0.00     0.090 A 
HETATM   10  C10 UNL     1      26.606  -1.025  53.280  1.00  0.00     0.023 A 
HETATM   11  C11 UNL     1      27.979  -0.544  53.185  1.00  0.00    -0.060 A 
HETATM   12  C12 UNL     1      29.150  -1.439  53.212  1.00  0.00     0.048 C 
HETATM   13  C13 UNL     1      28.097   0.770  53.071  1.00  0.00     0.033 A 
HETATM   14  C14 UNL     1      27.060   1.818  53.026  1.00  0.00     0.245 A 
BRANCH  14  15
HETATM   15  O1  UNL     1      27.186   2.660  54.146  1.00  0.00    -0.373 OA
HETATM   16  H20 UNL     1      26.299   3.120  54.228  1.00  0.00     0.212 HD
ENDBRANCH  14  15
ENDBRANCH   5   8
BRANCH   1  17
HETATM   17  N1  UNL     1      22.794   4.610  49.585  1.00  0.00    -0.380 N 
BRANCH  17  18
HETATM   18  C2  UNL     1      21.663   5.500  49.552  1.00  0.00     0.118 C 
HETATM   19  C1  UNL     1      21.349   6.132  50.883  1.00  0.00     0.026 C 
ENDBRANCH  17  18
BRANCH  17  20
HETATM   20  C3  UNL     1      23.699   4.992  48.548  1.00  0.00     0.138 C 
BRANCH  20  21
HETATM   21  C4  UNL     1      24.351   6.323  48.711  1.00  0.00     0.134 C 
HETATM   22 CL1  UNL     1      26.132   6.083  48.651  1.00  0.00    -0.129 Cl
ENDBRANCH  20  21
ENDBRANCH  17  20
ENDBRANCH   1  17
TORSDOF 6
ENDMDL
MODEL 8
REMARK VINA RESULT:      -6.0      4.647      7.946
REMARK  6 active torsions:
REMARK  status: ('A' for Active; 'I' for Inactive)
REMARK    1  A    between atoms: C2_2  and  N1_3 
REMARK    2  A    between atoms: N1_3  and  C3_4 
REMARK    3  A    between atoms: N1_3  and  C5_7 
REMARK    4  A    between atoms: C3_4  and  C4_5 
REMARK    5  A    between atoms: C8_11  and  N2_12 
REMARK    6  A    between atoms: C14_18  and  O1_19 
ROOT
HETATM    1  C5  UNL     1      21.619   4.362  49.474  1.00  0.00     0.029 C 
HETATM    2  C6  UNL     1      21.233   4.789  50.660  1.00  0.00     0.030 C 
HETATM    3  C7  UNL     1      21.910   4.742  51.946  1.00  0.00     0.016 C 
HETATM    4  P1  UNL     1      23.477   4.290  52.261  1.00  0.00    -0.031 P 
HETATM    5  C8  UNL     1      24.634   3.746  50.889  1.00  0.00     0.146 C 
HETATM    6  C15 UNL     1      23.981   3.483  49.611  1.00  0.00     0.006 C 
HETATM    7  C16 UNL     1      22.841   3.702  49.042  1.00  0.00     0.027 C 
ENDROOT
BRANCH   5   8
HETATM    8  N2  UNL     1      25.155   2.490  51.399  1.00  0.00    -0.348 N 
HETATM    9  C9  UNL     1      24.280   1.700  52.231  1.00  0.00     0.090 A 
HETATM   10  C10 UNL     1      24.705   0.550  52.725  1.00  0.00     0.023 A 
HETATM   11  C11 UNL     1      26.040   0.022  52.468  1.00  0.00    -0.060 A 
HETATM   12  C12 UNL     1      26.517  -1.261  53.016  1.00  0.00     0.048 C 
HETATM   13  C13 UNL     1      26.797   0.788  51.698  1.00  0.00     0.033 A 
HETATM   14  C14 UNL     1      26.503   2.086  51.063  1.00  0.00     0.245 A 
BRANCH  14  15
HETATM   15  O1  UNL     1      27.351   3.077  51.592  1.00  0.00    -0.373 OA
HETATM   16  H20 UNL     1      27.271   3.851  50.960  1.00  0.00     0.212 HD
ENDBRANCH  14  15
ENDBRANCH   5   8
BRANCH   1  17
HETATM   17  N1  UNL     1      20.736   4.542  48.369  1.00  0.00    -0.380 N 
BRANCH  17  18
HETATM   18  C2  UNL     1      20.128   5.747  47.868  1.00  0.00     0.118 C 
HETATM   19  C1  UNL     1      21.106   6.869  47.636  1.00  0.00     0.026 C 
ENDBRANCH  17  18
BRANCH  17  20
HETATM   20  C3  UNL     1      20.316   3.451  47.549  1.00  0.00     0.138 C 
BRANCH  20  21
HETATM   21  C4  UNL     1      20.284   3.713  46.082  1.00  0.00     0.134 C 
HETATM   22 CL1  UNL     1      21.974   3.670  45.470  1.00  0.00    -0.129 Cl
ENDBRANCH  20  21
ENDBRANCH  17  20
ENDBRANCH   1  17
TORSDOF 6
ENDMDL
MODEL 9
REMARK VINA RESULT:      -6.0      4.426      6.564
REMARK  6 active torsions:
REMARK  status: ('A' for Active; 'I' for Inactive)
REMARK    1  A    between atoms: C2_2  and  N1_3 
REMARK    2  A    between atoms: N1_3  and  C3_4 
REMARK    3  A    between atoms: N1_3  and  C5_7 
REMARK    4  A    between atoms: C3_4  and  C4_5 
REMARK    5  A    between atoms: C8_11  and  N2_12 
REMARK    6  A    between atoms: C14_18  and  O1_19 
ROOT
HETATM    1  C5  UNL     1      26.130   2.113  52.857  1.00  0.00     0.029 C 
HETATM    2  C6  UNL     1      24.963   2.521  53.313  1.00  0.00     0.030 C 
HETATM    3  C7  UNL     1      23.938   3.341  52.685  1.00  0.00     0.016 C 
HETATM    4  P1  UNL     1      23.867   3.858  51.109  1.00  0.00    -0.031 P 
HETATM    5  C8  UNL     1      25.201   3.410  49.869  1.00  0.00     0.146 C 
HETATM    6  C15 UNL     1      26.409   2.838  50.456  1.00  0.00     0.006 C 
HETATM    7  C16 UNL     1      26.796   2.338  51.583  1.00  0.00     0.027 C 
ENDROOT
BRANCH   5   8
HETATM    8  N2  UNL     1      25.542   4.701  49.298  1.00  0.00    -0.348 N 
HETATM    9  C9  UNL     1      24.466   5.485  48.742  1.00  0.00     0.090 A 
HETATM   10  C10 UNL     1      24.721   6.666  48.207  1.00  0.00     0.023 A 
HETATM   11  C11 UNL     1      26.062   7.235  48.145  1.00  0.00    -0.060 A 
HETATM   12  C12 UNL     1      26.351   8.552  47.549  1.00  0.00     0.048 C 
HETATM   13  C13 UNL     1      27.009   6.473  48.670  1.00  0.00     0.033 A 
HETATM   14  C14 UNL     1      26.920   5.145  49.304  1.00  0.00     0.245 A 
BRANCH  14  15
HETATM   15  O1  UNL     1      27.636   4.204  48.541  1.00  0.00    -0.373 OA
HETATM   16  H20 UNL     1      26.994   3.450  48.389  1.00  0.00     0.212 HD
ENDBRANCH  14  15
ENDBRANCH   5   8
BRANCH   1  17
HETATM   17  N1  UNL     1      26.944   1.306  53.704  1.00  0.00    -0.380 N 
BRANCH  17  18
HETATM   18  C2  UNL     1      28.359   1.385  53.964  1.00  0.00     0.118 C 
HETATM   19  C1  UNL     1      28.910   0.184  54.687  1.00  0.00     0.026 C 
ENDBRANCH  17  18
BRANCH  17  20
HETATM   20  C3  UNL     1      26.405   0.228  54.470  1.00  0.00     0.138 C 
BRANCH  20  21
HETATM   21  C4  UNL     1      25.621  -0.785  53.707  1.00  0.00     0.134 C 
HETATM   22 CL1  UNL     1      26.675  -1.443  52.408  1.00  0.00    -0.129 Cl
ENDBRANCH  20  21
ENDBRANCH  17  20
ENDBRANCH   1  17
TORSDOF 6
ENDMDL
