MODEL 1
REMARK VINA RESULT:      -7.5      0.000      0.000
REMARK  4 active torsions:
REMARK  status: ('A' for Active; 'I' for Inactive)
REMARK    1  A    between atoms: C2_2  and  C4_4 
REMARK    2  A    between atoms: C6_6  and  N1_7 
REMARK    3  A    between atoms: C15_18  and  O2_19 
REMARK    4  A    between atoms: O2_19  and  C16_20 
ROOT
HETATM    1  C4  UNL     1      26.391   4.648  48.930  1.00  0.00     0.108 C 
HETATM    2  C5  UNL     1      25.186   5.494  48.975  1.00  0.00     0.054 C 
HETATM    3  C6  UNL     1      23.815   4.940  48.881  1.00  0.00     0.083 C 
HETATM    4  C10 UNL     1      23.406   3.931  49.863  1.00  0.00     0.051 C 
HETATM    5  C11 UNL     1      21.958   3.455  49.729  1.00  0.00     0.176 C 
HETATM    6  O1  UNL     1      21.709   2.483  50.741  1.00  0.00    -0.363 OA
HETATM    7  C12 UNL     1      20.561   1.799  50.956  1.00  0.00     0.131 C 
HETATM    8  C13 UNL     1      20.963   1.505  52.203  1.00  0.00     0.005 C 
HETATM    9  C14 UNL     1      22.199   1.868  52.898  1.00  0.00     0.115 C 
HETATM   10  C15 UNL     1      23.003   0.683  53.360  1.00  0.00     0.142 C 
HETATM   11  N2  UNL     1      24.202   0.320  53.023  1.00  0.00    -0.239 NA
HETATM   12  P2  UNL     1      25.249   1.165  51.877  1.00  0.00     0.042 P 
HETATM   13  C18 UNL     1      26.895   1.577  52.560  1.00  0.00     0.139 C 
HETATM   14  N3  UNL     1      27.396   2.572  51.875  1.00  0.00    -0.280 NA
HETATM   15  C19 UNL     1      26.494   3.017  50.811  1.00  0.00     0.265 C 
HETATM   16  N4  UNL     1      26.928   4.145  50.139  1.00  0.00    -0.397 N 
HETATM   17  H30 UNL     1      25.479   0.253  50.743  1.00  0.00     0.088 HD
HETATM   18  H34 UNL     1      27.476   4.834  50.719  1.00  0.00     0.155 HD
ENDROOT
BRANCH   3  19
HETATM   19  N1  UNL     1      22.896   6.025  48.917  1.00  0.00    -0.404 N 
HETATM   20  C7  UNL     1      22.788   6.855  50.009  1.00  0.00     0.122 C 
HETATM   21  C8  UNL     1      23.239   8.277  49.660  1.00  0.00     0.052 C 
HETATM   22  P1  UNL     1      22.719   8.324  47.869  1.00  0.00    -0.109 P 
HETATM   23  C9  UNL     1      22.358   6.500  47.733  1.00  0.00     0.148 C 
HETATM   24  H14 UNL     1      21.432   9.036  47.832  1.00  0.00     0.059 HD
ENDBRANCH   3  19
BRANCH   1  25
HETATM   25  C2  UNL     1      27.495   5.752  48.617  1.00  0.00    -0.071 C 
HETATM   26  C1  UNL     1      27.123   7.022  48.658  1.00  0.00     0.016 C 
HETATM   27  C3  UNL     1      28.904   5.421  48.285  1.00  0.00     0.044 C 
ENDBRANCH   1  25
BRANCH  10  28
HETATM   28  O2  UNL     1      22.328  -0.104  54.273  1.00  0.00    -0.338 OA
BRANCH  28  29
HETATM   29  C16 UNL     1      22.025  -1.438  53.929  1.00  0.00     0.172 C 
HETATM   30  C17 UNL     1      20.568  -1.725  54.177  1.00  0.00     0.034 C 
ENDBRANCH  28  29
ENDBRANCH  10  28
TORSDOF 4
ENDMDL
MODEL 2
REMARK VINA RESULT:      -7.5      2.629      8.008
REMARK  4 active torsions:
REMARK  status: ('A' for Active; 'I' for Inactive)
REMARK    1  A    between atoms: C2_2  and  C4_4 
REMARK    2  A    between atoms: C6_6  and  N1_7 
REMARK    3  A    between atoms: C15_18  and  O2_19 
REMARK    4  A    between atoms: O2_19  and  C16_20 
ROOT
HETATM    1  C4  UNL     1      22.615   0.070  52.866  1.00  0.00     0.108 C 
HETATM    2  C5  UNL     1      24.018   0.367  53.200  1.00  0.00     0.054 C 
HETATM    3  C6  UNL     1      24.961   0.971  52.230  1.00  0.00     0.083 C 
HETATM    4  C10 UNL     1      24.606   2.260  51.628  1.00  0.00     0.051 C 
HETATM    5  C11 UNL     1      25.661   2.839  50.682  1.00  0.00     0.176 C 
HETATM    6  O1  UNL     1      25.177   4.081  50.178  1.00  0.00    -0.363 OA
HETATM    7  C12 UNL     1      25.793   4.902  49.296  1.00  0.00     0.131 C 
HETATM    8  C13 UNL     1      25.004   5.918  49.682  1.00  0.00     0.005 C 
HETATM    9  C14 UNL     1      23.939   5.946  50.686  1.00  0.00     0.115 C 
HETATM   10  C15 UNL     1      22.598   6.342  50.132  1.00  0.00     0.142 C 
HETATM   11  N2  UNL     1      21.492   5.665  50.090  1.00  0.00    -0.239 NA
HETATM   12  P2  UNL     1      21.269   4.022  50.701  1.00  0.00     0.042 P 
HETATM   13  C18 UNL     1      19.878   3.865  51.879  1.00  0.00     0.139 C 
HETATM   14  N3  UNL     1      20.074   2.804  52.620  1.00  0.00    -0.280 NA
HETATM   15  C19 UNL     1      21.314   2.109  52.268  1.00  0.00     0.265 C 
HETATM   16  N4  UNL     1      21.624   1.053  53.104  1.00  0.00    -0.397 N 
HETATM   17  H30 UNL     1      20.940   3.169  49.546  1.00  0.00     0.088 HD
HETATM   18  H34 UNL     1      21.325   1.167  54.109  1.00  0.00     0.155 HD
ENDROOT
BRANCH   3  19
HETATM   19  N1  UNL     1      26.232   1.085  52.860  1.00  0.00    -0.404 N 
HETATM   20  C7  UNL     1      26.360   1.404  54.192  1.00  0.00     0.122 C 
HETATM   21  C8  UNL     1      26.954   0.232  54.980  1.00  0.00     0.052 C 
HETATM   22  P1  UNL     1      28.043  -0.499  53.653  1.00  0.00    -0.109 P 
HETATM   23  C9  UNL     1      27.342   0.520  52.256  1.00  0.00     0.148 C 
HETATM   24  H14 UNL     1      29.404  -0.008  53.922  1.00  0.00     0.059 HD
ENDBRANCH   3  19
BRANCH   1  25
HETATM   25  C2  UNL     1      22.253  -0.930  54.051  1.00  0.00    -0.071 C 
HETATM   26  C1  UNL     1      23.193  -1.191  54.945  1.00  0.00     0.016 C 
HETATM   27  C3  UNL     1      20.921  -1.573  54.194  1.00  0.00     0.044 C 
ENDBRANCH   1  25
BRANCH  10  28
HETATM   28  O2  UNL     1      22.587   7.618  49.602  1.00  0.00    -0.338 OA
BRANCH  28  29
HETATM   29  C16 UNL     1      21.356   8.292  49.475  1.00  0.00     0.172 C 
HETATM   30  C17 UNL     1      21.560   9.643  48.843  1.00  0.00     0.034 C 
ENDBRANCH  28  29
ENDBRANCH  10  28
TORSDOF 4
ENDMDL
MODEL 3
REMARK VINA RESULT:      -7.3      2.551      7.194
REMARK  4 active torsions:
REMARK  status: ('A' for Active; 'I' for Inactive)
REMARK    1  A    between atoms: C2_2  and  C4_4 
REMARK    2  A    between atoms: C6_6  and  N1_7 
REMARK    3  A    between atoms: C15_18  and  O2_19 
REMARK    4  A    between atoms: O2_19  and  C16_20 
ROOT
HETATM    1  C4  UNL     1      21.962   0.505  53.616  1.00  0.00     0.108 C 
HETATM    2  C5  UNL     1      20.957   0.908  52.618  1.00  0.00     0.054 C 
HETATM    3  C6  UNL     1      20.892   2.277  52.054  1.00  0.00     0.083 C 
HETATM    4  C10 UNL     1      22.084   2.807  51.385  1.00  0.00     0.051 C 
HETATM    5  C11 UNL     1      21.912   4.203  50.781  1.00  0.00     0.176 C 
HETATM    6  O1  UNL     1      23.144   4.582  50.172  1.00  0.00    -0.363 OA
HETATM    7  C12 UNL     1      23.422   5.750  49.546  1.00  0.00     0.131 C 
HETATM    8  C13 UNL     1      24.473   5.178  48.935  1.00  0.00     0.005 C 
HETATM    9  C14 UNL     1      24.977   3.807  49.028  1.00  0.00     0.115 C 
HETATM   10  C15 UNL     1      26.398   3.717  49.514  1.00  0.00     0.142 C 
HETATM   11  N2  UNL     1      26.869   3.148  50.580  1.00  0.00    -0.239 NA
HETATM   12  P2  UNL     1      25.913   2.293  51.796  1.00  0.00     0.042 P 
HETATM   13  C18 UNL     1      26.504   0.592  52.123  1.00  0.00     0.139 C 
HETATM   14  N3  UNL     1      25.518  -0.104  52.628  1.00  0.00    -0.280 NA
HETATM   15  C19 UNL     1      24.295   0.691  52.762  1.00  0.00     0.265 C 
HETATM   16  N4  UNL     1      23.195  -0.036  53.177  1.00  0.00    -0.397 N 
HETATM   17  H30 UNL     1      26.051   3.036  53.060  1.00  0.00     0.088 HD
HETATM   18  H34 UNL     1      23.165  -1.038  52.853  1.00  0.00     0.155 HD
ENDROOT
BRANCH   3  19
HETATM   19  N1  UNL     1      19.789   2.334  51.157  1.00  0.00    -0.404 N 
HETATM   20  C7  UNL     1      19.653   1.453  50.109  1.00  0.00     0.122 C 
HETATM   21  C8  UNL     1      18.431   0.551  50.309  1.00  0.00     0.052 C 
HETATM   22  P1  UNL     1      17.327   1.743  51.226  1.00  0.00    -0.109 P 
HETATM   23  C9  UNL     1      18.648   3.024  51.527  1.00  0.00     0.148 C 
HETATM   24  H14 UNL     1      16.394   2.291  50.228  1.00  0.00     0.059 HD
ENDBRANCH   3  19
BRANCH   1  25
HETATM   25  C2  UNL     1      21.292  -0.832  54.162  1.00  0.00    -0.071 C 
HETATM   26  C1  UNL     1      22.022  -1.610  54.945  1.00  0.00     0.016 C 
HETATM   27  C3  UNL     1      19.901  -1.238  53.833  1.00  0.00     0.044 C 
ENDBRANCH   1  25
BRANCH  10  28
HETATM   28  O2  UNL     1      27.297   4.345  48.673  1.00  0.00    -0.338 OA
BRANCH  28  29
HETATM   29  C16 UNL     1      27.454   5.742  48.767  1.00  0.00     0.172 C 
HETATM   30  C17 UNL     1      28.741   6.170  48.113  1.00  0.00     0.034 C 
ENDBRANCH  28  29
ENDBRANCH  10  28
TORSDOF 4
ENDMDL
MODEL 4
REMARK VINA RESULT:      -7.2      2.618      8.135
REMARK  4 active torsions:
REMARK  status: ('A' for Active; 'I' for Inactive)
REMARK    1  A    between atoms: C2_2  and  C4_4 
REMARK    2  A    between atoms: C6_6  and  N1_7 
REMARK    3  A    between atoms: C15_18  and  O2_19 
REMARK    4  A    between atoms: O2_19  and  C16_20 
ROOT
HETATM    1  C4  UNL     1      22.488   1.622  51.899  1.00  0.00     0.108 C 
HETATM    2  C5  UNL     1      23.872   1.468  52.377  1.00  0.00     0.054 C 
HETATM    3  C6  UNL     1      25.050   1.683  51.503  1.00  0.00     0.083 C 
HETATM    4  C10 UNL     1      25.194   2.983  50.842  1.00  0.00     0.051 C 
HETATM    5  C11 UNL     1      26.467   3.139  50.005  1.00  0.00     0.176 C 
HETATM    6  O1  UNL     1      26.466   4.442  49.428  1.00  0.00    -0.363 OA
HETATM    7  C12 UNL     1      27.399   4.972  48.602  1.00  0.00     0.131 C 
HETATM    8  C13 UNL     1      26.951   6.208  48.881  1.00  0.00     0.005 C 
HETATM    9  C14 UNL     1      25.863   6.632  49.763  1.00  0.00     0.115 C 
HETATM   10  C15 UNL     1      24.784   7.410  49.059  1.00  0.00     0.142 C 
HETATM   11  N2  UNL     1      23.527   7.124  48.911  1.00  0.00    -0.239 NA
HETATM   12  P2  UNL     1      22.722   5.676  49.525  1.00  0.00     0.042 P 
HETATM   13  C18 UNL     1      21.250   6.039  50.549  1.00  0.00     0.139 C 
HETATM   14  N3  UNL     1      21.017   5.013  51.326  1.00  0.00    -0.280 NA
HETATM   15  C19 UNL     1      21.989   3.937  51.124  1.00  0.00     0.265 C 
HETATM   16  N4  UNL     1      21.855   2.884  52.009  1.00  0.00    -0.397 N 
HETATM   17  H30 UNL     1      22.245   4.914  48.357  1.00  0.00     0.088 HD
HETATM   18  H34 UNL     1      21.514   3.142  52.973  1.00  0.00     0.155 HD
ENDROOT
BRANCH   3  19
HETATM   19  N1  UNL     1      26.221   1.414  52.265  1.00  0.00    -0.404 N 
HETATM   20  C7  UNL     1      26.405   1.930  53.527  1.00  0.00     0.122 C 
HETATM   21  C8  UNL     1      26.420   0.813  54.576  1.00  0.00     0.052 C 
HETATM   22  P1  UNL     1      27.171  -0.551  53.549  1.00  0.00    -0.109 P 
HETATM   23  C9  UNL     1      27.025   0.342  51.919  1.00  0.00     0.148 C 
HETATM   24  H14 UNL     1      28.599  -0.596  53.906  1.00  0.00     0.059 HD
ENDBRANCH   3  19
BRANCH   1  25
HETATM   25  C2  UNL     1      21.707   0.858  53.057  1.00  0.00    -0.071 C 
HETATM   26  C1  UNL     1      20.440   1.180  53.260  1.00  0.00     0.016 C 
HETATM   27  C3  UNL     1      22.332  -0.188  53.906  1.00  0.00     0.044 C 
ENDBRANCH   1  25
BRANCH  10  28
HETATM   28  O2  UNL     1      25.242   8.590  48.507  1.00  0.00    -0.338 OA
BRANCH  28  29
HETATM   29  C16 UNL     1      24.937   8.874  47.160  1.00  0.00     0.172 C 
HETATM   30  C17 UNL     1      26.178   8.785  46.311  1.00  0.00     0.034 C 
ENDBRANCH  28  29
ENDBRANCH  10  28
TORSDOF 4
ENDMDL
MODEL 5
REMARK VINA RESULT:      -7.2      2.680      4.606
REMARK  4 active torsions:
REMARK  status: ('A' for Active; 'I' for Inactive)
REMARK    1  A    between atoms: C2_2  and  C4_4 
REMARK    2  A    between atoms: C6_6  and  N1_7 
REMARK    3  A    between atoms: C15_18  and  O2_19 
REMARK    4  A    between atoms: O2_19  and  C16_20 
ROOT
HETATM    1  C4  UNL     1      26.430   0.627  52.908  1.00  0.00     0.108 C 
HETATM    2  C5  UNL     1      26.030   1.913  52.313  1.00  0.00     0.054 C 
HETATM    3  C6  UNL     1      24.967   2.023  51.286  1.00  0.00     0.083 C 
HETATM    4  C10 UNL     1      23.632   1.513  51.614  1.00  0.00     0.051 C 
HETATM    5  C11 UNL     1      22.581   1.719  50.521  1.00  0.00     0.176 C 
HETATM    6  O1  UNL     1      21.345   1.176  50.979  1.00  0.00    -0.363 OA
HETATM    7  C12 UNL     1      20.171   1.132  50.308  1.00  0.00     0.131 C 
HETATM    8  C13 UNL     1      19.512   0.936  51.462  1.00  0.00     0.005 C 
HETATM    9  C14 UNL     1      20.028   0.834  52.827  1.00  0.00     0.115 C 
HETATM   10  C15 UNL     1      19.702  -0.471  53.501  1.00  0.00     0.142 C 
HETATM   11  N2  UNL     1      20.503  -1.389  53.947  1.00  0.00    -0.239 NA
HETATM   12  P2  UNL     1      22.268  -1.339  53.874  1.00  0.00     0.042 P 
HETATM   13  C18 UNL     1      23.073  -1.583  55.498  1.00  0.00     0.139 C 
HETATM   14  N3  UNL     1      24.275  -1.069  55.452  1.00  0.00    -0.280 NA
HETATM   15  C19 UNL     1      24.572  -0.482  54.144  1.00  0.00     0.265 C 
HETATM   16  N4  UNL     1      25.785   0.180  54.087  1.00  0.00    -0.397 N 
HETATM   17  H30 UNL     1      22.700  -2.457  53.017  1.00  0.00     0.088 HD
HETATM   18  H34 UNL     1      26.087   0.649  54.981  1.00  0.00     0.155 HD
ENDROOT
BRANCH   3  19
HETATM   19  N1  UNL     1      24.863   3.389  50.902  1.00  0.00    -0.404 N 
HETATM   20  C7  UNL     1      25.182   3.817  49.634  1.00  0.00     0.122 C 
HETATM   21  C8  UNL     1      23.938   4.335  48.904  1.00  0.00     0.052 C 
HETATM   22  P1  UNL     1      22.996   5.014  50.364  1.00  0.00    -0.109 P 
HETATM   23  C9  UNL     1      24.095   4.253  51.664  1.00  0.00     0.148 C 
HETATM   24  H14 UNL     1      23.238   6.466  50.371  1.00  0.00     0.059 HD
ENDBRANCH   3  19
BRANCH   1  25
HETATM   25  C2  UNL     1      27.832   1.038  53.542  1.00  0.00    -0.071 C 
HETATM   26  C1  UNL     1      28.221   2.296  53.411  1.00  0.00     0.016 C 
HETATM   27  C3  UNL     1      28.709   0.082  54.265  1.00  0.00     0.044 C 
ENDBRANCH   1  25
BRANCH  10  28
HETATM   28  O2  UNL     1      18.344  -0.682  53.642  1.00  0.00    -0.338 OA
BRANCH  28  29
HETATM   29  C16 UNL     1      17.811  -1.940  53.295  1.00  0.00     0.172 C 
HETATM   30  C17 UNL     1      16.541  -1.771  52.504  1.00  0.00     0.034 C 
ENDBRANCH  28  29
ENDBRANCH  10  28
TORSDOF 4
ENDMDL
MODEL 6
REMARK VINA RESULT:      -7.1      2.782      5.736
REMARK  4 active torsions:
REMARK  status: ('A' for Active; 'I' for Inactive)
REMARK    1  A    between atoms: C2_2  and  C4_4 
REMARK    2  A    between atoms: C6_6  and  N1_7 
REMARK    3  A    between atoms: C15_18  and  O2_19 
REMARK    4  A    between atoms: O2_19  and  C16_20 
ROOT
HETATM    1  C4  UNL     1      24.841   3.742  51.054  1.00  0.00     0.108 C 
HETATM    2  C5  UNL     1      25.830   2.673  51.269  1.00  0.00     0.054 C 
HETATM    3  C6  UNL     1      25.874   1.860  52.508  1.00  0.00     0.083 C 
HETATM    4  C10 UNL     1      24.669   1.119  52.893  1.00  0.00     0.051 C 
HETATM    5  C11 UNL     1      24.819   0.261  54.152  1.00  0.00     0.176 C 
HETATM    6  O1  UNL     1      23.577  -0.393  54.399  1.00  0.00    -0.363 OA
HETATM    7  C12 UNL     1      23.279  -1.223  55.426  1.00  0.00     0.131 C 
HETATM    8  C13 UNL     1      22.227  -1.702  54.741  1.00  0.00     0.005 C 
HETATM    9  C14 UNL     1      21.739  -1.346  53.408  1.00  0.00     0.115 C 
HETATM   10  C15 UNL     1      20.325  -0.833  53.399  1.00  0.00     0.142 C 
HETATM   11  N2  UNL     1      19.872   0.328  53.037  1.00  0.00    -0.239 NA
HETATM   12  P2  UNL     1      20.850   1.670  52.434  1.00  0.00     0.042 P 
HETATM   13  C18 UNL     1      20.281   2.319  50.821  1.00  0.00     0.139 C 
HETATM   14  N3  UNL     1      21.280   2.933  50.241  1.00  0.00    -0.280 NA
HETATM   15  C19 UNL     1      22.496   2.899  51.056  1.00  0.00     0.265 C 
HETATM   16  N4  UNL     1      23.609   3.429  50.430  1.00  0.00    -0.397 N 
HETATM   17  H30 UNL     1      20.719   2.773  53.402  1.00  0.00     0.088 HD
HETATM   18  H34 UNL     1      23.645   3.299  49.384  1.00  0.00     0.155 HD
ENDROOT
BRANCH   3  19
HETATM   19  N1  UNL     1      26.966   0.954  52.404  1.00  0.00    -0.404 N 
HETATM   20  C7  UNL     1      28.114   1.106  53.148  1.00  0.00     0.122 C 
HETATM   21  C8  UNL     1      28.275  -0.047  54.144  1.00  0.00     0.052 C 
HETATM   22  P1  UNL     1      27.474  -1.411  53.155  1.00  0.00    -0.109 P 
HETATM   23  C9  UNL     1      26.762  -0.294  51.842  1.00  0.00     0.148 C 
HETATM   24  H14 UNL     1      28.573  -2.174  52.542  1.00  0.00     0.059 HD
ENDBRANCH   3  19
BRANCH   1  25
HETATM   25  C2  UNL     1      25.531   4.521  49.849  1.00  0.00    -0.071 C 
HETATM   26  C1  UNL     1      24.895   5.570  49.351  1.00  0.00     0.016 C 
HETATM   27  C3  UNL     1      26.839   4.126  49.268  1.00  0.00     0.044 C 
ENDBRANCH   1  25
BRANCH  10  28
HETATM   28  O2  UNL     1      19.410  -1.765  53.849  1.00  0.00    -0.338 OA
BRANCH  28  29
HETATM   29  C16 UNL     1      18.057  -1.623  53.481  1.00  0.00     0.172 C 
HETATM   30  C17 UNL     1      17.379  -2.967  53.445  1.00  0.00     0.034 C 
ENDBRANCH  28  29
ENDBRANCH  10  28
TORSDOF 4
ENDMDL
MODEL 7
REMARK VINA RESULT:      -7.1      3.155      6.378
REMARK  4 active torsions:
REMARK  status: ('A' for Active; 'I' for Inactive)
REMARK    1  A    between atoms: C2_2  and  C4_4 
REMARK    2  A    between atoms: C6_6  and  N1_7 
REMARK    3  A    between atoms: C15_18  and  O2_19 
REMARK    4  A    between atoms: O2_19  and  C16_20 
ROOT
HETATM    1  C4  UNL     1      20.084   1.736  52.118  1.00  0.00     0.108 C 
HETATM    2  C5  UNL     1      20.664   2.173  50.837  1.00  0.00     0.054 C 
HETATM    3  C6  UNL     1      21.977   2.853  50.743  1.00  0.00     0.083 C 
HETATM    4  C10 UNL     1      23.153   2.168  51.288  1.00  0.00     0.051 C 
HETATM    5  C11 UNL     1      24.476   2.914  51.097  1.00  0.00     0.176 C 
HETATM    6  O1  UNL     1      25.518   2.132  51.675  1.00  0.00    -0.363 OA
HETATM    7  C12 UNL     1      26.834   2.443  51.741  1.00  0.00     0.131 C 
HETATM    8  C13 UNL     1      27.133   1.153  51.964  1.00  0.00     0.005 C 
HETATM    9  C14 UNL     1      26.248  -0.008  52.066  1.00  0.00     0.115 C 
HETATM   10  C15 UNL     1      26.342  -0.725  53.386  1.00  0.00     0.142 C 
HETATM   11  N2  UNL     1      25.428  -0.911  54.288  1.00  0.00    -0.239 NA
HETATM   12  P2  UNL     1      23.759  -0.340  54.194  1.00  0.00     0.042 P 
HETATM   13  C18 UNL     1      22.520  -1.665  54.434  1.00  0.00     0.139 C 
HETATM   14  N3  UNL     1      21.392  -1.287  53.891  1.00  0.00    -0.280 NA
HETATM   15  C19 UNL     1      21.491   0.042  53.284  1.00  0.00     0.265 C 
HETATM   16  N4  UNL     1      20.359   0.431  52.593  1.00  0.00    -0.397 N 
HETATM   17  H30 UNL     1      23.565   0.622  55.293  1.00  0.00     0.088 HD
HETATM   18  H34 UNL     1      19.824  -0.348  52.125  1.00  0.00     0.155 HD
ENDROOT
BRANCH   3  19
HETATM   19  N1  UNL     1      22.214   3.170  49.376  1.00  0.00    -0.404 N 
HETATM   20  C7  UNL     1      22.035   2.248  48.371  1.00  0.00     0.122 C 
HETATM   21  C8  UNL     1      20.882   2.662  47.450  1.00  0.00     0.052 C 
HETATM   22  P1  UNL     1      21.054   4.516  47.571  1.00  0.00    -0.109 P 
HETATM   23  C9  UNL     1      22.268   4.497  48.986  1.00  0.00     0.148 C 
HETATM   24  H14 UNL     1      21.784   4.940  46.365  1.00  0.00     0.059 HD
ENDBRANCH   3  19
BRANCH   1  25
HETATM   25  C2  UNL     1      18.569   1.520  51.680  1.00  0.00    -0.071 C 
HETATM   26  C1  UNL     1      18.155   0.278  51.490  1.00  0.00     0.016 C 
HETATM   27  C3  UNL     1      17.614   2.640  51.477  1.00  0.00     0.044 C 
ENDBRANCH   1  25
BRANCH  10  28
HETATM   28  O2  UNL     1      27.599  -1.244  53.631  1.00  0.00    -0.338 OA
BRANCH  28  29
HETATM   29  C16 UNL     1      28.547  -0.441  54.297  1.00  0.00     0.172 C 
HETATM   30  C17 UNL     1      29.912  -0.628  53.689  1.00  0.00     0.034 C 
ENDBRANCH  28  29
ENDBRANCH  10  28
TORSDOF 4
ENDMDL
MODEL 8
REMARK VINA RESULT:      -6.8      2.347      6.966
REMARK  4 active torsions:
REMARK  status: ('A' for Active; 'I' for Inactive)
REMARK    1  A    between atoms: C2_2  and  C4_4 
REMARK    2  A    between atoms: C6_6  and  N1_7 
REMARK    3  A    between atoms: C15_18  and  O2_19 
REMARK    4  A    between atoms: O2_19  and  C16_20 
ROOT
HETATM    1  C4  UNL     1      25.787   1.624  52.954  1.00  0.00     0.108 C 
HETATM    2  C5  UNL     1      24.460   0.987  52.948  1.00  0.00     0.054 C 
HETATM    3  C6  UNL     1      23.199   1.765  52.978  1.00  0.00     0.083 C 
HETATM    4  C10 UNL     1      22.968   2.752  51.919  1.00  0.00     0.051 C 
HETATM    5  C11 UNL     1      21.617   3.468  51.992  1.00  0.00     0.176 C 
HETATM    6  O1  UNL     1      21.539   4.390  50.908  1.00  0.00    -0.363 OA
HETATM    7  C12 UNL     1      20.521   5.236  50.625  1.00  0.00     0.131 C 
HETATM    8  C13 UNL     1      20.974   5.368  49.367  1.00  0.00     0.005 C 
HETATM    9  C14 UNL     1      22.137   4.757  48.723  1.00  0.00     0.115 C 
HETATM   10  C15 UNL     1      23.128   5.757  48.192  1.00  0.00     0.142 C 
HETATM   11  N2  UNL     1      24.369   5.941  48.524  1.00  0.00    -0.239 NA
HETATM   12  P2  UNL     1      25.255   5.022  49.746  1.00  0.00     0.042 P 
HETATM   13  C18 UNL     1      26.814   4.296  49.124  1.00  0.00     0.139 C 
HETATM   14  N3  UNL     1      27.140   3.285  49.888  1.00  0.00    -0.280 NA
HETATM   15  C19 UNL     1      26.170   3.074  50.964  1.00  0.00     0.265 C 
HETATM   16  N4  UNL     1      26.408   1.943  51.722  1.00  0.00    -0.397 N 
HETATM   17  H30 UNL     1      25.626   5.964  50.815  1.00  0.00     0.088 HD
HETATM   18  H34 UNL     1      26.838   1.131  51.203  1.00  0.00     0.155 HD
ENDROOT
BRANCH   3  19
HETATM   19  N1  UNL     1      22.113   0.846  53.003  1.00  0.00    -0.404 N 
HETATM   20  C7  UNL     1      22.042  -0.224  52.140  1.00  0.00     0.122 C 
HETATM   21  C8  UNL     1      22.151  -1.548  52.904  1.00  0.00     0.052 C 
HETATM   22  P1  UNL     1      21.332  -1.041  54.501  1.00  0.00    -0.109 P 
HETATM   23  C9  UNL     1      21.300   0.784  54.122  1.00  0.00     0.148 C 
HETATM   24  H14 UNL     1      19.947  -1.535  54.427  1.00  0.00     0.059 HD
ENDBRANCH   3  19
BRANCH   1  25
HETATM   25  C2  UNL     1      26.691   0.380  53.366  1.00  0.00    -0.071 C 
HETATM   26  C1  UNL     1      26.461  -0.774  52.762  1.00  0.00     0.016 C 
HETATM   27  C3  UNL     1      27.768   0.460  54.386  1.00  0.00     0.044 C 
ENDBRANCH   1  25
BRANCH  10  28
HETATM   28  O2  UNL     1      22.599   6.574  47.213  1.00  0.00    -0.338 OA
BRANCH  28  29
HETATM   29  C16 UNL     1      22.312   6.023  45.948  1.00  0.00     0.172 C 
HETATM   30  C17 UNL     1      22.776   6.949  44.854  1.00  0.00     0.034 C 
ENDBRANCH  28  29
ENDBRANCH  10  28
TORSDOF 4
ENDMDL
MODEL 9
REMARK VINA RESULT:      -6.8      2.883      7.097
REMARK  4 active torsions:
REMARK  status: ('A' for Active; 'I' for Inactive)
REMARK    1  A    between atoms: C2_2  and  C4_4 
REMARK    2  A    between atoms: C6_6  and  N1_7 
REMARK    3  A    between atoms: C15_18  and  O2_19 
REMARK    4  A    between atoms: O2_19  and  C16_20 
ROOT
HETATM    1  C4  UNL     1      24.982   2.330  52.024  1.00  0.00     0.108 C 
HETATM    2  C5  UNL     1      23.545   2.127  51.775  1.00  0.00     0.054 C 
HETATM    3  C6  UNL     1      22.573   3.244  51.745  1.00  0.00     0.083 C 
HETATM    4  C10 UNL     1      22.802   4.338  50.796  1.00  0.00     0.051 C 
HETATM    5  C11 UNL     1      21.720   5.420  50.791  1.00  0.00     0.176 C 
HETATM    6  O1  UNL     1      22.079   6.408  49.828  1.00  0.00    -0.363 OA
HETATM    7  C12 UNL     1      21.404   7.543  49.529  1.00  0.00     0.131 C 
HETATM    8  C13 UNL     1      22.064   7.633  48.362  1.00  0.00     0.005 C 
HETATM    9  C14 UNL     1      23.087   6.754  47.795  1.00  0.00     0.115 C 
HETATM   10  C15 UNL     1      24.394   7.446  47.518  1.00  0.00     0.142 C 
HETATM   11  N2  UNL     1      25.568   7.219  48.020  1.00  0.00    -0.239 NA
HETATM   12  P2  UNL     1      25.952   5.979  49.219  1.00  0.00     0.042 P 
HETATM   13  C18 UNL     1      27.313   4.868  48.708  1.00  0.00     0.139 C 
HETATM   14  N3  UNL     1      27.212   3.748  49.376  1.00  0.00    -0.280 NA
HETATM   15  C19 UNL     1      26.068   3.753  50.290  1.00  0.00     0.265 C 
HETATM   16  N4  UNL     1      25.851   2.545  50.926  1.00  0.00    -0.397 N 
HETATM   17  H30 UNL     1      26.409   6.674  50.434  1.00  0.00     0.088 HD
HETATM   18  H34 UNL     1      26.103   1.687  50.367  1.00  0.00     0.155 HD
ENDROOT
BRANCH   3  19
HETATM   19  N1  UNL     1      21.278   2.698  51.523  1.00  0.00    -0.404 N 
HETATM   20  C7  UNL     1      20.958   2.027  50.365  1.00  0.00     0.122 C 
HETATM   21  C8  UNL     1      20.669   0.549  50.653  1.00  0.00     0.052 C 
HETATM   22  P1  UNL     1      19.946   0.715  52.365  1.00  0.00    -0.109 P 
HETATM   23  C9  UNL     1      20.430   2.501  52.599  1.00  0.00     0.148 C 
HETATM   24  H14 UNL     1      18.484   0.667  52.201  1.00  0.00     0.059 HD
ENDBRANCH   3  19
BRANCH   1  25
HETATM   25  C2  UNL     1      25.415   0.841  52.386  1.00  0.00    -0.071 C 
HETATM   26  C1  UNL     1      24.565   0.106  53.085  1.00  0.00     0.016 C 
HETATM   27  C3  UNL     1      26.716   0.250  51.979  1.00  0.00     0.044 C 
ENDBRANCH   1  25
BRANCH  10  28
HETATM   28  O2  UNL     1      24.280   8.463  46.590  1.00  0.00    -0.338 OA
BRANCH  28  29
HETATM   29  C16 UNL     1      25.048   8.396  45.410  1.00  0.00     0.172 C 
HETATM   30  C17 UNL     1      24.282   7.688  44.324  1.00  0.00     0.034 C 
ENDBRANCH  28  29
ENDBRANCH  10  28
TORSDOF 4
ENDMDL
