MODEL 1
REMARK VINA RESULT:      -8.7      0.000      0.000
REMARK  4 active torsions:
REMARK  status: ('A' for Active; 'I' for Inactive)
REMARK    1  A    between atoms: O1_2  and  C2_3 
REMARK    2  A    between atoms: C5_6  and  N1_7 
REMARK    3  A    between atoms: C9_12  and  O2_13 
REMARK    4  A    between atoms: O2_13  and  N3_14 
ROOT
HETATM    1  N1  UNL     1      23.635  -0.295  53.668  1.00  0.00    -0.295 N 
HETATM    2  C6  UNL     1      22.807   0.185  52.581  1.00  0.00     0.178 A 
HETATM    3  C7  UNL     1      21.412  -0.150  52.819  1.00  0.00     0.024 A 
HETATM    4  C8  UNL     1      20.618   0.315  51.768  1.00  0.00     0.134 A 
HETATM    5  N2  UNL     1      19.268   0.147  51.715  1.00  0.00    -0.217 NA
HETATM    6  C9  UNL     1      18.673  -0.509  52.745  1.00  0.00     0.292 A 
HETATM    7  N4  UNL     1      19.412  -0.978  53.788  1.00  0.00    -0.187 NA
HETATM    8  C15 UNL     1      20.737  -0.802  53.820  1.00  0.00     0.145 A 
HETATM    9  N5  UNL     1      21.602  -1.249  54.857  1.00  0.00    -0.292 N 
HETATM   10  C16 UNL     1      22.989  -0.974  54.728  1.00  0.00     0.329 A 
HETATM   11  O3  UNL     1      23.651  -1.414  55.698  1.00  0.00    -0.246 OA
HETATM   12  H14 UNL     1      21.182  -1.756  55.664  1.00  0.00     0.172 HD
ENDROOT
BRANCH   1  13
HETATM   13  C5  UNL     1      25.002  -0.045  53.579  1.00  0.00     0.039 A 
HETATM   14  C4  UNL     1      25.856  -1.022  53.048  1.00  0.00     0.032 A 
HETATM   15  C3  UNL     1      27.218  -0.906  52.904  1.00  0.00     0.039 A 
HETATM   16  C2  UNL     1      27.830   0.259  53.306  1.00  0.00     0.068 A 
HETATM   17  C18 UNL     1      27.058   1.268  53.839  1.00  0.00     0.039 A 
HETATM   18  C17 UNL     1      25.702   1.059  53.942  1.00  0.00     0.032 A 
BRANCH  16  19
HETATM   19  O1  UNL     1      29.202   0.400  53.170  1.00  0.00    -0.356 OA
HETATM   20  C1  UNL     1      30.013  -0.691  53.563  1.00  0.00     0.210 C 
ENDBRANCH  16  19
ENDBRANCH   1  13
BRANCH   6  21
HETATM   21  O2  UNL     1      17.288  -0.706  52.734  1.00  0.00    -0.194 OA
BRANCH  21  22
HETATM   22  N3  UNL     1      16.705  -1.949  52.684  1.00  0.00    -0.254 N 
HETATM   23  C10 UNL     1      15.513  -2.033  51.930  1.00  0.00     0.118 A 
HETATM   24  C11 UNL     1      14.896  -3.199  51.839  1.00  0.00     0.022 A 
HETATM   25  C12 UNL     1      15.373  -4.414  52.473  1.00  0.00     0.041 A 
HETATM   26  C13 UNL     1      16.491  -4.274  53.163  1.00  0.00     0.114 A 
HETATM   27  F1  UNL     1      17.010  -5.356  53.788  1.00  0.00    -0.209 F 
HETATM   28  C14 UNL     1      17.316  -3.067  53.379  1.00  0.00     0.225 A 
ENDBRANCH  21  22
ENDBRANCH   6  21
TORSDOF 4
ENDMDL
MODEL 2
REMARK VINA RESULT:      -8.6      2.725      3.275
REMARK  4 active torsions:
REMARK  status: ('A' for Active; 'I' for Inactive)
REMARK    1  A    between atoms: O1_2  and  C2_3 
REMARK    2  A    between atoms: C5_6  and  N1_7 
REMARK    3  A    between atoms: C9_12  and  O2_13 
REMARK    4  A    between atoms: O2_13  and  N3_14 
ROOT
HETATM    1  N1  UNL     1      23.364  -0.464  53.750  1.00  0.00    -0.295 N 
HETATM    2  C6  UNL     1      22.778   0.084  52.544  1.00  0.00     0.178 A 
HETATM    3  C7  UNL     1      21.336  -0.102  52.549  1.00  0.00     0.024 A 
HETATM    4  C8  UNL     1      20.776   0.428  51.384  1.00  0.00     0.134 A 
HETATM    5  N2  UNL     1      19.443   0.399  51.110  1.00  0.00    -0.217 NA
HETATM    6  C9  UNL     1      18.623  -0.179  52.026  1.00  0.00     0.292 A 
HETATM    7  N4  UNL     1      19.130  -0.708  53.174  1.00  0.00    -0.187 NA
HETATM    8  C15 UNL     1      20.443  -0.669  53.423  1.00  0.00     0.145 A 
HETATM    9  N5  UNL     1      21.076  -1.188  54.586  1.00  0.00    -0.292 N 
HETATM   10  C16 UNL     1      22.487  -1.060  54.687  1.00  0.00     0.329 A 
HETATM   11  O3  UNL     1      22.933  -1.553  55.750  1.00  0.00    -0.246 OA
HETATM   12  H14 UNL     1      20.480  -1.639  55.311  1.00  0.00     0.172 HD
ENDROOT
BRANCH   1  13
HETATM   13  C5  UNL     1      24.745  -0.357  53.886  1.00  0.00     0.039 A 
HETATM   14  C4  UNL     1      25.585  -0.851  52.878  1.00  0.00     0.032 A 
HETATM   15  C3  UNL     1      26.960  -0.811  52.886  1.00  0.00     0.039 A 
HETATM   16  C2  UNL     1      27.600  -0.243  53.963  1.00  0.00     0.068 A 
HETATM   17  C18 UNL     1      26.842   0.266  54.995  1.00  0.00     0.039 A 
HETATM   18  C17 UNL     1      25.473   0.181  54.897  1.00  0.00     0.032 A 
BRANCH  16  19
HETATM   19  O1  UNL     1      28.984  -0.190  53.993  1.00  0.00    -0.356 OA
HETATM   20  C1  UNL     1      29.692  -1.319  53.519  1.00  0.00     0.210 C 
ENDBRANCH  16  19
ENDBRANCH   1  13
BRANCH   6  21
HETATM   21  O2  UNL     1      17.246  -0.233  51.789  1.00  0.00    -0.194 OA
BRANCH  21  22
HETATM   22  N3  UNL     1      16.396   0.816  52.048  1.00  0.00    -0.254 N 
HETATM   23  C10 UNL     1      15.187   0.474  52.695  1.00  0.00     0.118 A 
HETATM   24  C11 UNL     1      14.320   1.432  52.975  1.00  0.00     0.022 A 
HETATM   25  C12 UNL     1      14.536   2.832  52.657  1.00  0.00     0.041 A 
HETATM   26  C13 UNL     1      15.683   3.090  52.054  1.00  0.00     0.114 A 
HETATM   27  F1  UNL     1      15.969   4.370  51.719  1.00  0.00    -0.209 F 
HETATM   28  C14 UNL     1      16.767   2.164  51.662  1.00  0.00     0.225 A 
ENDBRANCH  21  22
ENDBRANCH   6  21
TORSDOF 4
ENDMDL
MODEL 3
REMARK VINA RESULT:      -8.4      7.669     11.819
REMARK  4 active torsions:
REMARK  status: ('A' for Active; 'I' for Inactive)
REMARK    1  A    between atoms: O1_2  and  C2_3 
REMARK    2  A    between atoms: C5_6  and  N1_7 
REMARK    3  A    between atoms: C9_12  and  O2_13 
REMARK    4  A    between atoms: O2_13  and  N3_14 
ROOT
HETATM    1  N1  UNL     1      24.412   3.179  51.392  1.00  0.00    -0.295 N 
HETATM    2  C6  UNL     1      25.525   3.042  50.475  1.00  0.00     0.178 A 
HETATM    3  C7  UNL     1      25.918   4.341  49.955  1.00  0.00     0.024 A 
HETATM    4  C8  UNL     1      26.991   4.204  49.072  1.00  0.00     0.134 A 
HETATM    5  N2  UNL     1      27.574   5.253  48.428  1.00  0.00    -0.217 NA
HETATM    6  C9  UNL     1      27.077   6.494  48.666  1.00  0.00     0.292 A 
HETATM    7  N4  UNL     1      26.032   6.671  49.521  1.00  0.00    -0.187 NA
HETATM    8  C15 UNL     1      25.473   5.626  50.142  1.00  0.00     0.145 A 
HETATM    9  N5  UNL     1      24.382   5.697  51.051  1.00  0.00    -0.292 N 
HETATM   10  C16 UNL     1      23.915   4.484  51.622  1.00  0.00     0.329 A 
HETATM   11  O3  UNL     1      22.952   4.667  52.404  1.00  0.00    -0.246 OA
HETATM   12  H14 UNL     1      23.974   6.632  51.259  1.00  0.00     0.172 HD
ENDROOT
BRANCH   1  13
HETATM   13  C5  UNL     1      23.925   2.011  51.972  1.00  0.00     0.039 A 
HETATM   14  C4  UNL     1      22.739   1.436  51.493  1.00  0.00     0.032 A 
HETATM   15  C3  UNL     1      22.150   0.291  51.974  1.00  0.00     0.039 A 
HETATM   16  C2  UNL     1      22.750  -0.376  53.017  1.00  0.00     0.068 A 
HETATM   17  C18 UNL     1      23.920   0.127  53.543  1.00  0.00     0.039 A 
HETATM   18  C17 UNL     1      24.434   1.279  52.995  1.00  0.00     0.032 A 
BRANCH  16  19
HETATM   19  O1  UNL     1      22.176  -1.533  53.518  1.00  0.00    -0.356 OA
HETATM   20  C1  UNL     1      21.053  -1.390  54.367  1.00  0.00     0.210 C 
ENDBRANCH  16  19
ENDBRANCH   1  13
BRANCH   6  21
HETATM   21  O2  UNL     1      27.644   7.603  48.028  1.00  0.00    -0.194 OA
BRANCH  21  22
HETATM   22  N3  UNL     1      28.929   8.029  48.261  1.00  0.00    -0.254 N 
HETATM   23  C10 UNL     1      29.924   7.436  47.452  1.00  0.00     0.118 A 
HETATM   24  C11 UNL     1      31.184   7.797  47.621  1.00  0.00     0.022 A 
HETATM   25  C12 UNL     1      31.616   8.779  48.599  1.00  0.00     0.041 A 
HETATM   26  C13 UNL     1      30.642   9.299  49.326  1.00  0.00     0.114 A 
HETATM   27  F1  UNL     1      30.953  10.223  50.264  1.00  0.00    -0.209 F 
HETATM   28  C14 UNL     1      29.191   9.025  49.284  1.00  0.00     0.225 A 
ENDBRANCH  21  22
ENDBRANCH   6  21
TORSDOF 4
ENDMDL
MODEL 4
REMARK VINA RESULT:      -8.1      2.960      3.677
REMARK  4 active torsions:
REMARK  status: ('A' for Active; 'I' for Inactive)
REMARK    1  A    between atoms: O1_2  and  C2_3 
REMARK    2  A    between atoms: C5_6  and  N1_7 
REMARK    3  A    between atoms: C9_12  and  O2_13 
REMARK    4  A    between atoms: O2_13  and  N3_14 
ROOT
HETATM    1  N1  UNL     1      23.505   0.891  52.356  1.00  0.00    -0.295 N 
HETATM    2  C6  UNL     1      22.589   0.148  53.197  1.00  0.00     0.178 A 
HETATM    3  C7  UNL     1      21.258   0.135  52.612  1.00  0.00     0.024 A 
HETATM    4  C8  UNL     1      20.379  -0.583  53.427  1.00  0.00     0.134 A 
HETATM    5  N2  UNL     1      19.062  -0.764  53.135  1.00  0.00    -0.217 NA
HETATM    6  C9  UNL     1      18.589  -0.213  51.987  1.00  0.00     0.292 A 
HETATM    7  N4  UNL     1      19.413   0.494  51.166  1.00  0.00    -0.187 NA
HETATM    8  C15 UNL     1      20.704   0.661  51.472  1.00  0.00     0.145 A 
HETATM    9  N5  UNL     1      21.649   1.378  50.688  1.00  0.00    -0.292 N 
HETATM   10  C16 UNL     1      22.985   1.454  51.166  1.00  0.00     0.329 A 
HETATM   11  O3  UNL     1      23.727   2.110  50.396  1.00  0.00    -0.246 OA
HETATM   12  H14 UNL     1      21.324   1.815  49.801  1.00  0.00     0.172 HD
ENDROOT
BRANCH   1  13
HETATM   13  C5  UNL     1      24.824   0.989  52.790  1.00  0.00     0.039 A 
HETATM   14  C4  UNL     1      25.696  -0.096  52.619  1.00  0.00     0.032 A 
HETATM   15  C3  UNL     1      27.016  -0.134  53.001  1.00  0.00     0.039 A 
HETATM   16  C2  UNL     1      27.562   0.974  53.607  1.00  0.00     0.068 A 
HETATM   17  C18 UNL     1      26.768   2.082  53.811  1.00  0.00     0.039 A 
HETATM   18  C17 UNL     1      25.458   2.025  53.394  1.00  0.00     0.032 A 
BRANCH  16  19
HETATM   19  O1  UNL     1      28.891   0.960  54.000  1.00  0.00    -0.356 OA
HETATM   20  C1  UNL     1      29.628  -0.226  53.773  1.00  0.00     0.210 C 
ENDBRANCH  16  19
ENDBRANCH   1  13
BRANCH   6  21
HETATM   21  O2  UNL     1      17.241  -0.373  51.645  1.00  0.00    -0.194 OA
BRANCH  21  22
HETATM   22  N3  UNL     1      16.256   0.499  52.041  1.00  0.00    -0.254 N 
HETATM   23  C10 UNL     1      15.212  -0.069  52.806  1.00  0.00     0.118 A 
HETATM   24  C11 UNL     1      14.229   0.710  53.222  1.00  0.00     0.022 A 
HETATM   25  C12 UNL     1      14.152   2.131  52.938  1.00  0.00     0.041 A 
HETATM   26  C13 UNL     1      15.155   2.605  52.219  1.00  0.00     0.114 A 
HETATM   27  F1  UNL     1      15.167   3.921  51.907  1.00  0.00    -0.209 F 
HETATM   28  C14 UNL     1      16.332   1.899  51.670  1.00  0.00     0.225 A 
ENDBRANCH  21  22
ENDBRANCH   6  21
TORSDOF 4
ENDMDL
MODEL 5
REMARK VINA RESULT:      -8.0      3.885      4.569
REMARK  4 active torsions:
REMARK  status: ('A' for Active; 'I' for Inactive)
REMARK    1  A    between atoms: O1_2  and  C2_3 
REMARK    2  A    between atoms: C5_6  and  N1_7 
REMARK    3  A    between atoms: C9_12  and  O2_13 
REMARK    4  A    between atoms: O2_13  and  N3_14 
ROOT
HETATM    1  N1  UNL     1      23.260   1.548  52.267  1.00  0.00    -0.295 N 
HETATM    2  C6  UNL     1      22.171   0.757  51.730  1.00  0.00     0.178 A 
HETATM    3  C7  UNL     1      21.002   1.590  51.503  1.00  0.00     0.024 A 
HETATM    4  C8  UNL     1      19.955   0.823  50.985  1.00  0.00     0.134 A 
HETATM    5  N2  UNL     1      18.732   1.334  50.673  1.00  0.00    -0.217 NA
HETATM    6  C9  UNL     1      18.530   2.661  50.881  1.00  0.00     0.292 A 
HETATM    7  N4  UNL     1      19.525   3.443  51.385  1.00  0.00    -0.187 NA
HETATM    8  C15 UNL     1      20.719   2.921  51.685  1.00  0.00     0.145 A 
HETATM    9  N5  UNL     1      21.824   3.644  52.213  1.00  0.00    -0.292 N 
HETATM   10  C16 UNL     1      23.022   2.928  52.473  1.00  0.00     0.329 A 
HETATM   11  O3  UNL     1      23.924   3.665  52.936  1.00  0.00    -0.246 OA
HETATM   12  H14 UNL     1      21.707   4.664  52.386  1.00  0.00     0.172 HD
ENDROOT
BRANCH   1  13
HETATM   13  C5  UNL     1      24.452   0.881  52.535  1.00  0.00     0.039 A 
HETATM   14  C4  UNL     1      24.516  -0.034  53.596  1.00  0.00     0.032 A 
HETATM   15  C3  UNL     1      25.625  -0.756  53.968  1.00  0.00     0.039 A 
HETATM   16  C2  UNL     1      26.792  -0.591  53.259  1.00  0.00     0.068 A 
HETATM   17  C18 UNL     1      26.810   0.292  52.201  1.00  0.00     0.039 A 
HETATM   18  C17 UNL     1      25.649   0.969  51.903  1.00  0.00     0.032 A 
BRANCH  16  19
HETATM   19  O1  UNL     1      27.923  -1.308  53.615  1.00  0.00    -0.356 OA
HETATM   20  C1  UNL     1      29.149  -0.605  53.683  1.00  0.00     0.210 C 
ENDBRANCH  16  19
ENDBRANCH   1  13
BRANCH   6  21
HETATM   21  O2  UNL     1      17.289   3.230  50.576  1.00  0.00    -0.194 OA
BRANCH  21  22
HETATM   22  N3  UNL     1      16.200   3.151  51.409  1.00  0.00    -0.254 N 
HETATM   23  C10 UNL     1      15.395   2.000  51.253  1.00  0.00     0.118 A 
HETATM   24  C11 UNL     1      14.329   1.857  52.020  1.00  0.00     0.022 A 
HETATM   25  C12 UNL     1      13.927   2.821  53.029  1.00  0.00     0.041 A 
HETATM   26  C13 UNL     1      14.717   3.876  53.130  1.00  0.00     0.114 A 
HETATM   27  F1  UNL     1      14.419   4.827  54.044  1.00  0.00    -0.209 F 
HETATM   28  C14 UNL     1      15.940   4.208  52.368  1.00  0.00     0.225 A 
ENDBRANCH  21  22
ENDBRANCH   6  21
TORSDOF 4
ENDMDL
MODEL 6
REMARK VINA RESULT:      -8.0      3.677      4.107
REMARK  4 active torsions:
REMARK  status: ('A' for Active; 'I' for Inactive)
REMARK    1  A    between atoms: O1_2  and  C2_3 
REMARK    2  A    between atoms: C5_6  and  N1_7 
REMARK    3  A    between atoms: C9_12  and  O2_13 
REMARK    4  A    between atoms: O2_13  and  N3_14 
ROOT
HETATM    1  N1  UNL     1      23.785   0.621  53.174  1.00  0.00    -0.295 N 
HETATM    2  C6  UNL     1      23.618   1.839  52.407  1.00  0.00     0.178 A 
HETATM    3  C7  UNL     1      22.218   2.226  52.366  1.00  0.00     0.024 A 
HETATM    4  C8  UNL     1      22.063   3.400  51.625  1.00  0.00     0.134 A 
HETATM    5  N2  UNL     1      20.859   4.002  51.414  1.00  0.00    -0.217 NA
HETATM    6  C9  UNL     1      19.759   3.420  51.957  1.00  0.00     0.292 A 
HETATM    7  N4  UNL     1      19.868   2.275  52.686  1.00  0.00    -0.187 NA
HETATM    8  C15 UNL     1      21.059   1.700  52.881  1.00  0.00     0.145 A 
HETATM    9  N5  UNL     1      21.286   0.508  53.622  1.00  0.00    -0.292 N 
HETATM   10  C16 UNL     1      22.622   0.037  53.729  1.00  0.00     0.329 A 
HETATM   11  O3  UNL     1      22.700  -1.018  54.402  1.00  0.00    -0.246 OA
HETATM   12  H14 UNL     1      20.466   0.033  54.054  1.00  0.00     0.172 HD
ENDROOT
BRANCH   1  13
HETATM   13  C5  UNL     1      25.081   0.128  53.301  1.00  0.00     0.039 A 
HETATM   14  C4  UNL     1      25.938   0.663  54.273  1.00  0.00     0.032 A 
HETATM   15  C3  UNL     1      27.235   0.270  54.505  1.00  0.00     0.039 A 
HETATM   16  C2  UNL     1      27.771  -0.734  53.732  1.00  0.00     0.068 A 
HETATM   17  C18 UNL     1      26.991  -1.311  52.754  1.00  0.00     0.039 A 
HETATM   18  C17 UNL     1      25.703  -0.851  52.598  1.00  0.00     0.032 A 
BRANCH  16  19
HETATM   19  O1  UNL     1      29.077  -1.147  53.947  1.00  0.00    -0.356 OA
HETATM   20  C1  UNL     1      30.113  -0.271  53.549  1.00  0.00     0.210 C 
ENDBRANCH  16  19
ENDBRANCH   1  13
BRANCH   6  21
HETATM   21  O2  UNL     1      18.501   4.002  51.767  1.00  0.00    -0.194 OA
BRANCH  21  22
HETATM   22  N3  UNL     1      17.447   3.342  51.184  1.00  0.00    -0.254 N 
HETATM   23  C10 UNL     1      16.241   3.349  51.920  1.00  0.00     0.118 A 
HETATM   24  C11 UNL     1      15.184   2.732  51.421  1.00  0.00     0.022 A 
HETATM   25  C12 UNL     1      15.184   2.038  50.146  1.00  0.00     0.041 A 
HETATM   26  C13 UNL     1      16.339   2.065  49.503  1.00  0.00     0.114 A 
HETATM   27  F1  UNL     1      16.432   1.444  48.305  1.00  0.00    -0.209 F 
HETATM   28  C14 UNL     1      17.617   2.696  49.896  1.00  0.00     0.225 A 
ENDBRANCH  21  22
ENDBRANCH   6  21
TORSDOF 4
ENDMDL
MODEL 7
REMARK VINA RESULT:      -7.8      2.699      3.442
REMARK  4 active torsions:
REMARK  status: ('A' for Active; 'I' for Inactive)
REMARK    1  A    between atoms: O1_2  and  C2_3 
REMARK    2  A    between atoms: C5_6  and  N1_7 
REMARK    3  A    between atoms: C9_12  and  O2_13 
REMARK    4  A    between atoms: O2_13  and  N3_14 
ROOT
HETATM    1  N1  UNL     1      21.431  -0.188  53.142  1.00  0.00    -0.295 N 
HETATM    2  C6  UNL     1      20.600   0.266  52.045  1.00  0.00     0.178 A 
HETATM    3  C7  UNL     1      19.252  -0.262  52.177  1.00  0.00     0.024 A 
HETATM    4  C8  UNL     1      18.455   0.178  51.117  1.00  0.00     0.134 A 
HETATM    5  N2  UNL     1      17.143  -0.157  50.974  1.00  0.00    -0.217 NA
HETATM    6  C9  UNL     1      16.591  -0.963  51.918  1.00  0.00     0.292 A 
HETATM    7  N4  UNL     1      17.334  -1.413  52.966  1.00  0.00    -0.187 NA
HETATM    8  C15 UNL     1      18.622  -1.072  53.088  1.00  0.00     0.145 A 
HETATM    9  N5  UNL     1      19.486  -1.484  54.139  1.00  0.00    -0.292 N 
HETATM   10  C16 UNL     1      20.830  -1.026  54.111  1.00  0.00     0.329 A 
HETATM   11  O3  UNL     1      21.497  -1.452  55.083  1.00  0.00    -0.246 OA
HETATM   12  H14 UNL     1      19.099  -2.103  54.881  1.00  0.00     0.172 HD
ENDROOT
BRANCH   1  13
HETATM   13  C5  UNL     1      22.756   0.242  53.150  1.00  0.00     0.039 A 
HETATM   14  C4  UNL     1      23.788  -0.686  53.353  1.00  0.00     0.032 A 
HETATM   15  C3  UNL     1      25.132  -0.398  53.385  1.00  0.00     0.039 A 
HETATM   16  C2  UNL     1      25.535   0.905  53.206  1.00  0.00     0.068 A 
HETATM   17  C18 UNL     1      24.579   1.876  53.001  1.00  0.00     0.039 A 
HETATM   18  C17 UNL     1      23.258   1.491  52.985  1.00  0.00     0.032 A 
BRANCH  16  19
HETATM   19  O1  UNL     1      26.884   1.220  53.234  1.00  0.00    -0.356 OA
HETATM   20  C1  UNL     1      27.338   2.229  52.352  1.00  0.00     0.210 C 
ENDBRANCH  16  19
ENDBRANCH   1  13
BRANCH   6  21
HETATM   21  O2  UNL     1      15.246  -1.334  51.813  1.00  0.00    -0.194 OA
BRANCH  21  22
HETATM   22  N3  UNL     1      14.244  -0.743  52.544  1.00  0.00    -0.254 N 
HETATM   23  C10 UNL     1      13.144  -1.575  52.852  1.00  0.00     0.118 A 
HETATM   24  C11 UNL     1      12.141  -1.074  53.552  1.00  0.00     0.022 A 
HETATM   25  C12 UNL     1      12.098   0.296  54.031  1.00  0.00     0.041 A 
HETATM   26  C13 UNL     1      13.153   1.025  53.712  1.00  0.00     0.114 A 
HETATM   27  F1  UNL     1      13.198   2.315  54.116  1.00  0.00    -0.209 F 
HETATM   28  C14 UNL     1      14.358   0.646  52.945  1.00  0.00     0.225 A 
ENDBRANCH  21  22
ENDBRANCH   6  21
TORSDOF 4
ENDMDL
MODEL 8
REMARK VINA RESULT:      -7.8      7.692     11.730
REMARK  4 active torsions:
REMARK  status: ('A' for Active; 'I' for Inactive)
REMARK    1  A    between atoms: O1_2  and  C2_3 
REMARK    2  A    between atoms: C5_6  and  N1_7 
REMARK    3  A    between atoms: C9_12  and  O2_13 
REMARK    4  A    between atoms: O2_13  and  N3_14 
ROOT
HETATM    1  N1  UNL     1      24.613   2.881  50.806  1.00  0.00    -0.295 N 
HETATM    2  C6  UNL     1      23.991   4.024  50.170  1.00  0.00     0.178 A 
HETATM    3  C7  UNL     1      24.995   4.857  49.529  1.00  0.00     0.024 A 
HETATM    4  C8  UNL     1      24.391   5.958  48.917  1.00  0.00     0.134 A 
HETATM    5  N2  UNL     1      25.083   6.914  48.237  1.00  0.00    -0.217 NA
HETATM    6  C9  UNL     1      26.432   6.779  48.157  1.00  0.00     0.292 A 
HETATM    7  N4  UNL     1      27.059   5.720  48.739  1.00  0.00    -0.187 NA
HETATM    8  C15 UNL     1      26.361   4.792  49.403  1.00  0.00     0.145 A 
HETATM    9  N5  UNL     1      26.913   3.650  50.046  1.00  0.00    -0.292 N 
HETATM   10  C16 UNL     1      26.020   2.765  50.706  1.00  0.00     0.329 A 
HETATM   11  O3  UNL     1      26.617   1.798  51.236  1.00  0.00    -0.246 OA
HETATM   12  H14 UNL     1      27.944   3.513  50.006  1.00  0.00     0.172 HD
ENDROOT
BRANCH   1  13
HETATM   13  C5  UNL     1      23.770   1.989  51.464  1.00  0.00     0.039 A 
HETATM   14  C4  UNL     1      22.651   1.468  50.799  1.00  0.00     0.032 A 
HETATM   15  C3  UNL     1      21.741   0.583  51.329  1.00  0.00     0.039 A 
HETATM   16  C2  UNL     1      21.914   0.150  52.623  1.00  0.00     0.068 A 
HETATM   17  C18 UNL     1      22.992   0.618  53.344  1.00  0.00     0.039 A 
HETATM   18  C17 UNL     1      23.849   1.501  52.727  1.00  0.00     0.032 A 
BRANCH  16  19
HETATM   19  O1  UNL     1      21.011  -0.742  53.179  1.00  0.00    -0.356 OA
HETATM   20  C1  UNL     1      21.352  -1.329  54.420  1.00  0.00     0.210 C 
ENDBRANCH  16  19
ENDBRANCH   1  13
BRANCH   6  21
HETATM   21  O2  UNL     1      27.185   7.736  47.468  1.00  0.00    -0.194 OA
BRANCH  21  22
HETATM   22  N3  UNL     1      28.455   8.105  47.841  1.00  0.00    -0.254 N 
HETATM   23  C10 UNL     1      28.534   9.007  48.926  1.00  0.00     0.118 A 
HETATM   24  C11 UNL     1      29.724   9.407  49.339  1.00  0.00     0.022 A 
HETATM   25  C12 UNL     1      30.972   8.970  48.741  1.00  0.00     0.041 A 
HETATM   26  C13 UNL     1      30.836   8.127  47.732  1.00  0.00     0.114 A 
HETATM   27  F1  UNL     1      31.947   7.668  47.114  1.00  0.00    -0.209 F 
HETATM   28  C14 UNL     1      29.604   7.572  47.133  1.00  0.00     0.225 A 
ENDBRANCH  21  22
ENDBRANCH   6  21
TORSDOF 4
ENDMDL
MODEL 9
REMARK VINA RESULT:      -7.7      7.890     11.018
REMARK  4 active torsions:
REMARK  status: ('A' for Active; 'I' for Inactive)
REMARK    1  A    between atoms: O1_2  and  C2_3 
REMARK    2  A    between atoms: C5_6  and  N1_7 
REMARK    3  A    between atoms: C9_12  and  O2_13 
REMARK    4  A    between atoms: O2_13  and  N3_14 
ROOT
HETATM    1  N1  UNL     1      26.007   6.574  48.633  1.00  0.00    -0.295 N 
HETATM    2  C6  UNL     1      24.976   5.987  49.464  1.00  0.00     0.178 A 
HETATM    3  C7  UNL     1      25.433   4.727  50.026  1.00  0.00     0.024 A 
HETATM    4  C8  UNL     1      24.436   4.165  50.827  1.00  0.00     0.134 A 
HETATM    5  N2  UNL     1      24.578   2.981  51.485  1.00  0.00    -0.217 NA
HETATM    6  C9  UNL     1      25.758   2.321  51.348  1.00  0.00     0.292 A 
HETATM    7  N4  UNL     1      26.755   2.835  50.577  1.00  0.00    -0.187 NA
HETATM    8  C15 UNL     1      26.594   4.000  49.939  1.00  0.00     0.145 A 
HETATM    9  N5  UNL     1      27.567   4.625  49.111  1.00  0.00    -0.292 N 
HETATM   10  C16 UNL     1      27.226   5.865  48.509  1.00  0.00     0.329 A 
HETATM   11  O3  UNL     1      28.157   6.322  47.803  1.00  0.00    -0.246 OA
HETATM   12  H14 UNL     1      28.484   4.149  48.982  1.00  0.00     0.172 HD
ENDROOT
BRANCH   1  13
HETATM   13  C5  UNL     1      25.711   7.791  48.025  1.00  0.00     0.039 A 
HETATM   14  C4  UNL     1      25.865   8.985  48.744  1.00  0.00     0.032 A 
HETATM   15  C3  UNL     1      25.609  10.249  48.267  1.00  0.00     0.039 A 
HETATM   16  C2  UNL     1      25.161  10.391  46.975  1.00  0.00     0.068 A 
HETATM   17  C18 UNL     1      24.983   9.263  46.203  1.00  0.00     0.039 A 
HETATM   18  C17 UNL     1      25.267   8.041  46.768  1.00  0.00     0.032 A 
BRANCH  16  19
HETATM   19  O1  UNL     1      24.896  11.655  46.471  1.00  0.00    -0.356 OA
HETATM   20  C1  UNL     1      23.557  11.955  46.130  1.00  0.00     0.210 C 
ENDBRANCH  16  19
ENDBRANCH   1  13
BRANCH   6  21
HETATM   21  O2  UNL     1      25.950   1.101  52.006  1.00  0.00    -0.194 OA
BRANCH  21  22
HETATM   22  N3  UNL     1      27.091   0.798  52.710  1.00  0.00    -0.254 N 
HETATM   23  C10 UNL     1      27.493  -0.556  52.665  1.00  0.00     0.118 A 
HETATM   24  C11 UNL     1      28.580  -0.921  53.320  1.00  0.00     0.022 A 
HETATM   25  C12 UNL     1      29.400  -0.006  54.094  1.00  0.00     0.041 A 
HETATM   26  C13 UNL     1      28.975   1.246  54.099  1.00  0.00     0.114 A 
HETATM   27  F1  UNL     1      29.678   2.168  54.795  1.00  0.00    -0.209 F 
HETATM   28  C14 UNL     1      27.795   1.838  53.435  1.00  0.00     0.225 A 
ENDBRANCH  21  22
ENDBRANCH   6  21
TORSDOF 4
ENDMDL
