MODEL 1
REMARK VINA RESULT:      -9.7      0.000      0.000
REMARK  4 active torsions:
REMARK  status: ('A' for Active; 'I' for Inactive)
REMARK    1  A    between atoms: O1_2  and  C2_3 
REMARK    2  A    between atoms: C7_8  and  C8_9 
REMARK       I    between atoms: C8_9  and  N1_11 
REMARK    3  A    between atoms: N1_11  and  C9_12 
REMARK    4  A    between atoms: C17_23  and  C18_24 
ROOT
HETATM    1  C9  UNL     1      25.460   3.710  49.685  1.00  0.00     0.048 A 
HETATM    2  C10 UNL     1      26.779   3.878  49.360  1.00  0.00     0.062 A 
HETATM    3  C11 UNL     1      27.466   4.873  48.798  1.00  0.00     0.059 A 
HETATM    4  C12 UNL     1      26.359   5.744  48.633  1.00  0.00     0.109 A 
HETATM    5  C13 UNL     1      25.095   6.373  48.602  1.00  0.00     0.071 A 
HETATM    6  P1  UNL     1      24.324   4.977  49.352  1.00  0.00     0.000 P 
HETATM    7  N2  UNL     1      24.556   7.632  48.149  1.00  0.00    -0.362 N 
HETATM    8  C14 UNL     1      25.458   8.280  47.241  1.00  0.00     0.270 C 
HETATM    9  N3  UNL     1      26.635   8.323  47.089  1.00  0.00    -0.414 NA
HETATM   10  C15 UNL     1      27.945   8.310  46.999  1.00  0.00     0.186 C 
HETATM   11  C16 UNL     1      28.732   7.351  47.427  1.00  0.00     0.064 C 
HETATM   12  C17 UNL     1      29.346   6.171  47.980  1.00  0.00     0.071 C 
HETATM   13  N5  UNL     1      28.194   5.885  48.221  1.00  0.00    -0.248 NA
HETATM   14  H13 UNL     1      23.677   7.665  48.635  1.00  0.00     0.162 HD
ENDROOT
BRANCH   1  15
HETATM   15  N1  UNL     1      25.166   2.474  50.282  1.00  0.00    -0.322 N 
HETATM   16  C8  UNL     1      25.033   2.114  51.630  1.00  0.00     0.252 C 
HETATM   17  O2  UNL     1      25.250   3.238  52.218  1.00  0.00    -0.268 OA
HETATM   18  H10 UNL     1      25.011   1.672  49.639  1.00  0.00     0.169 HD
BRANCH  16  19
HETATM   19  C7  UNL     1      24.752   0.963  52.446  1.00  0.00     0.018 C 
HETATM   20  C5  UNL     1      23.691   0.478  53.043  1.00  0.00    -0.068 C 
HETATM   21  C4  UNL     1      23.618  -0.782  53.875  1.00  0.00     0.064 C 
HETATM   22  C6  UNL     1      22.473   1.320  52.819  1.00  0.00     0.044 C 
HETATM   23  C3  UNL     1      24.801  -0.771  54.788  1.00  0.00     0.010 C 
HETATM   24  C2  UNL     1      25.913  -0.345  54.158  1.00  0.00     0.046 C 
HETATM   25  C23 UNL     1      25.919   0.056  52.722  1.00  0.00     0.108 C 
BRANCH  24  26
HETATM   26  O1  UNL     1      27.014  -0.340  55.028  1.00  0.00    -0.360 OA
HETATM   27  C1  UNL     1      28.276   0.199  54.640  1.00  0.00     0.209 C 
ENDBRANCH  24  26
ENDBRANCH  16  19
ENDBRANCH   1  15
BRANCH  12  28
HETATM   28  C18 UNL     1      30.712   5.694  48.118  1.00  0.00     0.010 A 
HETATM   29  C19 UNL     1      30.926   4.615  47.306  1.00  0.00     0.017 A 
HETATM   30  C20 UNL     1      32.223   4.119  47.397  1.00  0.00     0.020 A 
HETATM   31  C21 UNL     1      33.178   4.684  48.235  1.00  0.00     0.116 A 
HETATM   32  N4  UNL     1      32.854   5.752  48.996  1.00  0.00    -0.272 NA
HETATM   33  C22 UNL     1      31.616   6.288  48.961  1.00  0.00     0.130 A 
ENDBRANCH  12  28
TORSDOF 4
ENDMDL
MODEL 2
REMARK VINA RESULT:      -9.7      2.792      8.727
REMARK  4 active torsions:
REMARK  status: ('A' for Active; 'I' for Inactive)
REMARK    1  A    between atoms: O1_2  and  C2_3 
REMARK    2  A    between atoms: C7_8  and  C8_9 
REMARK       I    between atoms: C8_9  and  N1_11 
REMARK    3  A    between atoms: N1_11  and  C9_12 
REMARK    4  A    between atoms: C17_23  and  C18_24 
ROOT
HETATM    1  C9  UNL     1      25.342   3.565  49.843  1.00  0.00     0.048 A 
HETATM    2  C10 UNL     1      26.065   2.637  50.544  1.00  0.00     0.062 A 
HETATM    3  C11 UNL     1      25.733   1.680  51.411  1.00  0.00     0.059 A 
HETATM    4  C12 UNL     1      24.337   1.929  51.381  1.00  0.00     0.109 A 
HETATM    5  C13 UNL     1      23.028   2.405  51.146  1.00  0.00     0.071 A 
HETATM    6  P1  UNL     1      23.619   3.626  50.020  1.00  0.00     0.000 P 
HETATM    7  N2  UNL     1      21.695   2.095  51.603  1.00  0.00    -0.362 N 
HETATM    8  C14 UNL     1      21.735   1.319  52.810  1.00  0.00     0.270 C 
HETATM    9  N3  UNL     1      22.470   0.519  53.290  1.00  0.00    -0.414 NA
HETATM   10  C15 UNL     1      23.341  -0.354  53.739  1.00  0.00     0.186 C 
HETATM   11  C16 UNL     1      24.612  -0.404  53.418  1.00  0.00     0.064 C 
HETATM   12  C17 UNL     1      25.944  -0.226  52.898  1.00  0.00     0.071 C 
HETATM   13  N5  UNL     1      25.413   0.688  52.306  1.00  0.00    -0.248 NA
HETATM   14  H13 UNL     1      21.130   2.536  50.900  1.00  0.00     0.162 HD
ENDROOT
BRANCH   1  15
HETATM   15  N1  UNL     1      26.118   4.396  49.019  1.00  0.00    -0.322 N 
HETATM   16  C8  UNL     1      26.360   5.775  49.074  1.00  0.00     0.252 C 
HETATM   17  O2  UNL     1      25.677   6.116  50.109  1.00  0.00    -0.268 OA
HETATM   18  H10 UNL     1      26.610   3.936  48.228  1.00  0.00     0.169 HD
BRANCH  16  19
HETATM   19  C7  UNL     1      27.083   6.801  48.369  1.00  0.00     0.018 C 
HETATM   20  C5  UNL     1      28.306   6.939  47.919  1.00  0.00    -0.068 C 
HETATM   21  C4  UNL     1      28.871   8.136  47.187  1.00  0.00     0.064 C 
HETATM   22  C6  UNL     1      29.158   5.740  48.197  1.00  0.00     0.044 C 
HETATM   23  C3  UNL     1      28.420   9.352  47.929  1.00  0.00     0.010 C 
HETATM   24  C2  UNL     1      27.138   9.247  48.328  1.00  0.00     0.046 C 
HETATM   25  C23 UNL     1      26.304   8.045  48.044  1.00  0.00     0.108 C 
BRANCH  24  26
HETATM   26  O1  UNL     1      26.731  10.396  49.023  1.00  0.00    -0.360 OA
HETATM   27  C1  UNL     1      26.148  11.512  48.354  1.00  0.00     0.209 C 
ENDBRANCH  24  26
ENDBRANCH  16  19
ENDBRANCH   1  15
BRANCH  12  28
HETATM   28  C18 UNL     1      27.216  -0.905  53.082  1.00  0.00     0.010 A 
HETATM   29  C19 UNL     1      28.176  -0.020  53.488  1.00  0.00     0.017 A 
HETATM   30  C20 UNL     1      29.416  -0.619  53.683  1.00  0.00     0.020 A 
HETATM   31  C21 UNL     1      29.625  -1.978  53.477  1.00  0.00     0.116 A 
HETATM   32  N4  UNL     1      28.600  -2.761  53.073  1.00  0.00    -0.272 NA
HETATM   33  C22 UNL     1      27.369  -2.250  52.864  1.00  0.00     0.130 A 
ENDBRANCH  12  28
TORSDOF 4
ENDMDL
MODEL 3
REMARK VINA RESULT:      -9.4      3.118      8.524
REMARK  4 active torsions:
REMARK  status: ('A' for Active; 'I' for Inactive)
REMARK    1  A    between atoms: O1_2  and  C2_3 
REMARK    2  A    between atoms: C7_8  and  C8_9 
REMARK       I    between atoms: C8_9  and  N1_11 
REMARK    3  A    between atoms: N1_11  and  C9_12 
REMARK    4  A    between atoms: C17_23  and  C18_24 
ROOT
HETATM    1  C9  UNL     1      23.732   3.140  50.038  1.00  0.00     0.048 A 
HETATM    2  C10 UNL     1      24.651   2.523  50.845  1.00  0.00     0.062 A 
HETATM    3  C11 UNL     1      24.562   1.580  51.783  1.00  0.00     0.059 A 
HETATM    4  C12 UNL     1      23.158   1.402  51.683  1.00  0.00     0.109 A 
HETATM    5  C13 UNL     1      21.784   1.450  51.361  1.00  0.00     0.071 A 
HETATM    6  P1  UNL     1      22.058   2.700  50.150  1.00  0.00     0.000 P 
HETATM    7  N2  UNL     1      20.576   0.794  51.799  1.00  0.00    -0.362 N 
HETATM    8  C14 UNL     1      20.769   0.159  53.072  1.00  0.00     0.270 C 
HETATM    9  N3  UNL     1      21.675  -0.347  53.647  1.00  0.00    -0.414 NA
HETATM   10  C15 UNL     1      22.735  -0.886  54.203  1.00  0.00     0.186 C 
HETATM   11  C16 UNL     1      23.982  -0.581  53.932  1.00  0.00     0.064 C 
HETATM   12  C17 UNL     1      25.233  -0.058  53.443  1.00  0.00     0.071 C 
HETATM   13  N5  UNL     1      24.494   0.609  52.753  1.00  0.00    -0.248 NA
HETATM   14  H13 UNL     1      19.949   0.993  51.040  1.00  0.00     0.162 HD
ENDROOT
BRANCH   1  15
HETATM   15  N1  UNL     1      24.278   4.097  49.169  1.00  0.00    -0.322 N 
HETATM   16  C8  UNL     1      24.565   5.455  49.362  1.00  0.00     0.252 C 
HETATM   17  O2  UNL     1      24.197   5.624  50.584  1.00  0.00    -0.268 OA
HETATM   18  H10 UNL     1      24.524   3.770  48.214  1.00  0.00     0.169 HD
BRANCH  16  19
HETATM   19  C7  UNL     1      25.099   6.586  48.650  1.00  0.00     0.018 C 
HETATM   20  C5  UNL     1      24.725   7.299  47.616  1.00  0.00    -0.068 C 
HETATM   21  C4  UNL     1      25.459   8.478  47.017  1.00  0.00     0.064 C 
HETATM   22  C6  UNL     1      23.425   6.831  47.037  1.00  0.00     0.044 C 
HETATM   23  C3  UNL     1      26.899   8.091  46.923  1.00  0.00     0.010 C 
HETATM   24  C2  UNL     1      27.309   7.423  48.018  1.00  0.00     0.046 C 
HETATM   25  C23 UNL     1      26.404   7.126  49.164  1.00  0.00     0.108 C 
BRANCH  24  26
HETATM   26  O1  UNL     1      28.663   7.068  47.914  1.00  0.00    -0.360 OA
HETATM   27  C1  UNL     1      29.112   5.737  48.160  1.00  0.00     0.209 C 
ENDBRANCH  24  26
ENDBRANCH  16  19
ENDBRANCH   1  15
BRANCH  12  28
HETATM   28  C18 UNL     1      26.634  -0.313  53.731  1.00  0.00     0.010 A 
HETATM   29  C19 UNL     1      27.177  -1.132  52.781  1.00  0.00     0.017 A 
HETATM   30  C20 UNL     1      28.522  -1.407  53.007  1.00  0.00     0.020 A 
HETATM   31  C21 UNL     1      29.213  -0.888  54.096  1.00  0.00     0.116 A 
HETATM   32  N4  UNL     1      28.573  -0.086  54.976  1.00  0.00    -0.272 NA
HETATM   33  C22 UNL     1      27.269   0.225  54.821  1.00  0.00     0.130 A 
ENDBRANCH  12  28
TORSDOF 4
ENDMDL
MODEL 4
REMARK VINA RESULT:      -9.1      4.136      9.038
REMARK  4 active torsions:
REMARK  status: ('A' for Active; 'I' for Inactive)
REMARK    1  A    between atoms: O1_2  and  C2_3 
REMARK    2  A    between atoms: C7_8  and  C8_9 
REMARK       I    between atoms: C8_9  and  N1_11 
REMARK    3  A    between atoms: N1_11  and  C9_12 
REMARK    4  A    between atoms: C17_23  and  C18_24 
ROOT
HETATM    1  C9  UNL     1      22.892   2.206  50.759  1.00  0.00     0.048 A 
HETATM    2  C10 UNL     1      24.032   1.786  51.391  1.00  0.00     0.062 A 
HETATM    3  C11 UNL     1      24.264   0.954  52.407  1.00  0.00     0.059 A 
HETATM    4  C12 UNL     1      22.905   0.621  52.641  1.00  0.00     0.109 A 
HETATM    5  C13 UNL     1      21.499   0.489  52.632  1.00  0.00     0.071 A 
HETATM    6  P1  UNL     1      21.350   1.613  51.282  1.00  0.00     0.000 P 
HETATM    7  N2  UNL     1      20.504  -0.232  53.388  1.00  0.00    -0.362 N 
HETATM    8  C14 UNL     1      21.041  -0.692  54.637  1.00  0.00     0.270 C 
HETATM    9  N3  UNL     1      22.106  -1.032  55.037  1.00  0.00    -0.414 NA
HETATM   10  C15 UNL     1      23.319  -1.390  55.388  1.00  0.00     0.186 C 
HETATM   11  C16 UNL     1      24.431  -0.992  54.817  1.00  0.00     0.064 C 
HETATM   12  C17 UNL     1      25.473  -0.402  54.015  1.00  0.00     0.071 C 
HETATM   13  N5  UNL     1      24.526   0.100  53.451  1.00  0.00    -0.248 NA
HETATM   14  H13 UNL     1      19.710  -0.188  52.774  1.00  0.00     0.162 HD
ENDROOT
BRANCH   1  15
HETATM   15  N1  UNL     1      23.116   3.108  49.706  1.00  0.00    -0.322 N 
HETATM   16  C8  UNL     1      23.301   4.497  49.710  1.00  0.00     0.252 C 
HETATM   17  O2  UNL     1      23.217   4.763  50.967  1.00  0.00    -0.268 OA
HETATM   18  H10 UNL     1      23.162   2.703  48.750  1.00  0.00     0.169 HD
BRANCH  16  19
HETATM   19  C7  UNL     1      23.532   5.585  48.798  1.00  0.00     0.018 C 
HETATM   20  C5  UNL     1      24.584   6.251  48.387  1.00  0.00    -0.068 C 
HETATM   21  C4  UNL     1      24.600   7.393  47.396  1.00  0.00     0.064 C 
HETATM   22  C6  UNL     1      25.853   5.757  49.008  1.00  0.00     0.044 C 
HETATM   23  C3  UNL     1      23.484   8.313  47.773  1.00  0.00     0.010 C 
HETATM   24  C2  UNL     1      22.376   7.634  48.125  1.00  0.00     0.046 C 
HETATM   25  C23 UNL     1      22.311   6.145  48.124  1.00  0.00     0.108 C 
BRANCH  24  26
HETATM   26  O1  UNL     1      21.338   8.511  48.476  1.00  0.00    -0.360 OA
HETATM   27  C1  UNL     1      19.969   8.117  48.421  1.00  0.00     0.209 C 
ENDBRANCH  24  26
ENDBRANCH  16  19
ENDBRANCH   1  15
BRANCH  12  28
HETATM   28  C18 UNL     1      26.925  -0.476  54.003  1.00  0.00     0.010 A 
HETATM   29  C19 UNL     1      27.350  -1.382  53.073  1.00  0.00     0.017 A 
HETATM   30  C20 UNL     1      28.736  -1.490  53.018  1.00  0.00     0.020 A 
HETATM   31  C21 UNL     1      29.573  -0.742  53.837  1.00  0.00     0.116 A 
HETATM   32  N4  UNL     1      29.040   0.127  54.725  1.00  0.00    -0.272 NA
HETATM   33  C22 UNL     1      27.705   0.286  54.835  1.00  0.00     0.130 A 
ENDBRANCH  12  28
TORSDOF 4
ENDMDL
MODEL 5
REMARK VINA RESULT:      -8.8      3.358     10.244
REMARK  4 active torsions:
REMARK  status: ('A' for Active; 'I' for Inactive)
REMARK    1  A    between atoms: O1_2  and  C2_3 
REMARK    2  A    between atoms: C7_8  and  C8_9 
REMARK       I    between atoms: C8_9  and  N1_11 
REMARK    3  A    between atoms: N1_11  and  C9_12 
REMARK    4  A    between atoms: C17_23  and  C18_24 
ROOT
HETATM    1  C9  UNL     1      25.442   2.648  51.238  1.00  0.00     0.048 A 
HETATM    2  C10 UNL     1      24.216   2.045  51.330  1.00  0.00     0.062 A 
HETATM    3  C11 UNL     1      23.678   1.188  52.198  1.00  0.00     0.059 A 
HETATM    4  C12 UNL     1      24.817   1.090  53.037  1.00  0.00     0.109 A 
HETATM    5  C13 UNL     1      26.079   1.196  53.664  1.00  0.00     0.071 A 
HETATM    6  P1  UNL     1      26.652   2.323  52.437  1.00  0.00     0.000 P 
HETATM    7  N2  UNL     1      26.728   0.638  54.826  1.00  0.00    -0.362 N 
HETATM    8  C14 UNL     1      26.037  -0.533  55.287  1.00  0.00     0.270 C 
HETATM    9  N3  UNL     1      24.915  -0.919  55.289  1.00  0.00    -0.414 NA
HETATM   10  C15 UNL     1      23.648  -1.261  55.244  1.00  0.00     0.186 C 
HETATM   11  C16 UNL     1      22.769  -0.831  54.371  1.00  0.00     0.064 C 
HETATM   12  C17 UNL     1      22.028  -0.206  53.304  1.00  0.00     0.071 C 
HETATM   13  N5  UNL     1      23.103   0.305  53.081  1.00  0.00    -0.248 NA
HETATM   14  H13 UNL     1      27.494   1.274  54.956  1.00  0.00     0.162 HD
ENDROOT
BRANCH   1  15
HETATM   15  N1  UNL     1      25.582   3.505  50.135  1.00  0.00    -0.322 N 
HETATM   16  C8  UNL     1      25.209   4.845  49.961  1.00  0.00     0.252 C 
HETATM   17  O2  UNL     1      24.688   5.118  51.105  1.00  0.00    -0.268 OA
HETATM   18  H10 UNL     1      26.040   3.106  49.293  1.00  0.00     0.169 HD
BRANCH  16  19
HETATM   19  C7  UNL     1      25.245   5.882  48.965  1.00  0.00     0.018 C 
HETATM   20  C5  UNL     1      26.186   6.497  48.291  1.00  0.00    -0.068 C 
HETATM   21  C4  UNL     1      25.996   7.592  47.264  1.00  0.00     0.064 C 
HETATM   22  C6  UNL     1      27.556   5.997  48.632  1.00  0.00     0.044 C 
HETATM   23  C3  UNL     1      25.012   8.559  47.837  1.00  0.00     0.010 C 
HETATM   24  C2  UNL     1      24.001   7.930  48.466  1.00  0.00     0.046 C 
HETATM   25  C23 UNL     1      23.912   6.445  48.557  1.00  0.00     0.108 C 
BRANCH  24  26
HETATM   26  O1  UNL     1      23.086   8.852  48.998  1.00  0.00    -0.360 OA
HETATM   27  C1  UNL     1      21.864   8.435  49.602  1.00  0.00     0.209 C 
ENDBRANCH  24  26
ENDBRANCH  16  19
ENDBRANCH   1  15
BRANCH  12  28
HETATM   28  C18 UNL     1      20.650  -0.257  52.845  1.00  0.00     0.010 A 
HETATM   29  C19 UNL     1      19.906  -1.068  53.655  1.00  0.00     0.017 A 
HETATM   30  C20 UNL     1      18.574  -1.150  53.261  1.00  0.00     0.020 A 
HETATM   31  C21 UNL     1      18.083  -0.467  52.154  1.00  0.00     0.116 A 
HETATM   32  N4  UNL     1      18.913   0.309  51.423  1.00  0.00    -0.272 NA
HETATM   33  C22 UNL     1      20.217   0.438  51.744  1.00  0.00     0.130 A 
ENDBRANCH  12  28
TORSDOF 4
ENDMDL
MODEL 6
REMARK VINA RESULT:      -8.6      3.280     10.281
REMARK  4 active torsions:
REMARK  status: ('A' for Active; 'I' for Inactive)
REMARK    1  A    between atoms: O1_2  and  C2_3 
REMARK    2  A    between atoms: C7_8  and  C8_9 
REMARK       I    between atoms: C8_9  and  N1_11 
REMARK    3  A    between atoms: N1_11  and  C9_12 
REMARK    4  A    between atoms: C17_23  and  C18_24 
ROOT
HETATM    1  C9  UNL     1      24.917   2.538  51.491  1.00  0.00     0.048 A 
HETATM    2  C10 UNL     1      23.650   2.019  51.530  1.00  0.00     0.062 A 
HETATM    3  C11 UNL     1      23.042   1.144  52.330  1.00  0.00     0.059 A 
HETATM    4  C12 UNL     1      24.160   0.906  53.169  1.00  0.00     0.109 A 
HETATM    5  C13 UNL     1      25.418   0.876  53.812  1.00  0.00     0.071 A 
HETATM    6  P1  UNL     1      26.085   2.043  52.672  1.00  0.00     0.000 P 
HETATM    7  N2  UNL     1      26.011   0.193  54.935  1.00  0.00    -0.362 N 
HETATM    8  C14 UNL     1      25.233  -0.955  55.307  1.00  0.00     0.270 C 
HETATM    9  N3  UNL     1      24.086  -1.259  55.273  1.00  0.00    -0.414 NA
HETATM   10  C15 UNL     1      22.799  -1.505  55.194  1.00  0.00     0.186 C 
HETATM   11  C16 UNL     1      21.964  -0.953  54.346  1.00  0.00     0.064 C 
HETATM   12  C17 UNL     1      21.283  -0.203  53.321  1.00  0.00     0.071 C 
HETATM   13  N5  UNL     1      22.395   0.244  53.143  1.00  0.00    -0.248 NA
HETATM   14  H13 UNL     1      26.819   0.762  55.117  1.00  0.00     0.162 HD
ENDROOT
BRANCH   1  15
HETATM   15  N1  UNL     1      25.131   3.458  50.452  1.00  0.00    -0.322 N 
HETATM   16  C8  UNL     1      24.860   4.831  50.372  1.00  0.00     0.252 C 
HETATM   17  O2  UNL     1      24.349   5.060  51.530  1.00  0.00    -0.268 OA
HETATM   18  H10 UNL     1      25.568   3.087  49.586  1.00  0.00     0.169 HD
BRANCH  16  19
HETATM   19  C7  UNL     1      24.983   5.931  49.453  1.00  0.00     0.018 C 
HETATM   20  C5  UNL     1      24.372   6.303  48.355  1.00  0.00    -0.068 C 
HETATM   21  C4  UNL     1      24.672   7.531  47.524  1.00  0.00     0.064 C 
HETATM   22  C6  UNL     1      23.276   5.361  47.962  1.00  0.00     0.044 C 
HETATM   23  C3  UNL     1      26.157   7.602  47.374  1.00  0.00     0.010 C 
HETATM   24  C2  UNL     1      26.790   7.295  48.523  1.00  0.00     0.046 C 
HETATM   25  C23 UNL     1      26.059   6.932  49.771  1.00  0.00     0.108 C 
BRANCH  24  26
HETATM   26  O1  UNL     1      28.183   7.366  48.366  1.00  0.00    -0.360 OA
HETATM   27  C1  UNL     1      28.962   6.220  48.033  1.00  0.00     0.209 C 
ENDBRANCH  24  26
ENDBRANCH  16  19
ENDBRANCH   1  15
BRANCH  12  28
HETATM   28  C18 UNL     1      19.911  -0.122  52.849  1.00  0.00     0.010 A 
HETATM   29  C19 UNL     1      19.136  -1.062  53.469  1.00  0.00     0.017 A 
HETATM   30  C20 UNL     1      17.808  -1.026  53.054  1.00  0.00     0.020 A 
HETATM   31  C21 UNL     1      17.350  -0.119  52.106  1.00  0.00     0.116 A 
HETATM   32  N4  UNL     1      18.208   0.768  51.557  1.00  0.00    -0.272 NA
HETATM   33  C22 UNL     1      19.510   0.794  51.910  1.00  0.00     0.130 A 
ENDBRANCH  12  28
TORSDOF 4
ENDMDL
MODEL 7
REMARK VINA RESULT:      -8.5      3.029      6.325
REMARK  4 active torsions:
REMARK  status: ('A' for Active; 'I' for Inactive)
REMARK    1  A    between atoms: O1_2  and  C2_3 
REMARK    2  A    between atoms: C7_8  and  C8_9 
REMARK       I    between atoms: C8_9  and  N1_11 
REMARK    3  A    between atoms: N1_11  and  C9_12 
REMARK    4  A    between atoms: C17_23  and  C18_24 
ROOT
HETATM    1  C9  UNL     1      24.362   2.870  50.393  1.00  0.00     0.048 A 
HETATM    2  C10 UNL     1      23.488   3.691  49.732  1.00  0.00     0.062 A 
HETATM    3  C11 UNL     1      23.644   4.784  48.984  1.00  0.00     0.059 A 
HETATM    4  C12 UNL     1      25.057   4.836  49.088  1.00  0.00     0.109 A 
HETATM    5  C13 UNL     1      26.426   4.628  49.370  1.00  0.00     0.071 A 
HETATM    6  P1  UNL     1      26.063   3.199  50.334  1.00  0.00     0.000 P 
HETATM    7  N2  UNL     1      27.676   5.276  49.056  1.00  0.00    -0.362 N 
HETATM    8  C14 UNL     1      27.459   6.619  48.599  1.00  0.00     0.270 C 
HETATM    9  N3  UNL     1      26.604   7.194  48.010  1.00  0.00    -0.414 NA
HETATM   10  C15 UNL     1      25.608   7.745  47.355  1.00  0.00     0.186 C 
HETATM   11  C16 UNL     1      24.367   7.319  47.349  1.00  0.00     0.064 C 
HETATM   12  C17 UNL     1      23.106   6.642  47.519  1.00  0.00     0.071 C 
HETATM   13  N5  UNL     1      23.781   5.911  48.210  1.00  0.00    -0.248 NA
HETATM   14  H13 UNL     1      28.339   4.549  49.261  1.00  0.00     0.162 HD
ENDROOT
BRANCH   1  15
HETATM   15  N1  UNL     1      23.750   1.803  51.071  1.00  0.00    -0.322 N 
HETATM   16  C8  UNL     1      23.364   1.667  52.411  1.00  0.00     0.252 C 
HETATM   17  O2  UNL     1      23.716   2.806  52.897  1.00  0.00    -0.268 OA
HETATM   18  H10 UNL     1      23.529   0.960  50.505  1.00  0.00     0.169 HD
BRANCH  16  19
HETATM   19  C7  UNL     1      22.752   0.711  53.295  1.00  0.00     0.018 C 
HETATM   20  C5  UNL     1      23.156  -0.356  53.940  1.00  0.00    -0.068 C 
HETATM   21  C4  UNL     1      22.320  -1.239  54.839  1.00  0.00     0.064 C 
HETATM   22  C6  UNL     1      24.606  -0.650  53.711  1.00  0.00     0.044 C 
HETATM   23  C3  UNL     1      21.029  -1.487  54.128  1.00  0.00     0.010 C 
HETATM   24  C2  UNL     1      20.570  -0.373  53.526  1.00  0.00     0.046 C 
HETATM   25  C23 UNL     1      21.293   0.929  53.585  1.00  0.00     0.108 C 
BRANCH  24  26
HETATM   26  O1  UNL     1      19.358  -0.622  52.863  1.00  0.00    -0.360 OA
HETATM   27  C1  UNL     1      18.958   0.131  51.721  1.00  0.00     0.209 C 
ENDBRANCH  24  26
ENDBRANCH  16  19
ENDBRANCH   1  15
BRANCH  12  28
HETATM   28  C18 UNL     1      21.755   6.851  47.026  1.00  0.00     0.010 A 
HETATM   29  C19 UNL     1      21.438   5.910  46.087  1.00  0.00     0.017 A 
HETATM   30  C20 UNL     1      20.150   6.062  45.582  1.00  0.00     0.020 A 
HETATM   31  C21 UNL     1      19.300   7.075  46.009  1.00  0.00     0.116 A 
HETATM   32  N4  UNL     1      19.721   7.954  46.946  1.00  0.00    -0.272 NA
HETATM   33  C22 UNL     1      20.956   7.869  47.481  1.00  0.00     0.130 A 
ENDBRANCH  12  28
TORSDOF 4
ENDMDL
MODEL 8
REMARK VINA RESULT:      -8.5      1.891      2.838
REMARK  4 active torsions:
REMARK  status: ('A' for Active; 'I' for Inactive)
REMARK    1  A    between atoms: O1_2  and  C2_3 
REMARK    2  A    between atoms: C7_8  and  C8_9 
REMARK       I    between atoms: C8_9  and  N1_11 
REMARK    3  A    between atoms: N1_11  and  C9_12 
REMARK    4  A    between atoms: C17_23  and  C18_24 
ROOT
HETATM    1  C9  UNL     1      24.669   5.083  50.222  1.00  0.00     0.048 A 
HETATM    2  C10 UNL     1      25.992   5.236  49.906  1.00  0.00     0.062 A 
HETATM    3  C11 UNL     1      26.642   5.987  49.017  1.00  0.00     0.059 A 
HETATM    4  C12 UNL     1      25.489   6.610  48.475  1.00  0.00     0.109 A 
HETATM    5  C13 UNL     1      24.187   7.049  48.147  1.00  0.00     0.071 A 
HETATM    6  P1  UNL     1      23.470   5.998  49.367  1.00  0.00     0.000 P 
HETATM    7  N2  UNL     1      23.590   7.965  47.206  1.00  0.00    -0.362 N 
HETATM    8  C14 UNL     1      24.505   8.284  46.148  1.00  0.00     0.270 C 
HETATM    9  N3  UNL     1      25.683   8.377  46.035  1.00  0.00    -0.414 NA
HETATM   10  C15 UNL     1      26.994   8.456  46.007  1.00  0.00     0.186 C 
HETATM   11  C16 UNL     1      27.817   7.827  46.812  1.00  0.00     0.064 C 
HETATM   12  C17 UNL     1      28.475   7.029  47.816  1.00  0.00     0.071 C 
HETATM   13  N5  UNL     1      27.333   6.753  48.109  1.00  0.00    -0.248 NA
HETATM   14  H13 UNL     1      22.679   8.103  47.606  1.00  0.00     0.162 HD
ENDROOT
BRANCH   1  15
HETATM   15  N1  UNL     1      24.425   4.164  51.255  1.00  0.00    -0.322 N 
HETATM   16  C8  UNL     1      23.980   2.836  51.215  1.00  0.00     0.252 C 
HETATM   17  O2  UNL     1      23.845   2.647  49.950  1.00  0.00    -0.268 OA
HETATM   18  H10 UNL     1      24.601   4.496  52.223  1.00  0.00     0.169 HD
BRANCH  16  19
HETATM   19  C7  UNL     1      23.667   1.747  52.102  1.00  0.00     0.018 C 
HETATM   20  C5  UNL     1      24.328   0.732  52.604  1.00  0.00    -0.068 C 
HETATM   21  C4  UNL     1      23.788  -0.324  53.543  1.00  0.00     0.064 C 
HETATM   22  C6  UNL     1      25.756   0.699  52.154  1.00  0.00     0.044 C 
HETATM   23  C3  UNL     1      22.462  -0.749  53.002  1.00  0.00     0.010 C 
HETATM   24  C2  UNL     1      21.746   0.300  52.553  1.00  0.00     0.046 C 
HETATM   25  C23 UNL     1      22.252   1.701  52.609  1.00  0.00     0.108 C 
BRANCH  24  26
HETATM   26  O1  UNL     1      20.504  -0.116  52.049  1.00  0.00    -0.360 OA
HETATM   27  C1  UNL     1      19.787   0.654  51.087  1.00  0.00     0.209 C 
ENDBRANCH  24  26
ENDBRANCH  16  19
ENDBRANCH   1  15
BRANCH  12  28
HETATM   28  C18 UNL     1      29.859   6.781  48.184  1.00  0.00     0.010 A 
HETATM   29  C19 UNL     1      30.226   5.511  47.838  1.00  0.00     0.017 A 
HETATM   30  C20 UNL     1      31.546   5.221  48.166  1.00  0.00     0.020 A 
HETATM   31  C21 UNL     1      32.380   6.148  48.781  1.00  0.00     0.116 A 
HETATM   32  N4  UNL     1      31.909   7.379  49.078  1.00  0.00    -0.272 NA
HETATM   33  C22 UNL     1      30.640   7.732  48.790  1.00  0.00     0.130 A 
ENDBRANCH  12  28
TORSDOF 4
ENDMDL
MODEL 9
REMARK VINA RESULT:      -8.2      3.178      9.966
REMARK  4 active torsions:
REMARK  status: ('A' for Active; 'I' for Inactive)
REMARK    1  A    between atoms: O1_2  and  C2_3 
REMARK    2  A    between atoms: C7_8  and  C8_9 
REMARK       I    between atoms: C8_9  and  N1_11 
REMARK    3  A    between atoms: N1_11  and  C9_12 
REMARK    4  A    between atoms: C17_23  and  C18_24 
ROOT
HETATM    1  C9  UNL     1      25.399   3.270  50.176  1.00  0.00     0.048 A 
HETATM    2  C10 UNL     1      24.064   2.973  50.245  1.00  0.00     0.062 A 
HETATM    3  C11 UNL     1      23.347   2.140  50.999  1.00  0.00     0.059 A 
HETATM    4  C12 UNL     1      24.442   1.633  51.744  1.00  0.00     0.109 A 
HETATM    5  C13 UNL     1      25.702   1.327  52.305  1.00  0.00     0.071 A 
HETATM    6  P1  UNL     1      26.513   2.470  51.237  1.00  0.00     0.000 P 
HETATM    7  N2  UNL     1      26.215   0.445  53.325  1.00  0.00    -0.362 N 
HETATM    8  C14 UNL     1      25.265  -0.584  53.639  1.00  0.00     0.270 C 
HETATM    9  N3  UNL     1      24.082  -0.683  53.646  1.00  0.00    -0.414 NA
HETATM   10  C15 UNL     1      22.769  -0.699  53.623  1.00  0.00     0.186 C 
HETATM   11  C16 UNL     1      22.007   0.068  52.880  1.00  0.00     0.064 C 
HETATM   12  C17 UNL     1      21.424   1.021  51.969  1.00  0.00     0.071 C 
HETATM   13  N5  UNL     1      22.588   1.288  51.765  1.00  0.00    -0.248 NA
HETATM   14  H13 UNL     1      27.117   0.848  53.508  1.00  0.00     0.162 HD
ENDROOT
BRANCH   1  15
HETATM   15  N1  UNL     1      25.725   4.239  49.214  1.00  0.00    -0.322 N 
HETATM   16  C8  UNL     1      25.754   5.638  49.292  1.00  0.00     0.252 C 
HETATM   17  O2  UNL     1      25.397   5.834  50.513  1.00  0.00    -0.268 OA
HETATM   18  H10 UNL     1      26.001   3.887  48.276  1.00  0.00     0.169 HD
BRANCH  16  19
HETATM   19  C7  UNL     1      26.040   6.786  48.474  1.00  0.00     0.018 C 
HETATM   20  C5  UNL     1      25.366   7.511  47.615  1.00  0.00    -0.068 C 
HETATM   21  C4  UNL     1      25.877   8.709  46.845  1.00  0.00     0.064 C 
HETATM   22  C6  UNL     1      23.956   7.037  47.446  1.00  0.00     0.044 C 
HETATM   23  C3  UNL     1      27.225   8.342  46.313  1.00  0.00     0.010 C 
HETATM   24  C2  UNL     1      27.951   7.661  47.221  1.00  0.00     0.046 C 
HETATM   25  C23 UNL     1      27.435   7.335  48.581  1.00  0.00     0.108 C 
BRANCH  24  26
HETATM   26  O1  UNL     1      29.212   7.324  46.706  1.00  0.00    -0.360 OA
HETATM   27  C1  UNL     1      30.172   8.319  46.356  1.00  0.00     0.209 C 
ENDBRANCH  24  26
ENDBRANCH  16  19
ENDBRANCH   1  15
BRANCH  12  28
HETATM   28  C18 UNL     1      20.068   1.380  51.589  1.00  0.00     0.010 A 
HETATM   29  C19 UNL     1      19.522   0.412  50.794  1.00  0.00     0.017 A 
HETATM   30  C20 UNL     1      18.220   0.705  50.403  1.00  0.00     0.020 A 
HETATM   31  C21 UNL     1      17.570   1.869  50.796  1.00  0.00     0.116 A 
HETATM   32  N4  UNL     1      18.209   2.760  51.586  1.00  0.00    -0.272 NA
HETATM   33  C22 UNL     1      19.473   2.544  52.005  1.00  0.00     0.130 A 
ENDBRANCH  12  28
TORSDOF 4
ENDMDL
