MODEL 1
REMARK VINA RESULT:      -9.4      0.000      0.000
REMARK  5 active torsions:
REMARK  status: ('A' for Active; 'I' for Inactive)
REMARK    1  A    between atoms: N1_7  and  C6_8 
REMARK    2  A    between atoms: C6_8  and  C8_10 
REMARK       I    between atoms: C8_10  and  N2_12 
REMARK    3  A    between atoms: N2_12  and  C9_13 
REMARK    4  A    between atoms: C16_22  and  N5_23 
REMARK    5  A    between atoms: N5_23  and  C17_24 
ROOT
HETATM    1  C9  UNL     1      22.837   0.906  52.439  1.00  0.00     0.035 A 
HETATM    2  C10 UNL     1      21.942  -0.044  51.977  1.00  0.00     0.032 A 
HETATM    3  C11 UNL     1      21.187   0.262  50.839  1.00  0.00     0.035 A 
HETATM    4  C12 UNL     1      21.341   1.481  50.204  1.00  0.00     0.069 A 
HETATM    5  N3  UNL     1      20.608   1.762  49.112  1.00  0.00    -0.259 NA
HETATM    6  C13 UNL     1      20.704   2.932  48.440  1.00  0.00     0.142 A 
HETATM    7  C14 UNL     1      21.591   3.890  48.888  1.00  0.00     0.089 A 
HETATM    8  C15 UNL     1      21.770   5.164  48.247  1.00  0.00     0.103 C 
HETATM    9  N4  UNL     1      21.918   6.196  47.748  1.00  0.00    -0.191 NA
HETATM   10  C16 UNL     1      22.357   3.631  50.005  1.00  0.00     0.067 A 
HETATM   11  C23 UNL     1      22.248   2.419  50.690  1.00  0.00     0.023 A 
HETATM   12  C24 UNL     1      23.012   2.133  51.825  1.00  0.00     0.045 A 
ENDROOT
BRANCH  10  13
HETATM   13  N5  UNL     1      23.319   4.541  50.577  1.00  0.00    -0.354 N 
HETATM   14  H17 UNL     1      23.146   5.172  51.384  1.00  0.00     0.166 HD
BRANCH  13  15
HETATM   15  C17 UNL     1      24.618   4.583  49.993  1.00  0.00     0.034 A 
HETATM   16  C18 UNL     1      25.451   3.482  49.951  1.00  0.00     0.032 A 
HETATM   17  C19 UNL     1      26.716   3.477  49.398  1.00  0.00     0.046 A 
HETATM   18  C20 UNL     1      27.196   4.648  48.841  1.00  0.00     0.138 A 
HETATM   19  F1  UNL     1      28.421   4.774  48.265  1.00  0.00    -0.204 F 
HETATM   20  C21 UNL     1      26.392   5.767  48.863  1.00  0.00     0.074 A 
HETATM   21 CL1  UNL     1      26.851   7.330  48.201  1.00  0.00    -0.081 Cl
HETATM   22  C22 UNL     1      25.122   5.751  49.427  1.00  0.00     0.056 A 
ENDBRANCH  13  15
ENDBRANCH  10  13
BRANCH   1  23
HETATM   23  N2  UNL     1      23.584   0.553  53.596  1.00  0.00    -0.325 N 
HETATM   24  C8  UNL     1      24.988   0.549  53.431  1.00  0.00     0.244 C 
HETATM   25  O2  UNL     1      25.417   0.867  52.265  1.00  0.00    -0.271 OA
HETATM   26  H13 UNL     1      23.339   0.297  54.572  1.00  0.00     0.169 HD
BRANCH  24  27
HETATM   27  C6  UNL     1      26.161   0.248  54.336  1.00  0.00     0.172 C 
HETATM   28  C7  UNL     1      25.660  -0.415  55.590  1.00  0.00     0.042 C 
BRANCH  27  29
HETATM   29  N1  UNL     1      27.092  -0.523  53.585  1.00  0.00    -0.370 N 
HETATM   30  C2  UNL     1      28.470  -0.187  53.479  1.00  0.00     0.009 C 
HETATM   31  C1  UNL     1      28.795   1.090  53.430  1.00  0.00     0.060 C 
HETATM   32  C3  UNL     1      29.423  -1.339  53.434  1.00  0.00     0.219 C 
HETATM   33  O1  UNL     1      28.726  -2.547  53.485  1.00  0.00    -0.384 OA
HETATM   34  C4  UNL     1      27.739  -2.564  52.530  1.00  0.00     0.187 C 
HETATM   35  C5  UNL     1      26.554  -1.715  52.906  1.00  0.00     0.149 C 
ENDBRANCH  27  29
ENDBRANCH  24  27
ENDBRANCH   1  23
TORSDOF 5
ENDMDL
MODEL 2
REMARK VINA RESULT:      -9.4      3.316      6.940
REMARK  5 active torsions:
REMARK  status: ('A' for Active; 'I' for Inactive)
REMARK    1  A    between atoms: N1_7  and  C6_8 
REMARK    2  A    between atoms: C6_8  and  C8_10 
REMARK       I    between atoms: C8_10  and  N2_12 
REMARK    3  A    between atoms: N2_12  and  C9_13 
REMARK    4  A    between atoms: C16_22  and  N5_23 
REMARK    5  A    between atoms: N5_23  and  C17_24 
ROOT
HETATM    1  C9  UNL     1      24.161   3.164  49.704  1.00  0.00     0.035 A 
HETATM    2  C10 UNL     1      23.182   2.854  48.775  1.00  0.00     0.032 A 
HETATM    3  C11 UNL     1      22.212   1.911  49.132  1.00  0.00     0.035 A 
HETATM    4  C12 UNL     1      22.242   1.314  50.380  1.00  0.00     0.069 A 
HETATM    5  N3  UNL     1      21.303   0.409  50.709  1.00  0.00    -0.259 NA
HETATM    6  C13 UNL     1      21.269  -0.214  51.909  1.00  0.00     0.142 A 
HETATM    7  C14 UNL     1      22.238   0.083  52.846  1.00  0.00     0.089 A 
HETATM    8  C15 UNL     1      22.291  -0.522  54.149  1.00  0.00     0.103 C 
HETATM    9  N4  UNL     1      22.352  -1.007  55.196  1.00  0.00    -0.191 NA
HETATM   10  C16 UNL     1      23.213   1.008  52.537  1.00  0.00     0.067 A 
HETATM   11  C23 UNL     1      23.238   1.645  51.294  1.00  0.00     0.023 A 
HETATM   12  C24 UNL     1      24.216   2.584  50.958  1.00  0.00     0.045 A 
ENDROOT
BRANCH  10  13
HETATM   13  N5  UNL     1      24.279   1.410  53.421  1.00  0.00    -0.354 N 
HETATM   14  H17 UNL     1      24.221   2.166  54.132  1.00  0.00     0.166 HD
BRANCH  13  15
HETATM   15  C17 UNL     1      25.521   0.717  53.319  1.00  0.00     0.034 A 
HETATM   16  C18 UNL     1      25.630  -0.533  52.742  1.00  0.00     0.032 A 
HETATM   17  C19 UNL     1      26.810  -1.240  52.623  1.00  0.00     0.046 A 
HETATM   18  C20 UNL     1      27.972  -0.670  53.109  1.00  0.00     0.138 A 
HETATM   19  F1  UNL     1      29.194  -1.262  53.053  1.00  0.00    -0.204 F 
HETATM   20  C21 UNL     1      27.901   0.576  53.692  1.00  0.00     0.074 A 
HETATM   21 CL1  UNL     1      29.282   1.438  54.359  1.00  0.00    -0.081 Cl
HETATM   22  C22 UNL     1      26.703   1.271  53.803  1.00  0.00     0.056 A 
ENDBRANCH  13  15
ENDBRANCH  10  13
BRANCH   1  23
HETATM   23  N2  UNL     1      25.126   4.128  49.300  1.00  0.00    -0.325 N 
HETATM   24  C8  UNL     1      24.747   5.477  49.487  1.00  0.00     0.244 C 
HETATM   25  O2  UNL     1      23.588   5.668  50.002  1.00  0.00    -0.271 OA
HETATM   26  H13 UNL     1      26.079   4.078  48.893  1.00  0.00     0.169 HD
BRANCH  24  27
HETATM   27  C6  UNL     1      25.407   6.810  49.219  1.00  0.00     0.172 C 
HETATM   28  C7  UNL     1      25.609   7.532  50.523  1.00  0.00     0.042 C 
BRANCH  27  29
HETATM   29  N1  UNL     1      26.600   6.556  48.488  1.00  0.00    -0.370 N 
HETATM   30  C2  UNL     1      27.106   7.442  47.496  1.00  0.00     0.009 C 
HETATM   31  C1  UNL     1      26.240   8.086  46.740  1.00  0.00     0.060 C 
HETATM   32  C3  UNL     1      28.596   7.551  47.415  1.00  0.00     0.219 C 
HETATM   33  O1  UNL     1      29.196   6.709  48.353  1.00  0.00    -0.384 OA
HETATM   34  C4  UNL     1      28.694   5.437  48.235  1.00  0.00     0.187 C 
HETATM   35  C5  UNL     1      27.308   5.304  48.810  1.00  0.00     0.149 C 
ENDBRANCH  27  29
ENDBRANCH  24  27
ENDBRANCH   1  23
TORSDOF 5
ENDMDL
MODEL 3
REMARK VINA RESULT:      -9.3      3.455      5.038
REMARK  5 active torsions:
REMARK  status: ('A' for Active; 'I' for Inactive)
REMARK    1  A    between atoms: N1_7  and  C6_8 
REMARK    2  A    between atoms: C6_8  and  C8_10 
REMARK       I    between atoms: C8_10  and  N2_12 
REMARK    3  A    between atoms: N2_12  and  C9_13 
REMARK    4  A    between atoms: C16_22  and  N5_23 
REMARK    5  A    between atoms: N5_23  and  C17_24 
ROOT
HETATM    1  C9  UNL     1      24.875   2.936  51.809  1.00  0.00     0.035 A 
HETATM    2  C10 UNL     1      25.520   3.169  50.606  1.00  0.00     0.032 A 
HETATM    3  C11 UNL     1      24.755   3.628  49.528  1.00  0.00     0.035 A 
HETATM    4  C12 UNL     1      23.396   3.840  49.674  1.00  0.00     0.069 A 
HETATM    5  N3  UNL     1      22.673   4.281  48.629  1.00  0.00    -0.259 NA
HETATM    6  C13 UNL     1      21.342   4.510  48.698  1.00  0.00     0.142 A 
HETATM    7  C14 UNL     1      20.684   4.283  49.890  1.00  0.00     0.089 A 
HETATM    8  C15 UNL     1      19.273   4.495  50.068  1.00  0.00     0.103 C 
HETATM    9  N4  UNL     1      18.139   4.651  50.224  1.00  0.00    -0.191 NA
HETATM   10  C16 UNL     1      21.399   3.830  50.979  1.00  0.00     0.067 A 
HETATM   11  C23 UNL     1      22.773   3.597  50.895  1.00  0.00     0.023 A 
HETATM   12  C24 UNL     1      23.518   3.139  51.985  1.00  0.00     0.045 A 
ENDROOT
BRANCH  10  13
HETATM   13  N5  UNL     1      20.837   3.554  52.278  1.00  0.00    -0.354 N 
HETATM   14  H17 UNL     1      20.739   4.242  53.052  1.00  0.00     0.166 HD
BRANCH  13  15
HETATM   15  C17 UNL     1      20.374   2.230  52.532  1.00  0.00     0.034 A 
HETATM   16  C18 UNL     1      19.279   1.689  51.886  1.00  0.00     0.032 A 
HETATM   17  C19 UNL     1      18.795   0.414  52.101  1.00  0.00     0.046 A 
HETATM   18  C20 UNL     1      19.441  -0.390  53.022  1.00  0.00     0.138 A 
HETATM   19  F1  UNL     1      19.065  -1.661  53.323  1.00  0.00    -0.204 F 
HETATM   20  C21 UNL     1      20.537   0.117  53.686  1.00  0.00     0.074 A 
HETATM   21 CL1  UNL     1      21.468  -0.772  54.885  1.00  0.00    -0.081 Cl
HETATM   22  C22 UNL     1      21.008   1.404  53.455  1.00  0.00     0.056 A 
ENDBRANCH  13  15
ENDBRANCH  10  13
BRANCH   1  23
HETATM   23  N2  UNL     1      25.690   2.471  52.878  1.00  0.00    -0.325 N 
HETATM   24  C8  UNL     1      25.550   1.100  53.191  1.00  0.00     0.244 C 
HETATM   25  O2  UNL     1      24.714   0.442  52.475  1.00  0.00    -0.271 OA
HETATM   26  H13 UNL     1      26.396   2.909  53.500  1.00  0.00     0.169 HD
BRANCH  24  27
HETATM   27  C6  UNL     1      26.177   0.176  54.211  1.00  0.00     0.172 C 
HETATM   28  C7  UNL     1      25.113  -0.716  54.790  1.00  0.00     0.042 C 
BRANCH  27  29
HETATM   29  N1  UNL     1      27.243  -0.510  53.566  1.00  0.00    -0.370 N 
HETATM   30  C2  UNL     1      28.599  -0.087  53.645  1.00  0.00     0.009 C 
HETATM   31  C1  UNL     1      28.844   1.207  53.671  1.00  0.00     0.060 C 
HETATM   32  C3  UNL     1      29.623  -1.177  53.692  1.00  0.00     0.219 C 
HETATM   33  O1  UNL     1      29.005  -2.426  53.622  1.00  0.00    -0.384 OA
HETATM   34  C4  UNL     1      28.149  -2.471  52.550  1.00  0.00     0.187 C 
HETATM   35  C5  UNL     1      26.873  -1.709  52.793  1.00  0.00     0.149 C 
ENDBRANCH  27  29
ENDBRANCH  24  27
ENDBRANCH   1  23
TORSDOF 5
ENDMDL
MODEL 4
REMARK VINA RESULT:      -9.2      4.136      7.627
REMARK  5 active torsions:
REMARK  status: ('A' for Active; 'I' for Inactive)
REMARK    1  A    between atoms: N1_7  and  C6_8 
REMARK    2  A    between atoms: C6_8  and  C8_10 
REMARK       I    between atoms: C8_10  and  N2_12 
REMARK    3  A    between atoms: N2_12  and  C9_13 
REMARK    4  A    between atoms: C16_22  and  N5_23 
REMARK    5  A    between atoms: N5_23  and  C17_24 
ROOT
HETATM    1  C9  UNL     1      25.142   6.173  50.375  1.00  0.00     0.035 A 
HETATM    2  C10 UNL     1      24.156   7.103  50.659  1.00  0.00     0.032 A 
HETATM    3  C11 UNL     1      22.940   6.636  51.169  1.00  0.00     0.035 A 
HETATM    4  C12 UNL     1      22.742   5.282  51.379  1.00  0.00     0.069 A 
HETATM    5  N3  UNL     1      21.568   4.847  51.869  1.00  0.00    -0.259 NA
HETATM    6  C13 UNL     1      21.303   3.541  52.100  1.00  0.00     0.142 A 
HETATM    7  C14 UNL     1      22.276   2.602  51.821  1.00  0.00     0.089 A 
HETATM    8  C15 UNL     1      22.097   1.191  52.030  1.00  0.00     0.103 C 
HETATM    9  N4  UNL     1      21.964   0.053  52.184  1.00  0.00    -0.191 NA
HETATM   10  C16 UNL     1      23.490   3.018  51.317  1.00  0.00     0.067 A 
HETATM   11  C23 UNL     1      23.751   4.370  51.084  1.00  0.00     0.023 A 
HETATM   12  C24 UNL     1      24.973   4.815  50.574  1.00  0.00     0.045 A 
ENDROOT
BRANCH  10  13
HETATM   13  N5  UNL     1      24.589   2.145  50.985  1.00  0.00    -0.354 N 
HETATM   14  H17 UNL     1      24.882   1.883  50.023  1.00  0.00     0.166 HD
BRANCH  13  15
HETATM   15  C17 UNL     1      25.344   1.591  52.060  1.00  0.00     0.034 A 
HETATM   16  C18 UNL     1      25.588   2.283  53.231  1.00  0.00     0.032 A 
HETATM   17  C19 UNL     1      26.313   1.788  54.296  1.00  0.00     0.046 A 
HETATM   18  C20 UNL     1      26.837   0.512  54.201  1.00  0.00     0.138 A 
HETATM   19  F1  UNL     1      27.567  -0.089  55.177  1.00  0.00    -0.204 F 
HETATM   20  C21 UNL     1      26.613  -0.208  53.047  1.00  0.00     0.074 A 
HETATM   21 CL1  UNL     1      27.209  -1.839  52.766  1.00  0.00    -0.081 Cl
HETATM   22  C22 UNL     1      25.881   0.309  51.986  1.00  0.00     0.056 A 
ENDBRANCH  13  15
ENDBRANCH  10  13
BRANCH   1  23
HETATM   23  N2  UNL     1      26.362   6.692  49.859  1.00  0.00    -0.325 N 
HETATM   24  C8  UNL     1      26.346   7.017  48.483  1.00  0.00     0.244 C 
HETATM   25  O2  UNL     1      25.238   6.813  47.870  1.00  0.00    -0.271 OA
HETATM   26  H13 UNL     1      27.293   6.905  50.265  1.00  0.00     0.169 HD
BRANCH  24  27
HETATM   27  C6  UNL     1      27.363   7.576  47.514  1.00  0.00     0.172 C 
HETATM   28  C7  UNL     1      26.788   8.793  46.842  1.00  0.00     0.042 C 
BRANCH  27  29
HETATM   29  N1  UNL     1      28.562   7.810  48.243  1.00  0.00    -0.370 N 
HETATM   30  C2  UNL     1      29.671   6.919  48.219  1.00  0.00     0.009 C 
HETATM   31  C1  UNL     1      29.425   5.626  48.153  1.00  0.00     0.060 C 
HETATM   32  C3  UNL     1      31.023   7.555  48.271  1.00  0.00     0.219 C 
HETATM   33  O1  UNL     1      30.903   8.943  48.358  1.00  0.00    -0.384 OA
HETATM   34  C4  UNL     1      30.057   9.280  49.385  1.00  0.00     0.187 C 
HETATM   35  C5  UNL     1      28.608   9.047  49.043  1.00  0.00     0.149 C 
ENDBRANCH  27  29
ENDBRANCH  24  27
ENDBRANCH   1  23
TORSDOF 5
ENDMDL
MODEL 5
REMARK VINA RESULT:      -9.1      4.091      8.400
REMARK  5 active torsions:
REMARK  status: ('A' for Active; 'I' for Inactive)
REMARK    1  A    between atoms: N1_7  and  C6_8 
REMARK    2  A    between atoms: C6_8  and  C8_10 
REMARK       I    between atoms: C8_10  and  N2_12 
REMARK    3  A    between atoms: N2_12  and  C9_13 
REMARK    4  A    between atoms: C16_22  and  N5_23 
REMARK    5  A    between atoms: N5_23  and  C17_24 
ROOT
HETATM    1  C9  UNL     1      25.160   3.338  51.124  1.00  0.00     0.035 A 
HETATM    2  C10 UNL     1      26.410   2.790  50.889  1.00  0.00     0.032 A 
HETATM    3  C11 UNL     1      26.700   1.546  51.459  1.00  0.00     0.035 A 
HETATM    4  C12 UNL     1      25.756   0.892  52.231  1.00  0.00     0.069 A 
HETATM    5  N3  UNL     1      26.048  -0.304  52.772  1.00  0.00    -0.259 NA
HETATM    6  C13 UNL     1      25.176  -1.001  53.536  1.00  0.00     0.142 A 
HETATM    7  C14 UNL     1      23.926  -0.469  53.779  1.00  0.00     0.089 A 
HETATM    8  C15 UNL     1      22.927  -1.127  54.577  1.00  0.00     0.103 C 
HETATM    9  N4  UNL     1      22.118  -1.640  55.223  1.00  0.00    -0.191 NA
HETATM   10  C16 UNL     1      23.597   0.756  53.238  1.00  0.00     0.067 A 
HETATM   11  C23 UNL     1      24.507   1.465  52.450  1.00  0.00     0.023 A 
HETATM   12  C24 UNL     1      24.197   2.708  51.891  1.00  0.00     0.045 A 
ENDROOT
BRANCH  10  13
HETATM   13  N5  UNL     1      22.330   1.423  53.412  1.00  0.00    -0.354 N 
HETATM   14  H17 UNL     1      22.136   2.179  54.099  1.00  0.00     0.166 HD
BRANCH  13  15
HETATM   15  C17 UNL     1      21.249   1.019  52.576  1.00  0.00     0.034 A 
HETATM   16  C18 UNL     1      21.217   1.287  51.221  1.00  0.00     0.032 A 
HETATM   17  C19 UNL     1      20.191   0.917  50.374  1.00  0.00     0.046 A 
HETATM   18  C20 UNL     1      19.115   0.229  50.903  1.00  0.00     0.138 A 
HETATM   19  F1  UNL     1      18.046  -0.191  50.177  1.00  0.00    -0.204 F 
HETATM   20  C21 UNL     1      19.113  -0.057  52.251  1.00  0.00     0.074 A 
HETATM   21 CL1  UNL     1      17.825  -0.921  53.079  1.00  0.00    -0.081 Cl
HETATM   22  C22 UNL     1      20.156   0.326  53.086  1.00  0.00     0.056 A 
ENDBRANCH  13  15
ENDBRANCH  10  13
BRANCH   1  23
HETATM   23  N2  UNL     1      24.908   4.603  50.526  1.00  0.00    -0.325 N 
HETATM   24  C8  UNL     1      24.108   4.572  49.361  1.00  0.00     0.244 C 
HETATM   25  O2  UNL     1      23.703   3.413  48.988  1.00  0.00    -0.271 OA
HETATM   26  H13 UNL     1      25.172   5.581  50.751  1.00  0.00     0.169 HD
BRANCH  24  27
HETATM   27  C6  UNL     1      23.588   5.620  48.403  1.00  0.00     0.172 C 
HETATM   28  C7  UNL     1      22.632   4.975  47.437  1.00  0.00     0.042 C 
BRANCH  27  29
HETATM   29  N1  UNL     1      23.027   6.669  49.183  1.00  0.00    -0.370 N 
HETATM   30  C2  UNL     1      23.459   8.021  49.090  1.00  0.00     0.009 C 
HETATM   31  C1  UNL     1      24.740   8.249  48.877  1.00  0.00     0.060 C 
HETATM   32  C3  UNL     1      22.395   9.060  49.246  1.00  0.00     0.219 C 
HETATM   33  O1  UNL     1      21.159   8.457  49.483  1.00  0.00    -0.384 OA
HETATM   34  C4  UNL     1      21.261   7.561  50.518  1.00  0.00     0.187 C 
HETATM   35  C5  UNL     1      21.952   6.285  50.116  1.00  0.00     0.149 C 
ENDBRANCH  27  29
ENDBRANCH  24  27
ENDBRANCH   1  23
TORSDOF 5
ENDMDL
MODEL 6
REMARK VINA RESULT:      -9.1      3.270      7.057
REMARK  5 active torsions:
REMARK  status: ('A' for Active; 'I' for Inactive)
REMARK    1  A    between atoms: N1_7  and  C6_8 
REMARK    2  A    between atoms: C6_8  and  C8_10 
REMARK       I    between atoms: C8_10  and  N2_12 
REMARK    3  A    between atoms: N2_12  and  C9_13 
REMARK    4  A    between atoms: C16_22  and  N5_23 
REMARK    5  A    between atoms: N5_23  and  C17_24 
ROOT
HETATM    1  C9  UNL     1      25.786   3.005  51.360  1.00  0.00     0.035 A 
HETATM    2  C10 UNL     1      26.819   2.109  51.585  1.00  0.00     0.032 A 
HETATM    3  C11 UNL     1      26.509   0.889  52.196  1.00  0.00     0.035 A 
HETATM    4  C12 UNL     1      25.205   0.599  52.559  1.00  0.00     0.069 A 
HETATM    5  N3  UNL     1      24.922  -0.578  53.145  1.00  0.00    -0.259 NA
HETATM    6  C13 UNL     1      23.673  -0.930  53.526  1.00  0.00     0.142 A 
HETATM    7  C14 UNL     1      22.634  -0.049  53.309  1.00  0.00     0.089 A 
HETATM    8  C15 UNL     1      21.271  -0.326  53.675  1.00  0.00     0.103 C 
HETATM    9  N4  UNL     1      20.173  -0.531  53.972  1.00  0.00    -0.191 NA
HETATM   10  C16 UNL     1      22.893   1.165  52.709  1.00  0.00     0.067 A 
HETATM   11  C23 UNL     1      24.187   1.517  52.320  1.00  0.00     0.023 A 
HETATM   12  C24 UNL     1      24.475   2.742  51.711  1.00  0.00     0.045 A 
ENDROOT
BRANCH  10  13
HETATM   13  N5  UNL     1      21.902   2.174  52.423  1.00  0.00    -0.354 N 
HETATM   14  H17 UNL     1      21.489   2.827  53.118  1.00  0.00     0.166 HD
BRANCH  13  15
HETATM   15  C17 UNL     1      21.447   2.293  51.078  1.00  0.00     0.034 A 
HETATM   16  C18 UNL     1      21.330   1.207  50.234  1.00  0.00     0.032 A 
HETATM   17  C19 UNL     1      20.894   1.275  48.925  1.00  0.00     0.046 A 
HETATM   18  C20 UNL     1      20.547   2.510  48.410  1.00  0.00     0.138 A 
HETATM   19  F1  UNL     1      20.104   2.711  47.141  1.00  0.00    -0.204 F 
HETATM   20  C21 UNL     1      20.650   3.617  49.224  1.00  0.00     0.074 A 
HETATM   21 CL1  UNL     1      20.250   5.256  48.725  1.00  0.00    -0.081 Cl
HETATM   22  C22 UNL     1      21.092   3.527  50.539  1.00  0.00     0.056 A 
ENDBRANCH  13  15
ENDBRANCH  10  13
BRANCH   1  23
HETATM   23  N2  UNL     1      26.146   4.231  50.737  1.00  0.00    -0.325 N 
HETATM   24  C8  UNL     1      25.437   4.537  49.553  1.00  0.00     0.244 C 
HETATM   25  O2  UNL     1      24.555   3.680  49.188  1.00  0.00    -0.271 OA
HETATM   26  H13 UNL     1      26.823   4.988  50.953  1.00  0.00     0.169 HD
BRANCH  24  27
HETATM   27  C6  UNL     1      25.464   5.683  48.567  1.00  0.00     0.172 C 
HETATM   28  C7  UNL     1      24.064   6.200  48.371  1.00  0.00     0.042 C 
BRANCH  27  29
HETATM   29  N1  UNL     1      26.390   6.645  49.057  1.00  0.00    -0.370 N 
HETATM   30  C2  UNL     1      27.728   6.745  48.584  1.00  0.00     0.009 C 
HETATM   31  C1  UNL     1      28.357   5.632  48.264  1.00  0.00     0.060 C 
HETATM   32  C3  UNL     1      28.290   8.129  48.497  1.00  0.00     0.219 C 
HETATM   33  O1  UNL     1      27.350   9.062  48.939  1.00  0.00    -0.384 OA
HETATM   34  C4  UNL     1      26.869   8.701  50.173  1.00  0.00     0.187 C 
HETATM   35  C5  UNL     1      25.891   7.557  50.102  1.00  0.00     0.149 C 
ENDBRANCH  27  29
ENDBRANCH  24  27
ENDBRANCH   1  23
TORSDOF 5
ENDMDL
MODEL 7
REMARK VINA RESULT:      -9.0      3.900      8.001
REMARK  5 active torsions:
REMARK  status: ('A' for Active; 'I' for Inactive)
REMARK    1  A    between atoms: N1_7  and  C6_8 
REMARK    2  A    between atoms: C6_8  and  C8_10 
REMARK       I    between atoms: C8_10  and  N2_12 
REMARK    3  A    between atoms: N2_12  and  C9_13 
REMARK    4  A    between atoms: C16_22  and  N5_23 
REMARK    5  A    between atoms: N5_23  and  C17_24 
ROOT
HETATM    1  C9  UNL     1      20.713  -0.133  52.490  1.00  0.00     0.035 A 
HETATM    2  C10 UNL     1      20.221  -0.798  53.600  1.00  0.00     0.032 A 
HETATM    3  C11 UNL     1      21.131  -1.187  54.590  1.00  0.00     0.035 A 
HETATM    4  C12 UNL     1      22.479  -0.907  54.450  1.00  0.00     0.069 A 
HETATM    5  N3  UNL     1      23.343  -1.287  55.409  1.00  0.00    -0.259 NA
HETATM    6  C13 UNL     1      24.672  -1.048  55.341  1.00  0.00     0.142 A 
HETATM    7  C14 UNL     1      25.177  -0.386  54.240  1.00  0.00     0.089 A 
HETATM    8  C15 UNL     1      26.572  -0.082  54.071  1.00  0.00     0.103 C 
HETATM    9  N4  UNL     1      27.692   0.160  53.916  1.00  0.00    -0.191 NA
HETATM   10  C16 UNL     1      24.317   0.016  53.241  1.00  0.00     0.067 A 
HETATM   11  C23 UNL     1      22.946  -0.237  53.323  1.00  0.00     0.023 A 
HETATM   12  C24 UNL     1      22.054   0.160  52.323  1.00  0.00     0.045 A 
ENDROOT
BRANCH  10  13
HETATM   13  N5  UNL     1      24.711   0.715  52.042  1.00  0.00    -0.354 N 
HETATM   14  H17 UNL     1      25.211   0.292  51.235  1.00  0.00     0.166 HD
BRANCH  13  15
HETATM   15  C17 UNL     1      24.392   2.101  51.948  1.00  0.00     0.034 A 
HETATM   16  C18 UNL     1      24.232   2.904  53.059  1.00  0.00     0.032 A 
HETATM   17  C19 UNL     1      23.922   4.249  53.016  1.00  0.00     0.046 A 
HETATM   18  C20 UNL     1      23.759   4.848  51.780  1.00  0.00     0.138 A 
HETATM   19  F1  UNL     1      23.454   6.160  51.602  1.00  0.00    -0.204 F 
HETATM   20  C21 UNL     1      23.911   4.077  50.648  1.00  0.00     0.074 A 
HETATM   21 CL1  UNL     1      23.737   4.682  49.006  1.00  0.00    -0.081 Cl
HETATM   22  C22 UNL     1      24.223   2.724  50.715  1.00  0.00     0.056 A 
ENDBRANCH  13  15
ENDBRANCH  10  13
BRANCH   1  23
HETATM   23  N2  UNL     1      19.753   0.244  51.510  1.00  0.00    -0.325 N 
HETATM   24  C8  UNL     1      19.203   1.536  51.669  1.00  0.00     0.244 C 
HETATM   25  O2  UNL     1      19.637   2.213  52.669  1.00  0.00    -0.271 OA
HETATM   26  H13 UNL     1      19.350  -0.214  50.670  1.00  0.00     0.169 HD
BRANCH  24  27
HETATM   27  C6  UNL     1      18.182   2.355  50.912  1.00  0.00     0.172 C 
HETATM   28  C7  UNL     1      18.309   2.064  49.441  1.00  0.00     0.042 C 
BRANCH  27  29
HETATM   29  N1  UNL     1      16.906   2.065  51.468  1.00  0.00    -0.370 N 
HETATM   30  C2  UNL     1      15.910   3.058  51.684  1.00  0.00     0.009 C 
HETATM   31  C1  UNL     1      16.303   4.260  52.054  1.00  0.00     0.060 C 
HETATM   32  C3  UNL     1      14.495   2.625  51.464  1.00  0.00     0.219 C 
HETATM   33  O1  UNL     1      14.452   1.277  51.101  1.00  0.00    -0.384 OA
HETATM   34  C4  UNL     1      15.163   0.522  52.000  1.00  0.00     0.187 C 
HETATM   35  C5  UNL     1      16.652   0.656  51.820  1.00  0.00     0.149 C 
ENDBRANCH  27  29
ENDBRANCH  24  27
ENDBRANCH   1  23
TORSDOF 5
ENDMDL
MODEL 8
REMARK VINA RESULT:      -9.0      3.405      7.819
REMARK  5 active torsions:
REMARK  status: ('A' for Active; 'I' for Inactive)
REMARK    1  A    between atoms: N1_7  and  C6_8 
REMARK    2  A    between atoms: C6_8  and  C8_10 
REMARK       I    between atoms: C8_10  and  N2_12 
REMARK    3  A    between atoms: N2_12  and  C9_13 
REMARK    4  A    between atoms: C16_22  and  N5_23 
REMARK    5  A    between atoms: N5_23  and  C17_24 
ROOT
HETATM    1  C9  UNL     1      23.448   2.790  49.872  1.00  0.00     0.035 A 
HETATM    2  C10 UNL     1      22.370   2.349  49.123  1.00  0.00     0.032 A 
HETATM    3  C11 UNL     1      21.570   1.332  49.657  1.00  0.00     0.035 A 
HETATM    4  C12 UNL     1      21.859   0.793  50.898  1.00  0.00     0.069 A 
HETATM    5  N3  UNL     1      21.081  -0.184  51.399  1.00  0.00    -0.259 NA
HETATM    6  C13 UNL     1      21.302  -0.757  52.603  1.00  0.00     0.142 A 
HETATM    7  C14 UNL     1      22.372  -0.329  53.362  1.00  0.00     0.089 A 
HETATM    8  C15 UNL     1      22.694  -0.871  54.654  1.00  0.00     0.103 C 
HETATM    9  N4  UNL     1      22.970  -1.305  55.690  1.00  0.00    -0.191 NA
HETATM   10  C16 UNL     1      23.187   0.671  52.876  1.00  0.00     0.067 A 
HETATM   11  C23 UNL     1      22.949   1.255  51.630  1.00  0.00     0.023 A 
HETATM   12  C24 UNL     1      23.760   2.270  51.115  1.00  0.00     0.045 A 
ENDROOT
BRANCH  10  13
HETATM   13  N5  UNL     1      24.334   1.211  53.564  1.00  0.00    -0.354 N 
HETATM   14  H17 UNL     1      24.333   2.057  54.167  1.00  0.00     0.166 HD
BRANCH  13  15
HETATM   15  C17 UNL     1      25.578   0.531  53.412  1.00  0.00     0.034 A 
HETATM   16  C18 UNL     1      25.682  -0.700  52.794  1.00  0.00     0.032 A 
HETATM   17  C19 UNL     1      26.864  -1.393  52.625  1.00  0.00     0.046 A 
HETATM   18  C20 UNL     1      28.033  -0.829  53.101  1.00  0.00     0.138 A 
HETATM   19  F1  UNL     1      29.258  -1.409  52.997  1.00  0.00    -0.204 F 
HETATM   20  C21 UNL     1      27.968   0.399  53.722  1.00  0.00     0.074 A 
HETATM   21 CL1  UNL     1      29.357   1.251  54.383  1.00  0.00    -0.081 Cl
HETATM   22  C22 UNL     1      26.767   1.080  53.883  1.00  0.00     0.056 A 
ENDBRANCH  13  15
ENDBRANCH  10  13
BRANCH   1  23
HETATM   23  N2  UNL     1      24.233   3.824  49.292  1.00  0.00    -0.325 N 
HETATM   24  C8  UNL     1      23.771   5.139  49.532  1.00  0.00     0.244 C 
HETATM   25  O2  UNL     1      22.710   5.240  50.246  1.00  0.00    -0.271 OA
HETATM   26  H13 UNL     1      25.099   3.849  48.721  1.00  0.00     0.169 HD
BRANCH  24  27
HETATM   27  C6  UNL     1      24.248   6.518  49.137  1.00  0.00     0.172 C 
HETATM   28  C7  UNL     1      25.667   6.428  48.646  1.00  0.00     0.042 C 
BRANCH  27  29
HETATM   29  N1  UNL     1      23.321   7.034  48.190  1.00  0.00    -0.370 N 
HETATM   30  C2  UNL     1      22.684   8.298  48.336  1.00  0.00     0.009 C 
HETATM   31  C1  UNL     1      22.356   8.689  49.551  1.00  0.00     0.060 C 
HETATM   32  C3  UNL     1      22.451   9.063  47.073  1.00  0.00     0.219 C 
HETATM   33  O1  UNL     1      22.905   8.334  45.973  1.00  0.00    -0.384 OA
HETATM   34  C4  UNL     1      22.379   7.067  45.996  1.00  0.00     0.187 C 
HETATM   35  C5  UNL     1      23.042   6.182  47.020  1.00  0.00     0.149 C 
ENDBRANCH  27  29
ENDBRANCH  24  27
ENDBRANCH   1  23
TORSDOF 5
ENDMDL
MODEL 9
REMARK VINA RESULT:      -8.5      3.735      6.993
REMARK  5 active torsions:
REMARK  status: ('A' for Active; 'I' for Inactive)
REMARK    1  A    between atoms: N1_7  and  C6_8 
REMARK    2  A    between atoms: C6_8  and  C8_10 
REMARK       I    between atoms: C8_10  and  N2_12 
REMARK    3  A    between atoms: N2_12  and  C9_13 
REMARK    4  A    between atoms: C16_22  and  N5_23 
REMARK    5  A    between atoms: N5_23  and  C17_24 
ROOT
HETATM    1  C9  UNL     1      24.779   6.768  50.656  1.00  0.00     0.035 A 
HETATM    2  C10 UNL     1      23.734   7.657  50.840  1.00  0.00     0.032 A 
HETATM    3  C11 UNL     1      22.435   7.140  50.905  1.00  0.00     0.035 A 
HETATM    4  C12 UNL     1      22.216   5.779  50.788  1.00  0.00     0.069 A 
HETATM    5  N3  UNL     1      20.962   5.297  50.852  1.00  0.00    -0.259 NA
HETATM    6  C13 UNL     1      20.673   3.980  50.745  1.00  0.00     0.142 A 
HETATM    7  C14 UNL     1      21.703   3.081  50.561  1.00  0.00     0.089 A 
HETATM    8  C15 UNL     1      21.504   1.662  50.437  1.00  0.00     0.103 C 
HETATM    9  N4  UNL     1      21.358   0.521  50.326  1.00  0.00    -0.191 NA
HETATM   10  C16 UNL     1      23.000   3.545  50.492  1.00  0.00     0.067 A 
HETATM   11  C23 UNL     1      23.286   4.908  50.603  1.00  0.00     0.023 A 
HETATM   12  C24 UNL     1      24.591   5.403  50.536  1.00  0.00     0.045 A 
ENDROOT
BRANCH  10  13
HETATM   13  N5  UNL     1      24.165   2.717  50.304  1.00  0.00    -0.354 N 
HETATM   14  H17 UNL     1      24.598   2.483  49.388  1.00  0.00     0.166 HD
BRANCH  13  15
HETATM   15  C17 UNL     1      24.784   2.170  51.465  1.00  0.00     0.034 A 
HETATM   16  C18 UNL     1      24.132   1.296  52.313  1.00  0.00     0.032 A 
HETATM   17  C19 UNL     1      24.690   0.742  53.448  1.00  0.00     0.046 A 
HETATM   18  C20 UNL     1      25.992   1.076  53.771  1.00  0.00     0.138 A 
HETATM   19  F1  UNL     1      26.655   0.600  54.858  1.00  0.00    -0.204 F 
HETATM   20  C21 UNL     1      26.675   1.945  52.948  1.00  0.00     0.074 A 
HETATM   21 CL1  UNL     1      28.331   2.471  53.217  1.00  0.00    -0.081 Cl
HETATM   22  C22 UNL     1      26.093   2.492  51.810  1.00  0.00     0.056 A 
ENDBRANCH  13  15
ENDBRANCH  10  13
BRANCH   1  23
HETATM   23  N2  UNL     1      26.082   7.336  50.597  1.00  0.00    -0.325 N 
HETATM   24  C8  UNL     1      26.458   7.851  49.335  1.00  0.00     0.244 C 
HETATM   25  O2  UNL     1      25.583   7.751  48.403  1.00  0.00    -0.271 OA
HETATM   26  H13 UNL     1      26.847   7.476  51.283  1.00  0.00     0.169 HD
BRANCH  24  27
HETATM   27  C6  UNL     1      27.698   8.525  48.793  1.00  0.00     0.172 C 
HETATM   28  C7  UNL     1      28.292   9.400  49.863  1.00  0.00     0.042 C 
BRANCH  27  29
HETATM   29  N1  UNL     1      28.563   7.504  48.311  1.00  0.00    -0.370 N 
HETATM   30  C2  UNL     1      29.862   7.767  47.795  1.00  0.00     0.009 C 
HETATM   31  C1  UNL     1      30.042   8.876  47.105  1.00  0.00     0.060 C 
HETATM   32  C3  UNL     1      30.906   6.739  48.094  1.00  0.00     0.219 C 
HETATM   33  O1  UNL     1      30.354   5.687  48.827  1.00  0.00    -0.384 OA
HETATM   34  C4  UNL     1      29.228   5.214  48.200  1.00  0.00     0.187 C 
HETATM   35  C5  UNL     1      28.042   6.127  48.372  1.00  0.00     0.149 C 
ENDBRANCH  27  29
ENDBRANCH  24  27
ENDBRANCH   1  23
TORSDOF 5
ENDMDL
