MODEL 1
REMARK VINA RESULT:      -7.5      0.000      0.000
REMARK  4 active torsions:
REMARK  status: ('A' for Active; 'I' for Inactive)
REMARK    1  A    between atoms: C2_2  and  C3_3 
REMARK    2  A    between atoms: C5_6  and  N2_7 
REMARK    3  A    between atoms: N2_7  and  C6_8 
REMARK    4  A    between atoms: C13_15  and  N3_16 
ROOT
HETATM    1  C3  UNL     1      26.247   1.504  53.191  1.00  0.00     0.216 C 
HETATM    2  N1  UNL     1      25.355   2.306  53.890  1.00  0.00    -0.392 N 
HETATM    3  C4  UNL     1      24.506   3.261  53.336  1.00  0.00     0.173 C 
HETATM    4  C5  UNL     1      23.403   2.770  52.495  1.00  0.00     0.019 C 
HETATM    5  C14 UNL     1      22.461   2.107  51.779  1.00  0.00     0.003 C 
HETATM    6  C15 UNL     1      22.631   0.607  51.924  1.00  0.00     0.056 C 
HETATM    7  C16 UNL     1      23.335   0.355  53.185  1.00  0.00    -0.025 C 
HETATM    8  C17 UNL     1      24.391  -0.080  53.790  1.00  0.00    -0.005 C 
HETATM    9  C18 UNL     1      25.720  -0.675  53.398  1.00  0.00     0.197 C 
HETATM   10  O1  UNL     1      26.651   0.313  53.923  1.00  0.00    -0.363 OA
HETATM   11  H7  UNL     1      25.443   2.265  54.926  1.00  0.00     0.156 HD
ENDROOT
BRANCH   4  12
HETATM   12  N2  UNL     1      22.842   4.064  52.083  1.00  0.00    -0.387 N 
HETATM   13  H10 UNL     1      21.867   4.477  51.967  1.00  0.00     0.159 HD
BRANCH  12  14
HETATM   14  C6  UNL     1      23.698   5.172  51.702  1.00  0.00     0.093 A 
HETATM   15  C7  UNL     1      23.027   6.334  50.992  1.00  0.00     0.040 A 
HETATM   16  C8  UNL     1      24.001   5.468  50.280  1.00  0.00     0.016 A 
HETATM   17  C9  UNL     1      23.515   4.571  49.164  1.00  0.00     0.040 C 
HETATM   18  C13 UNL     1      25.355   6.007  49.880  1.00  0.00     0.232 C 
HETATM   19  C10 UNL     1      24.376   3.352  49.165  1.00  0.00    -0.030 C 
HETATM   20  C11 UNL     1      25.667   3.573  49.393  1.00  0.00    -0.028 C 
HETATM   21  C12 UNL     1      26.313   4.887  49.640  1.00  0.00     0.063 C 
BRANCH  18  22
HETATM   22  N3  UNL     1      25.864   6.976  50.832  1.00  0.00     0.084 N 
HETATM   23  H21 UNL     1      25.544   6.808  51.811  1.00  0.00     0.313 HD
HETATM   24  H22 UNL     1      25.715   7.942  50.500  1.00  0.00     0.313 HD
ENDBRANCH  18  22
ENDBRANCH  12  14
ENDBRANCH   4  12
BRANCH   1  25
HETATM   25  C2  UNL     1      27.367   2.085  52.471  1.00  0.00     0.049 C 
HETATM   26  C1  UNL     1      28.526   2.449  53.357  1.00  0.00     0.009 C 
ENDBRANCH   1  25
TORSDOF 4
ENDMDL
MODEL 2
REMARK VINA RESULT:      -7.3      1.666      3.218
REMARK  4 active torsions:
REMARK  status: ('A' for Active; 'I' for Inactive)
REMARK    1  A    between atoms: C2_2  and  C3_3 
REMARK    2  A    between atoms: C5_6  and  N2_7 
REMARK    3  A    between atoms: N2_7  and  C6_8 
REMARK    4  A    between atoms: C13_15  and  N3_16 
ROOT
HETATM    1  C3  UNL     1      22.045   0.141  53.496  1.00  0.00     0.216 C 
HETATM    2  N1  UNL     1      22.166   0.713  52.237  1.00  0.00    -0.392 N 
HETATM    3  C4  UNL     1      22.057   2.070  51.941  1.00  0.00     0.173 C 
HETATM    4  C5  UNL     1      23.122   2.953  52.443  1.00  0.00     0.019 C 
HETATM    5  C14 UNL     1      24.202   3.572  52.981  1.00  0.00     0.003 C 
HETATM    6  C15 UNL     1      25.145   2.562  53.607  1.00  0.00     0.056 C 
HETATM    7  C16 UNL     1      24.915   1.269  52.956  1.00  0.00    -0.025 C 
HETATM    8  C17 UNL     1      24.516   0.044  53.050  1.00  0.00    -0.005 C 
HETATM    9  C18 UNL     1      23.963  -0.856  54.126  1.00  0.00     0.197 C 
HETATM   10  O1  UNL     1      22.648  -1.180  53.591  1.00  0.00    -0.363 OA
HETATM   11  H7  UNL     1      22.208   0.038  51.447  1.00  0.00     0.156 HD
ENDROOT
BRANCH   4  12
HETATM   12  N2  UNL     1      22.581   4.240  51.984  1.00  0.00    -0.387 N 
HETATM   13  H10 UNL     1      21.613   4.657  51.832  1.00  0.00     0.159 HD
BRANCH  12  14
HETATM   14  C6  UNL     1      23.455   5.332  51.596  1.00  0.00     0.093 A 
HETATM   15  C7  UNL     1      22.822   6.454  50.794  1.00  0.00     0.040 A 
HETATM   16  C8  UNL     1      23.836   5.559  50.180  1.00  0.00     0.016 A 
HETATM   17  C9  UNL     1      23.415   4.606  49.085  1.00  0.00     0.040 C 
HETATM   18  C13 UNL     1      25.209   6.084  49.831  1.00  0.00     0.232 C 
HETATM   19  C10 UNL     1      24.276   3.393  49.194  1.00  0.00    -0.030 C 
HETATM   20  C11 UNL     1      25.553   3.630  49.483  1.00  0.00    -0.028 C 
HETATM   21  C12 UNL     1      26.181   4.958  49.700  1.00  0.00     0.063 C 
BRANCH  18  22
HETATM   22  N3  UNL     1      25.663   7.101  50.761  1.00  0.00     0.084 N 
HETATM   23  H21 UNL     1      24.932   7.399  51.443  1.00  0.00     0.313 HD
HETATM   24  H22 UNL     1      26.122   7.883  50.267  1.00  0.00     0.313 HD
ENDBRANCH  18  22
ENDBRANCH  12  14
ENDBRANCH   4  12
BRANCH   1  25
HETATM   25  C2  UNL     1      20.791   0.202  54.226  1.00  0.00     0.049 C 
HETATM   26  C1  UNL     1      19.641  -0.439  53.499  1.00  0.00     0.009 C 
ENDBRANCH   1  25
TORSDOF 4
ENDMDL
MODEL 3
REMARK VINA RESULT:      -7.0      1.883      3.123
REMARK  4 active torsions:
REMARK  status: ('A' for Active; 'I' for Inactive)
REMARK    1  A    between atoms: C2_2  and  C3_3 
REMARK    2  A    between atoms: C5_6  and  N2_7 
REMARK    3  A    between atoms: N2_7  and  C6_8 
REMARK    4  A    between atoms: C13_15  and  N3_16 
ROOT
HETATM    1  C3  UNL     1      26.236   2.572  51.407  1.00  0.00     0.216 C 
HETATM    2  N1  UNL     1      25.356   3.225  52.259  1.00  0.00    -0.392 N 
HETATM    3  C4  UNL     1      23.967   3.119  52.240  1.00  0.00     0.173 C 
HETATM    4  C5  UNL     1      23.389   1.825  52.638  1.00  0.00     0.019 C 
HETATM    5  C14 UNL     1      23.075   0.571  53.049  1.00  0.00     0.003 C 
HETATM    6  C15 UNL     1      24.322  -0.192  53.451  1.00  0.00     0.056 C 
HETATM    7  C16 UNL     1      25.349   0.787  53.820  1.00  0.00    -0.025 C 
HETATM    8  C17 UNL     1      26.496   1.327  53.573  1.00  0.00    -0.005 C 
HETATM    9  C18 UNL     1      27.587   1.175  52.543  1.00  0.00     0.197 C 
HETATM   10  O1  UNL     1      27.593   2.493  51.925  1.00  0.00    -0.363 OA
HETATM   11  H7  UNL     1      25.786   3.952  52.866  1.00  0.00     0.156 HD
ENDROOT
BRANCH   4  12
HETATM   12  N2  UNL     1      21.971   2.132  52.406  1.00  0.00    -0.387 N 
HETATM   13  H10 UNL     1      21.039   1.662  52.616  1.00  0.00     0.159 HD
BRANCH  12  14
HETATM   14  C6  UNL     1      21.562   3.348  51.728  1.00  0.00     0.093 A 
HETATM   15  C7  UNL     1      20.068   3.570  51.577  1.00  0.00     0.040 A 
HETATM   16  C8  UNL     1      20.923   3.316  50.389  1.00  0.00     0.016 A 
HETATM   17  C9  UNL     1      20.758   2.023  49.623  1.00  0.00     0.040 C 
HETATM   18  C13 UNL     1      21.187   4.415  49.387  1.00  0.00     0.232 C 
HETATM   19  C10 UNL     1      22.095   1.659  49.069  1.00  0.00    -0.030 C 
HETATM   20  C11 UNL     1      22.810   2.679  48.604  1.00  0.00    -0.028 C 
HETATM   21  C12 UNL     1      22.410   4.109  48.586  1.00  0.00     0.063 C 
BRANCH  18  22
HETATM   22  N3  UNL     1      21.246   5.724  50.008  1.00  0.00     0.084 N 
HETATM   23  H21 UNL     1      20.706   5.789  50.898  1.00  0.00     0.313 HD
HETATM   24  H22 UNL     1      21.031   6.472  49.329  1.00  0.00     0.313 HD
ENDBRANCH  18  22
ENDBRANCH  12  14
ENDBRANCH   4  12
BRANCH   1  25
HETATM   25  C2  UNL     1      26.231   2.843  49.980  1.00  0.00     0.049 C 
HETATM   26  C1  UNL     1      26.396   4.300  49.645  1.00  0.00     0.009 C 
ENDBRANCH   1  25
TORSDOF 4
ENDMDL
MODEL 4
REMARK VINA RESULT:      -6.8      3.097      6.068
REMARK  4 active torsions:
REMARK  status: ('A' for Active; 'I' for Inactive)
REMARK    1  A    between atoms: C2_2  and  C3_3 
REMARK    2  A    between atoms: C5_6  and  N2_7 
REMARK    3  A    between atoms: N2_7  and  C6_8 
REMARK    4  A    between atoms: C13_15  and  N3_16 
ROOT
HETATM    1  C3  UNL     1      21.660   3.886  48.934  1.00  0.00     0.216 C 
HETATM    2  N1  UNL     1      21.596   2.684  49.627  1.00  0.00    -0.392 N 
HETATM    3  C4  UNL     1      22.670   2.024  50.220  1.00  0.00     0.173 C 
HETATM    4  C5  UNL     1      23.287   2.665  51.392  1.00  0.00     0.019 C 
HETATM    5  C14 UNL     1      23.688   3.414  52.449  1.00  0.00     0.003 C 
HETATM    6  C15 UNL     1      22.778   4.613  52.636  1.00  0.00     0.056 C 
HETATM    7  C16 UNL     1      21.481   4.291  52.033  1.00  0.00    -0.025 C 
HETATM    8  C17 UNL     1      20.601   4.532  51.118  1.00  0.00    -0.005 C 
HETATM    9  C18 UNL     1      20.449   5.483  49.958  1.00  0.00     0.197 C 
HETATM   10  O1  UNL     1      20.376   4.564  48.832  1.00  0.00    -0.363 OA
HETATM   11  H7  UNL     1      20.684   2.189  49.570  1.00  0.00     0.156 HD
ENDROOT
BRANCH   4  12
HETATM   12  N2  UNL     1      24.372   1.704  51.628  1.00  0.00    -0.387 N 
HETATM   13  H10 UNL     1      24.527   0.663  51.462  1.00  0.00     0.159 HD
BRANCH  12  14
HETATM   14  C6  UNL     1      25.624   2.112  52.239  1.00  0.00     0.093 A 
HETATM   15  C7  UNL     1      26.831   2.190  51.322  1.00  0.00     0.040 A 
HETATM   16  C8  UNL     1      26.757   1.168  52.397  1.00  0.00     0.016 A 
HETATM   17  C9  UNL     1      26.629  -0.292  52.022  1.00  0.00     0.040 C 
HETATM   18  C13 UNL     1      27.666   1.256  53.601  1.00  0.00     0.232 C 
HETATM   19  C10 UNL     1      25.833  -0.959  53.094  1.00  0.00    -0.030 C 
HETATM   20  C11 UNL     1      26.108  -0.561  54.333  1.00  0.00    -0.028 C 
HETATM   21  C12 UNL     1      27.109   0.459  54.735  1.00  0.00     0.063 C 
BRANCH  18  22
HETATM   22  N3  UNL     1      27.952   2.627  53.976  1.00  0.00     0.084 N 
HETATM   23  H21 UNL     1      27.373   3.329  53.466  1.00  0.00     0.313 HD
HETATM   24  H22 UNL     1      28.966   2.819  53.951  1.00  0.00     0.313 HD
ENDBRANCH  18  22
ENDBRANCH  12  14
ENDBRANCH   4  12
BRANCH   1  25
HETATM   25  C2  UNL     1      22.414   3.994  47.697  1.00  0.00     0.049 C 
HETATM   26  C1  UNL     1      21.579   3.779  46.465  1.00  0.00     0.009 C 
ENDBRANCH   1  25
TORSDOF 4
ENDMDL
MODEL 5
REMARK VINA RESULT:      -6.7      7.344     10.157
REMARK  4 active torsions:
REMARK  status: ('A' for Active; 'I' for Inactive)
REMARK    1  A    between atoms: C2_2  and  C3_3 
REMARK    2  A    between atoms: C5_6  and  N2_7 
REMARK    3  A    between atoms: N2_7  and  C6_8 
REMARK    4  A    between atoms: C13_15  and  N3_16 
ROOT
HETATM    1  C3  UNL     1      29.608   9.534  48.695  1.00  0.00     0.216 C 
HETATM    2  N1  UNL     1      29.903   9.209  47.379  1.00  0.00    -0.392 N 
HETATM    3  C4  UNL     1      30.957   8.405  46.951  1.00  0.00     0.173 C 
HETATM    4  C5  UNL     1      30.888   6.974  47.287  1.00  0.00     0.019 C 
HETATM    5  C14 UNL     1      30.616   5.706  47.686  1.00  0.00     0.003 C 
HETATM    6  C15 UNL     1      29.256   5.631  48.351  1.00  0.00     0.056 C 
HETATM    7  C16 UNL     1      28.450   6.751  47.855  1.00  0.00    -0.025 C 
HETATM    8  C17 UNL     1      27.833   7.859  48.102  1.00  0.00    -0.005 C 
HETATM    9  C18 UNL     1      27.590   8.742  49.300  1.00  0.00     0.197 C 
HETATM   10  O1  UNL     1      28.237   9.980  48.889  1.00  0.00    -0.363 OA
HETATM   11  H7  UNL     1      29.358   9.729  46.662  1.00  0.00     0.156 HD
ENDROOT
BRANCH   4  12
HETATM   12  N2  UNL     1      32.180   6.550  46.732  1.00  0.00    -0.387 N 
HETATM   13  H10 UNL     1      32.611   6.469  45.761  1.00  0.00     0.159 HD
BRANCH  12  14
HETATM   14  C6  UNL     1      33.258   6.093  47.590  1.00  0.00     0.093 A 
HETATM   15  C7  UNL     1      34.638   6.656  47.302  1.00  0.00     0.040 A 
HETATM   16  C8  UNL     1      34.341   5.217  47.080  1.00  0.00     0.016 A 
HETATM   17  C9  UNL     1      34.322   4.676  45.668  1.00  0.00     0.040 C 
HETATM   18  C13 UNL     1      34.957   4.162  47.969  1.00  0.00     0.232 C 
HETATM   19  C10 UNL     1      33.317   3.574  45.627  1.00  0.00    -0.030 C 
HETATM   20  C11 UNL     1      33.303   2.782  46.696  1.00  0.00    -0.028 C 
HETATM   21  C12 UNL     1      34.173   2.893  47.894  1.00  0.00     0.063 C 
BRANCH  18  22
HETATM   22  N3  UNL     1      35.132   4.625  49.333  1.00  0.00     0.084 N 
HETATM   23  H21 UNL     1      35.948   4.194  49.819  1.00  0.00     0.313 HD
HETATM   24  H22 UNL     1      34.248   4.569  49.864  1.00  0.00     0.313 HD
ENDBRANCH  18  22
ENDBRANCH  12  14
ENDBRANCH   4  12
BRANCH   1  25
HETATM   25  C2  UNL     1      30.534  10.317  49.496  1.00  0.00     0.049 C 
HETATM   26  C1  UNL     1      30.581  11.770  49.110  1.00  0.00     0.009 C 
ENDBRANCH   1  25
TORSDOF 4
ENDMDL
MODEL 6
REMARK VINA RESULT:      -6.7      1.979      3.508
REMARK  4 active torsions:
REMARK  status: ('A' for Active; 'I' for Inactive)
REMARK    1  A    between atoms: C2_2  and  C3_3 
REMARK    2  A    between atoms: C5_6  and  N2_7 
REMARK    3  A    between atoms: N2_7  and  C6_8 
REMARK    4  A    between atoms: C13_15  and  N3_16 
ROOT
HETATM    1  C3  UNL     1      22.024  -0.358  53.922  1.00  0.00     0.216 C 
HETATM    2  N1  UNL     1      22.428  -0.270  52.597  1.00  0.00    -0.392 N 
HETATM    3  C4  UNL     1      22.569   0.904  51.860  1.00  0.00     0.173 C 
HETATM    4  C5  UNL     1      23.659   1.813  52.251  1.00  0.00     0.019 C 
HETATM    5  C14 UNL     1      24.719   2.486  52.764  1.00  0.00     0.003 C 
HETATM    6  C15 UNL     1      25.389   1.681  53.860  1.00  0.00     0.056 C 
HETATM    7  C16 UNL     1      25.077   0.266  53.634  1.00  0.00    -0.025 C 
HETATM    8  C17 UNL     1      24.491  -0.812  54.038  1.00  0.00    -0.005 C 
HETATM    9  C18 UNL     1      23.646  -1.232  55.214  1.00  0.00     0.197 C 
HETATM   10  O1  UNL     1      22.401  -1.609  54.561  1.00  0.00    -0.363 OA
HETATM   11  H7  UNL     1      22.495  -1.178  52.095  1.00  0.00     0.156 HD
ENDROOT
BRANCH   4  12
HETATM   12  N2  UNL     1      23.395   2.901  51.299  1.00  0.00    -0.387 N 
HETATM   13  H10 UNL     1      23.099   2.975  50.279  1.00  0.00     0.159 HD
BRANCH  12  14
HETATM   14  C6  UNL     1      23.529   4.293  51.687  1.00  0.00     0.093 A 
HETATM   15  C7  UNL     1      22.239   5.078  51.846  1.00  0.00     0.040 A 
HETATM   16  C8  UNL     1      23.194   5.396  50.754  1.00  0.00     0.016 A 
HETATM   17  C9  UNL     1      22.794   5.126  49.321  1.00  0.00     0.040 C 
HETATM   18  C13 UNL     1      23.982   6.686  50.776  1.00  0.00     0.232 C 
HETATM   19  C10 UNL     1      24.035   4.775  48.570  1.00  0.00    -0.030 C 
HETATM   20  C11 UNL     1      25.109   5.491  48.889  1.00  0.00    -0.028 C 
HETATM   21  C12 UNL     1      25.184   6.579  49.897  1.00  0.00     0.063 C 
BRANCH  18  22
HETATM   22  N3  UNL     1      24.318   7.102  52.125  1.00  0.00     0.084 N 
HETATM   23  H21 UNL     1      24.994   6.466  52.602  1.00  0.00     0.313 HD
HETATM   24  H22 UNL     1      23.469   7.305  52.677  1.00  0.00     0.313 HD
ENDBRANCH  18  22
ENDBRANCH  12  14
ENDBRANCH   4  12
BRANCH   1  25
HETATM   25  C2  UNL     1      20.691   0.059  54.325  1.00  0.00     0.049 C 
HETATM   26  C1  UNL     1      19.594  -0.561  53.504  1.00  0.00     0.009 C 
ENDBRANCH   1  25
TORSDOF 4
ENDMDL
MODEL 7
REMARK VINA RESULT:      -6.6      2.680      4.833
REMARK  4 active torsions:
REMARK  status: ('A' for Active; 'I' for Inactive)
REMARK    1  A    between atoms: C2_2  and  C3_3 
REMARK    2  A    between atoms: C5_6  and  N2_7 
REMARK    3  A    between atoms: N2_7  and  C6_8 
REMARK    4  A    between atoms: C13_15  and  N3_16 
ROOT
HETATM    1  C3  UNL     1      22.119  -0.434  54.190  1.00  0.00     0.216 C 
HETATM    2  N1  UNL     1      22.583  -0.621  52.895  1.00  0.00    -0.392 N 
HETATM    3  C4  UNL     1      22.859   0.384  51.972  1.00  0.00     0.173 C 
HETATM    4  C5  UNL     1      24.010   1.256  52.255  1.00  0.00     0.019 C 
HETATM    5  C14 UNL     1      25.105   1.923  52.700  1.00  0.00     0.003 C 
HETATM    6  C15 UNL     1      25.654   1.277  53.957  1.00  0.00     0.056 C 
HETATM    7  C16 UNL     1      25.226  -0.125  53.967  1.00  0.00    -0.025 C 
HETATM    8  C17 UNL     1      24.529  -1.060  54.523  1.00  0.00    -0.005 C 
HETATM    9  C18 UNL     1      23.603  -1.190  55.705  1.00  0.00     0.197 C 
HETATM   10  O1  UNL     1      22.355  -1.576  55.061  1.00  0.00    -0.363 OA
HETATM   11  H7  UNL     1      22.588  -1.608  52.566  1.00  0.00     0.156 HD
ENDROOT
BRANCH   4  12
HETATM   12  N2  UNL     1      23.884   2.172  51.113  1.00  0.00    -0.387 N 
HETATM   13  H10 UNL     1      24.420   3.014  50.741  1.00  0.00     0.159 HD
BRANCH  12  14
HETATM   14  C6  UNL     1      22.809   2.035  50.149  1.00  0.00     0.093 A 
HETATM   15  C7  UNL     1      22.846   2.971  48.954  1.00  0.00     0.040 A 
HETATM   16  C8  UNL     1      21.777   3.088  49.979  1.00  0.00     0.016 A 
HETATM   17  C9  UNL     1      21.737   4.308  50.870  1.00  0.00     0.040 C 
HETATM   18  C13 UNL     1      20.351   2.716  49.643  1.00  0.00     0.232 C 
HETATM   19  C10 UNL     1      21.182   3.879  52.188  1.00  0.00    -0.030 C 
HETATM   20  C11 UNL     1      20.178   3.010  52.121  1.00  0.00    -0.028 C 
HETATM   21  C12 UNL     1      19.575   2.443  50.889  1.00  0.00     0.063 C 
BRANCH  18  22
HETATM   22  N3  UNL     1      20.276   1.623  48.692  1.00  0.00     0.084 N 
HETATM   23  H21 UNL     1      20.723   0.743  49.032  1.00  0.00     0.313 HD
HETATM   24  H22 UNL     1      20.590   1.919  47.754  1.00  0.00     0.313 HD
ENDBRANCH  18  22
ENDBRANCH  12  14
ENDBRANCH   4  12
BRANCH   1  25
HETATM   25  C2  UNL     1      20.815   0.156  54.438  1.00  0.00     0.049 C 
HETATM   26  C1  UNL     1      19.717  -0.441  53.602  1.00  0.00     0.009 C 
ENDBRANCH   1  25
TORSDOF 4
ENDMDL
MODEL 8
REMARK VINA RESULT:      -6.3      2.320      4.279
REMARK  4 active torsions:
REMARK  status: ('A' for Active; 'I' for Inactive)
REMARK    1  A    between atoms: C2_2  and  C3_3 
REMARK    2  A    between atoms: C5_6  and  N2_7 
REMARK    3  A    between atoms: N2_7  and  C6_8 
REMARK    4  A    between atoms: C13_15  and  N3_16 
ROOT
HETATM    1  C3  UNL     1      21.309   0.779  52.850  1.00  0.00     0.216 C 
HETATM    2  N1  UNL     1      21.960   0.540  51.648  1.00  0.00    -0.392 N 
HETATM    3  C4  UNL     1      22.866   1.394  51.024  1.00  0.00     0.173 C 
HETATM    4  C5  UNL     1      24.165   1.592  51.686  1.00  0.00     0.019 C 
HETATM    5  C14 UNL     1      25.287   1.617  52.448  1.00  0.00     0.003 C 
HETATM    6  C15 UNL     1      25.167   0.657  53.615  1.00  0.00     0.056 C 
HETATM    7  C16 UNL     1      24.191  -0.375  53.250  1.00  0.00    -0.025 C 
HETATM    8  C17 UNL     1      23.044  -0.931  53.462  1.00  0.00    -0.005 C 
HETATM    9  C18 UNL     1      21.885  -0.742  54.407  1.00  0.00     0.197 C 
HETATM   10  O1  UNL     1      20.802  -0.428  53.485  1.00  0.00    -0.363 OA
HETATM   11  H7  UNL     1      21.625  -0.293  51.122  1.00  0.00     0.156 HD
ENDROOT
BRANCH   4  12
HETATM   12  N2  UNL     1      24.740   2.579  50.761  1.00  0.00    -0.387 N 
HETATM   13  H10 UNL     1      25.713   2.957  50.548  1.00  0.00     0.159 HD
BRANCH  12  14
HETATM   14  C6  UNL     1      23.907   3.320  49.832  1.00  0.00     0.093 A 
HETATM   15  C7  UNL     1      24.590   4.419  49.039  1.00  0.00     0.040 A 
HETATM   16  C8  UNL     1      23.564   4.745  50.062  1.00  0.00     0.016 A 
HETATM   17  C9  UNL     1      23.981   5.466  51.323  1.00  0.00     0.040 C 
HETATM   18  C13 UNL     1      22.214   5.284  49.647  1.00  0.00     0.232 C 
HETATM   19  C10 UNL     1      23.082   5.001  52.420  1.00  0.00    -0.030 C 
HETATM   20  C11 UNL     1      21.807   4.842  52.076  1.00  0.00    -0.028 C 
HETATM   21  C12 UNL     1      21.213   5.078  50.736  1.00  0.00     0.063 C 
BRANCH  18  22
HETATM   22  N3  UNL     1      21.770   4.741  48.377  1.00  0.00     0.084 N 
HETATM   23  H21 UNL     1      21.946   3.718  48.277  1.00  0.00     0.313 HD
HETATM   24  H22 UNL     1      22.116   5.307  47.586  1.00  0.00     0.313 HD
ENDBRANCH  18  22
ENDBRANCH  12  14
ENDBRANCH   4  12
BRANCH   1  25
HETATM   25  C2  UNL     1      20.369   1.879  52.984  1.00  0.00     0.049 C 
HETATM   26  C1  UNL     1      19.330   1.916  51.897  1.00  0.00     0.009 C 
ENDBRANCH   1  25
TORSDOF 4
ENDMDL
MODEL 9
REMARK VINA RESULT:      -6.2      8.543     10.111
REMARK  4 active torsions:
REMARK  status: ('A' for Active; 'I' for Inactive)
REMARK    1  A    between atoms: C2_2  and  C3_3 
REMARK    2  A    between atoms: C5_6  and  N2_7 
REMARK    3  A    between atoms: N2_7  and  C6_8 
REMARK    4  A    between atoms: C13_15  and  N3_16 
ROOT
HETATM    1  C3  UNL     1      34.420   4.899  48.280  1.00  0.00     0.216 C 
HETATM    2  N1  UNL     1      33.051   5.119  48.355  1.00  0.00    -0.392 N 
HETATM    3  C4  UNL     1      32.385   6.273  47.951  1.00  0.00     0.173 C 
HETATM    4  C5  UNL     1      32.349   6.556  46.507  1.00  0.00     0.019 C 
HETATM    5  C14 UNL     1      32.425   6.613  45.154  1.00  0.00     0.003 C 
HETATM    6  C15 UNL     1      33.111   5.379  44.600  1.00  0.00     0.056 C 
HETATM    7  C16 UNL     1      32.954   4.300  45.580  1.00  0.00    -0.025 C 
HETATM    8  C17 UNL     1      33.503   3.484  46.418  1.00  0.00    -0.005 C 
HETATM    9  C18 UNL     1      34.896   3.179  46.908  1.00  0.00     0.197 C 
HETATM   10  O1  UNL     1      34.784   3.491  48.326  1.00  0.00    -0.363 OA
HETATM   11  H7  UNL     1      32.517   4.401  48.884  1.00  0.00     0.156 HD
ENDROOT
BRANCH   4  12
HETATM   12  N2  UNL     1      31.645   7.845  46.548  1.00  0.00    -0.387 N 
HETATM   13  H10 UNL     1      31.599   8.715  45.936  1.00  0.00     0.159 HD
BRANCH  12  14
HETATM   14  C6  UNL     1      30.744   8.180  47.634  1.00  0.00     0.093 A 
HETATM   15  C7  UNL     1      29.258   8.072  47.340  1.00  0.00     0.040 A 
HETATM   16  C8  UNL     1      29.890   9.392  47.591  1.00  0.00     0.016 A 
HETATM   17  C9  UNL     1      29.990  10.391  46.460  1.00  0.00     0.040 C 
HETATM   18  C13 UNL     1      29.583  10.159  48.856  1.00  0.00     0.232 C 
HETATM   19  C10 UNL     1      31.232  11.189  46.679  1.00  0.00    -0.030 C 
HETATM   20  C11 UNL     1      31.477  11.516  47.944  1.00  0.00    -0.028 C 
HETATM   21  C12 UNL     1      30.650  11.168  49.127  1.00  0.00     0.063 C 
BRANCH  18  22
HETATM   22  N3  UNL     1      29.349   9.283  49.989  1.00  0.00     0.084 N 
HETATM   23  H21 UNL     1      29.567   9.723  50.909  1.00  0.00     0.313 HD
HETATM   24  H22 UNL     1      29.792   8.361  49.847  1.00  0.00     0.313 HD
ENDBRANCH  18  22
ENDBRANCH  12  14
ENDBRANCH   4  12
BRANCH   1  25
HETATM   25  C2  UNL     1      35.349   5.709  49.049  1.00  0.00     0.049 C 
HETATM   26  C1  UNL     1      35.619   7.056  48.438  1.00  0.00     0.009 C 
ENDBRANCH   1  25
TORSDOF 4
ENDMDL
