MODEL 1
REMARK VINA RESULT:      -8.6      0.000      0.000
REMARK  5 active torsions:
REMARK  status: ('A' for Active; 'I' for Inactive)
REMARK    1  A    between atoms: C2_2  and  C3_3 
REMARK    2  A    between atoms: N1_6  and  C6_7 
REMARK    3  A    between atoms: N4_15  and  C12_16 
REMARK    4  A    between atoms: C13_18  and  C14_19 
REMARK    5  A    between atoms: C17_22  and  C18_23 
ROOT
HETATM    1  C6  UNL     1      23.940   1.389  52.329  1.00  0.00     0.090 A 
HETATM    2  C7  UNL     1      22.925   0.609  52.855  1.00  0.00     0.091 A 
HETATM    3  C8  UNL     1      21.560   0.872  52.506  1.00  0.00     0.103 C 
HETATM    4  N2  UNL     1      20.453   1.070  52.212  1.00  0.00    -0.191 NA
HETATM    5  C9  UNL     1      23.198  -0.447  53.732  1.00  0.00     0.142 A 
HETATM    6  N3  UNL     1      24.496  -0.700  54.069  1.00  0.00    -0.257 NA
HETATM    7  C10 UNL     1      25.435   0.115  53.509  1.00  0.00     0.085 A 
HETATM    8  C11 UNL     1      25.255   1.166  52.641  1.00  0.00     0.091 A 
HETATM    9  N4  UNL     1      26.365   1.857  52.087  1.00  0.00    -0.335 N 
HETATM   10  C16 UNL     1      27.653   1.842  52.796  1.00  0.00     0.161 C 
HETATM   11  C17 UNL     1      27.730   0.692  53.686  1.00  0.00    -0.060 C 
HETATM   12  C20 UNL     1      26.760  -0.162  54.077  1.00  0.00     0.038 C 
ENDROOT
BRANCH   1  13
HETATM   13  N1  UNL     1      23.555   2.458  51.477  1.00  0.00    -0.327 N 
HETATM   14  C5  UNL     1      23.124   2.164  50.135  1.00  0.00     0.109 C 
HETATM   15  C4  UNL     1      22.561   3.144  49.498  1.00  0.00     0.000 C 
HETATM   16  C3  UNL     1      22.760   4.403  49.759  1.00  0.00    -0.023 C 
HETATM   17  C22 UNL     1      23.192   4.744  51.109  1.00  0.00     0.057 C 
HETATM   18  C21 UNL     1      23.582   3.819  51.964  1.00  0.00     0.121 C 
HETATM   19 CL1  UNL     1      23.191   6.433  51.611  1.00  0.00    -0.082 Cl
BRANCH  16  20
HETATM   20  C2  UNL     1      22.560   5.471  48.750  1.00  0.00     0.037 C 
HETATM   21  C1  UNL     1      23.852   5.975  48.151  1.00  0.00     0.010 C 
ENDBRANCH  16  20
ENDBRANCH   1  13
BRANCH   9  22
HETATM   22  C12 UNL     1      26.091   2.459  50.840  1.00  0.00     0.218 A 
HETATM   23  O1  UNL     1      27.075   3.237  50.627  1.00  0.00    -0.343 OA
HETATM   24  C13 UNL     1      26.165   3.277  49.614  1.00  0.00     0.190 A 
BRANCH  24  25
HETATM   25  C14 UNL     1      27.093   4.130  49.237  1.00  0.00     0.022 C 
HETATM   26  C15 UNL     1      27.493   5.358  48.528  1.00  0.00     0.013 C 
ENDBRANCH  24  25
ENDBRANCH   9  22
BRANCH  11  27
HETATM   27  C18 UNL     1      29.118   0.527  54.178  1.00  0.00     0.031 C 
HETATM   28  C19 UNL     1      29.855  -0.607  53.576  1.00  0.00     0.010 C 
ENDBRANCH  11  27
TORSDOF 5
ENDMDL
MODEL 2
REMARK VINA RESULT:      -7.6      3.272      6.254
REMARK  5 active torsions:
REMARK  status: ('A' for Active; 'I' for Inactive)
REMARK    1  A    between atoms: C2_2  and  C3_3 
REMARK    2  A    between atoms: N1_6  and  C6_7 
REMARK    3  A    between atoms: N4_15  and  C12_16 
REMARK    4  A    between atoms: C13_18  and  C14_19 
REMARK    5  A    between atoms: C17_22  and  C18_23 
ROOT
HETATM    1  C6  UNL     1      22.197   0.702  52.635  1.00  0.00     0.090 A 
HETATM    2  C7  UNL     1      23.305   0.209  53.303  1.00  0.00     0.091 A 
HETATM    3  C8  UNL     1      24.600   0.774  53.063  1.00  0.00     0.103 C 
HETATM    4  N2  UNL     1      25.650   1.241  52.886  1.00  0.00    -0.191 NA
HETATM    5  C9  UNL     1      23.194  -0.840  54.222  1.00  0.00     0.142 A 
HETATM    6  N3  UNL     1      21.964  -1.382  54.452  1.00  0.00    -0.257 NA
HETATM    7  C10 UNL     1      20.925  -0.842  53.753  1.00  0.00     0.085 A 
HETATM    8  C11 UNL     1      20.945   0.187  52.841  1.00  0.00     0.091 A 
HETATM    9  N4  UNL     1      19.743   0.681  52.267  1.00  0.00    -0.335 N 
HETATM   10  C16 UNL     1      18.560  -0.191  52.206  1.00  0.00     0.161 C 
HETATM   11  C17 UNL     1      18.649  -1.241  53.211  1.00  0.00    -0.060 C 
HETATM   12  C20 UNL     1      19.698  -1.617  53.973  1.00  0.00     0.038 C 
ENDROOT
BRANCH   1  13
HETATM   13  N1  UNL     1      22.421   1.744  51.697  1.00  0.00    -0.327 N 
HETATM   14  C5  UNL     1      22.679   3.077  52.180  1.00  0.00     0.109 C 
HETATM   15  C4  UNL     1      23.111   3.921  51.294  1.00  0.00     0.000 C 
HETATM   16  C3  UNL     1      22.900   3.819  50.014  1.00  0.00    -0.023 C 
HETATM   17  C22 UNL     1      22.640   2.485  49.484  1.00  0.00     0.057 C 
HETATM   18  C21 UNL     1      22.406   1.460  50.280  1.00  0.00     0.121 C 
HETATM   19 CL1  UNL     1      22.641   2.238  47.741  1.00  0.00    -0.082 Cl
BRANCH  16  20
HETATM   20  C2  UNL     1      22.920   4.989  49.105  1.00  0.00     0.037 C 
HETATM   21  C1  UNL     1      24.315   5.471  48.782  1.00  0.00     0.010 C 
ENDBRANCH  16  20
ENDBRANCH   1  13
BRANCH   9  22
HETATM   22  C12 UNL     1      19.826   2.027  51.853  1.00  0.00     0.218 A 
HETATM   23  O1  UNL     1      18.621   2.385  51.654  1.00  0.00    -0.343 OA
HETATM   24  C13 UNL     1      19.502   3.393  51.401  1.00  0.00     0.190 A 
BRANCH  24  25
HETATM   25  C14 UNL     1      18.328   3.928  51.142  1.00  0.00     0.022 C 
HETATM   26  C15 UNL     1      16.912   4.142  51.491  1.00  0.00     0.013 C 
ENDBRANCH  24  25
ENDBRANCH   9  22
BRANCH  11  27
HETATM   27  C18 UNL     1      17.346  -1.934  53.333  1.00  0.00     0.031 C 
HETATM   28  C19 UNL     1      17.443  -3.383  53.623  1.00  0.00     0.010 C 
ENDBRANCH  11  27
TORSDOF 5
ENDMDL
MODEL 3
REMARK VINA RESULT:      -7.4      2.504      5.956
REMARK  5 active torsions:
REMARK  status: ('A' for Active; 'I' for Inactive)
REMARK    1  A    between atoms: C2_2  and  C3_3 
REMARK    2  A    between atoms: N1_6  and  C6_7 
REMARK    3  A    between atoms: N4_15  and  C12_16 
REMARK    4  A    between atoms: C13_18  and  C14_19 
REMARK    5  A    between atoms: C17_22  and  C18_23 
ROOT
HETATM    1  C6  UNL     1      22.777   0.294  52.772  1.00  0.00     0.090 A 
HETATM    2  C7  UNL     1      21.929  -0.332  53.669  1.00  0.00     0.091 A 
HETATM    3  C8  UNL     1      22.462  -0.983  54.829  1.00  0.00     0.103 C 
HETATM    4  N2  UNL     1      22.887  -1.496  55.782  1.00  0.00    -0.191 NA
HETATM    5  C9  UNL     1      20.544  -0.349  53.471  1.00  0.00     0.142 A 
HETATM    6  N3  UNL     1      20.032   0.267  52.367  1.00  0.00    -0.257 NA
HETATM    7  C10 UNL     1      20.934   0.859  51.533  1.00  0.00     0.085 A 
HETATM    8  C11 UNL     1      22.302   0.926  51.653  1.00  0.00     0.091 A 
HETATM    9  N4  UNL     1      23.084   1.664  50.726  1.00  0.00    -0.335 N 
HETATM   10  C16 UNL     1      22.560   1.913  49.374  1.00  0.00     0.161 C 
HETATM   11  C17 UNL     1      21.107   1.814  49.367  1.00  0.00    -0.060 C 
HETATM   12  C20 UNL     1      20.270   1.339  50.315  1.00  0.00     0.038 C 
ENDROOT
BRANCH   1  13
HETATM   13  N1  UNL     1      24.168   0.224  53.044  1.00  0.00    -0.327 N 
HETATM   14  C5  UNL     1      24.773   1.238  53.870  1.00  0.00     0.109 C 
HETATM   15  C4  UNL     1      25.979   0.986  54.277  1.00  0.00     0.000 C 
HETATM   16  C3  UNL     1      26.809   0.187  53.672  1.00  0.00    -0.023 C 
HETATM   17  C22 UNL     1      26.237  -0.857  52.830  1.00  0.00     0.057 C 
HETATM   18  C21 UNL     1      24.958  -0.864  52.512  1.00  0.00     0.121 C 
HETATM   19 CL1  UNL     1      27.280  -2.142  52.226  1.00  0.00    -0.082 Cl
BRANCH  16  20
HETATM   20  C2  UNL     1      28.280   0.306  53.813  1.00  0.00     0.037 C 
HETATM   21  C1  UNL     1      28.790   1.711  53.591  1.00  0.00     0.010 C 
ENDBRANCH  16  20
ENDBRANCH   1  13
BRANCH   9  22
HETATM   22  C12 UNL     1      24.305   2.130  51.261  1.00  0.00     0.218 A 
HETATM   23  O1  UNL     1      24.967   2.544  50.256  1.00  0.00    -0.343 OA
HETATM   24  C13 UNL     1      25.656   2.699  51.421  1.00  0.00     0.190 A 
BRANCH  24  25
HETATM   25  C14 UNL     1      26.478   3.164  50.504  1.00  0.00     0.022 C 
HETATM   26  C15 UNL     1      26.769   4.087  49.393  1.00  0.00     0.013 C 
ENDBRANCH  24  25
ENDBRANCH   9  22
BRANCH  11  27
HETATM   27  C18 UNL     1      20.572   2.336  48.088  1.00  0.00     0.031 C 
HETATM   28  C19 UNL     1      19.276   3.042  48.203  1.00  0.00     0.010 C 
ENDBRANCH  11  27
TORSDOF 5
ENDMDL
MODEL 4
REMARK VINA RESULT:      -7.4      1.776      2.453
REMARK  5 active torsions:
REMARK  status: ('A' for Active; 'I' for Inactive)
REMARK    1  A    between atoms: C2_2  and  C3_3 
REMARK    2  A    between atoms: N1_6  and  C6_7 
REMARK    3  A    between atoms: N4_15  and  C12_16 
REMARK    4  A    between atoms: C13_18  and  C14_19 
REMARK    5  A    between atoms: C17_22  and  C18_23 
ROOT
HETATM    1  C6  UNL     1      22.265   2.535  52.003  1.00  0.00     0.090 A 
HETATM    2  C7  UNL     1      21.042   2.056  52.440  1.00  0.00     0.091 A 
HETATM    3  C8  UNL     1      19.853   2.830  52.237  1.00  0.00     0.103 C 
HETATM    4  N2  UNL     1      18.882   3.444  52.059  1.00  0.00    -0.191 NA
HETATM    5  C9  UNL     1      20.933   0.819  53.085  1.00  0.00     0.142 A 
HETATM    6  N3  UNL     1      22.063   0.081  53.282  1.00  0.00    -0.257 NA
HETATM    7  C10 UNL     1      23.227   0.624  52.824  1.00  0.00     0.085 A 
HETATM    8  C11 UNL     1      23.422   1.823  52.180  1.00  0.00     0.091 A 
HETATM    9  N4  UNL     1      24.703   2.193  51.692  1.00  0.00    -0.335 N 
HETATM   10  C16 UNL     1      25.906   1.603  52.300  1.00  0.00     0.161 C 
HETATM   11  C17 UNL     1      25.579   0.343  52.952  1.00  0.00    -0.060 C 
HETATM   12  C20 UNL     1      24.374  -0.192  53.240  1.00  0.00     0.038 C 
ENDROOT
BRANCH   1  13
HETATM   13  N1  UNL     1      22.275   3.817  51.392  1.00  0.00    -0.327 N 
HETATM   14  C5  UNL     1      22.715   4.954  52.159  1.00  0.00     0.109 C 
HETATM   15  C4  UNL     1      22.930   6.039  51.481  1.00  0.00     0.000 C 
HETATM   16  C3  UNL     1      22.376   6.315  50.336  1.00  0.00    -0.023 C 
HETATM   17  C22 UNL     1      21.922   5.191  49.526  1.00  0.00     0.057 C 
HETATM   18  C21 UNL     1      21.864   3.967  50.015  1.00  0.00     0.121 C 
HETATM   19 CL1  UNL     1      21.440   5.474  47.856  1.00  0.00    -0.082 Cl
BRANCH  16  20
HETATM   20  C2  UNL     1      22.203   7.703  49.845  1.00  0.00     0.037 C 
HETATM   21  C1  UNL     1      23.501   8.472  49.761  1.00  0.00     0.010 C 
ENDBRANCH  16  20
ENDBRANCH   1  13
BRANCH   9  22
HETATM   22  C12 UNL     1      24.656   3.086  50.600  1.00  0.00     0.218 A 
HETATM   23  O1  UNL     1      25.838   3.546  50.502  1.00  0.00    -0.343 OA
HETATM   24  C13 UNL     1      25.007   4.067  49.556  1.00  0.00     0.190 A 
BRANCH  24  25
HETATM   25  C14 UNL     1      26.162   4.649  49.314  1.00  0.00     0.022 C 
HETATM   26  C15 UNL     1      27.525   4.608  48.755  1.00  0.00     0.013 C 
ENDBRANCH  24  25
ENDBRANCH   9  22
BRANCH  11  27
HETATM   27  C18 UNL     1      26.825  -0.376  53.312  1.00  0.00     0.031 C 
HETATM   28  C19 UNL     1      26.997  -1.684  52.641  1.00  0.00     0.010 C 
ENDBRANCH  11  27
TORSDOF 5
ENDMDL
MODEL 5
REMARK VINA RESULT:      -7.2      2.847      7.160
REMARK  5 active torsions:
REMARK  status: ('A' for Active; 'I' for Inactive)
REMARK    1  A    between atoms: C2_2  and  C3_3 
REMARK    2  A    between atoms: N1_6  and  C6_7 
REMARK    3  A    between atoms: N4_15  and  C12_16 
REMARK    4  A    between atoms: C13_18  and  C14_19 
REMARK    5  A    between atoms: C17_22  and  C18_23 
ROOT
HETATM    1  C6  UNL     1      23.923   2.972  50.995  1.00  0.00     0.090 A 
HETATM    2  C7  UNL     1      24.522   3.656  49.952  1.00  0.00     0.091 A 
HETATM    3  C8  UNL     1      25.948   3.641  49.806  1.00  0.00     0.103 C 
HETATM    4  N2  UNL     1      27.102   3.618  49.672  1.00  0.00    -0.191 NA
HETATM    5  C9  UNL     1      23.762   4.373  49.020  1.00  0.00     0.142 A 
HETATM    6  N3  UNL     1      22.405   4.392  49.156  1.00  0.00    -0.257 NA
HETATM    7  C10 UNL     1      21.894   3.695  50.211  1.00  0.00     0.085 A 
HETATM    8  C11 UNL     1      22.564   2.964  51.165  1.00  0.00     0.091 A 
HETATM    9  N4  UNL     1      21.858   2.225  52.151  1.00  0.00    -0.335 N 
HETATM   10  C16 UNL     1      20.489   2.625  52.512  1.00  0.00     0.161 C 
HETATM   11  C17 UNL     1      19.883   3.392  51.432  1.00  0.00    -0.060 C 
HETATM   12  C20 UNL     1      20.451   3.929  50.332  1.00  0.00     0.038 C 
ENDROOT
BRANCH   1  13
HETATM   13  N1  UNL     1      24.783   2.305  51.907  1.00  0.00    -0.327 N 
HETATM   14  C5  UNL     1      25.058   2.914  53.183  1.00  0.00     0.109 C 
HETATM   15  C4  UNL     1      25.645   2.151  54.054  1.00  0.00     0.000 C 
HETATM   16  C3  UNL     1      26.380   1.121  53.755  1.00  0.00    -0.023 C 
HETATM   17  C22 UNL     1      26.130   0.472  52.473  1.00  0.00     0.057 C 
HETATM   18  C21 UNL     1      25.357   1.025  51.559  1.00  0.00     0.121 C 
HETATM   19 CL1  UNL     1      26.876  -1.088  52.139  1.00  0.00    -0.082 Cl
BRANCH  16  20
HETATM   20  C2  UNL     1      27.434   0.600  54.658  1.00  0.00     0.037 C 
HETATM   21  C1  UNL     1      28.823   1.062  54.283  1.00  0.00     0.010 C 
ENDBRANCH  16  20
ENDBRANCH   1  13
BRANCH   9  22
HETATM   22  C12 UNL     1      22.576   1.117  52.649  1.00  0.00     0.218 A 
HETATM   23  O1  UNL     1      21.730   0.458  53.333  1.00  0.00    -0.343 OA
HETATM   24  C13 UNL     1      22.960  -0.129  53.339  1.00  0.00     0.190 A 
BRANCH  24  25
HETATM   25  C14 UNL     1      22.227  -0.927  54.087  1.00  0.00     0.022 C 
HETATM   26  C15 UNL     1      20.966  -1.645  54.339  1.00  0.00     0.013 C 
ENDBRANCH  24  25
ENDBRANCH   9  22
BRANCH  11  27
HETATM   27  C18 UNL     1      18.430   3.548  51.679  1.00  0.00     0.031 C 
HETATM   28  C19 UNL     1      17.617   2.356  51.346  1.00  0.00     0.010 C 
ENDBRANCH  11  27
TORSDOF 5
ENDMDL
MODEL 6
REMARK VINA RESULT:      -7.1      2.556      5.308
REMARK  5 active torsions:
REMARK  status: ('A' for Active; 'I' for Inactive)
REMARK    1  A    between atoms: C2_2  and  C3_3 
REMARK    2  A    between atoms: N1_6  and  C6_7 
REMARK    3  A    between atoms: N4_15  and  C12_16 
REMARK    4  A    between atoms: C13_18  and  C14_19 
REMARK    5  A    between atoms: C17_22  and  C18_23 
ROOT
HETATM    1  C6  UNL     1      23.957   1.786  51.749  1.00  0.00     0.090 A 
HETATM    2  C7  UNL     1      25.318   1.604  51.924  1.00  0.00     0.091 A 
HETATM    3  C8  UNL     1      26.250   2.414  51.197  1.00  0.00     0.103 C 
HETATM    4  N2  UNL     1      27.011   3.080  50.624  1.00  0.00    -0.191 NA
HETATM    5  C9  UNL     1      25.817   0.638  52.805  1.00  0.00     0.142 A 
HETATM    6  N3  UNL     1      24.933  -0.136  53.498  1.00  0.00    -0.257 NA
HETATM    7  C10 UNL     1      23.610   0.104  53.267  1.00  0.00     0.085 A 
HETATM    8  C11 UNL     1      23.037   1.030  52.428  1.00  0.00     0.091 A 
HETATM    9  N4  UNL     1      21.629   1.201  52.377  1.00  0.00    -0.335 N 
HETATM   10  C16 UNL     1      20.751   0.091  52.781  1.00  0.00     0.161 C 
HETATM   11  C17 UNL     1      21.462  -0.824  53.663  1.00  0.00    -0.060 C 
HETATM   12  C20 UNL     1      22.780  -0.897  53.948  1.00  0.00     0.038 C 
ENDROOT
BRANCH   1  13
HETATM   13  N1  UNL     1      23.553   2.767  50.807  1.00  0.00    -0.327 N 
HETATM   14  C5  UNL     1      23.643   4.160  51.163  1.00  0.00     0.109 C 
HETATM   15  C4  UNL     1      23.493   5.001  50.186  1.00  0.00     0.000 C 
HETATM   16  C3  UNL     1      22.848   4.745  49.086  1.00  0.00    -0.023 C 
HETATM   17  C22 UNL     1      22.740   3.347  48.686  1.00  0.00     0.057 C 
HETATM   18  C21 UNL     1      23.076   2.367  49.502  1.00  0.00     0.121 C 
HETATM   19 CL1  UNL     1      22.146   2.957  47.074  1.00  0.00    -0.082 Cl
BRANCH  16  20
HETATM   20  C2  UNL     1      22.242   5.807  48.248  1.00  0.00     0.037 C 
HETATM   21  C1  UNL     1      20.781   6.045  48.553  1.00  0.00     0.010 C 
ENDBRANCH  16  20
ENDBRANCH   1  13
BRANCH   9  22
HETATM   22  C12 UNL     1      21.229   2.493  51.973  1.00  0.00     0.218 A 
HETATM   23  O1  UNL     1      19.958   2.474  52.022  1.00  0.00    -0.343 OA
HETATM   24  C13 UNL     1      20.435   3.683  51.613  1.00  0.00     0.190 A 
BRANCH  24  25
HETATM   25  C14 UNL     1      19.129   3.840  51.600  1.00  0.00     0.022 C 
HETATM   26  C15 UNL     1      17.798   3.468  51.087  1.00  0.00     0.013 C 
ENDBRANCH  24  25
ENDBRANCH   9  22
BRANCH  11  27
HETATM   27  C18 UNL     1      20.506  -1.771  54.283  1.00  0.00     0.031 C 
HETATM   28  C19 UNL     1      19.140  -1.728  53.715  1.00  0.00     0.010 C 
ENDBRANCH  11  27
TORSDOF 5
ENDMDL
MODEL 7
REMARK VINA RESULT:      -7.1      2.474      4.670
REMARK  5 active torsions:
REMARK  status: ('A' for Active; 'I' for Inactive)
REMARK    1  A    between atoms: C2_2  and  C3_3 
REMARK    2  A    between atoms: N1_6  and  C6_7 
REMARK    3  A    between atoms: N4_15  and  C12_16 
REMARK    4  A    between atoms: C13_18  and  C14_19 
REMARK    5  A    between atoms: C17_22  and  C18_23 
ROOT
HETATM    1  C6  UNL     1      23.269   1.578  51.734  1.00  0.00     0.090 A 
HETATM    2  C7  UNL     1      23.634   0.904  52.886  1.00  0.00     0.091 A 
HETATM    3  C8  UNL     1      22.640   0.229  53.669  1.00  0.00     0.103 C 
HETATM    4  N2  UNL     1      21.842  -0.336  54.297  1.00  0.00    -0.191 NA
HETATM    5  C9  UNL     1      24.965   0.861  53.316  1.00  0.00     0.142 A 
HETATM    6  N3  UNL     1      25.913   1.504  52.575  1.00  0.00    -0.257 NA
HETATM    7  C10 UNL     1      25.472   2.146  51.456  1.00  0.00     0.085 A 
HETATM    8  C11 UNL     1      24.192   2.234  50.962  1.00  0.00     0.091 A 
HETATM    9  N4  UNL     1      23.926   2.878  49.725  1.00  0.00    -0.335 N 
HETATM   10  C16 UNL     1      24.864   3.894  49.223  1.00  0.00     0.161 C 
HETATM   11  C17 UNL     1      26.182   3.705  49.814  1.00  0.00    -0.060 C 
HETATM   12  C20 UNL     1      26.559   2.923  50.847  1.00  0.00     0.038 C 
ENDROOT
BRANCH   1  13
HETATM   13  N1  UNL     1      21.889   1.592  51.404  1.00  0.00    -0.327 N 
HETATM   14  C5  UNL     1      21.284   0.399  50.869  1.00  0.00     0.109 C 
HETATM   15  C4  UNL     1      19.988   0.400  50.819  1.00  0.00     0.000 C 
HETATM   16  C3  UNL     1      19.253   1.472  50.766  1.00  0.00    -0.023 C 
HETATM   17  C22 UNL     1      19.826   2.701  51.303  1.00  0.00     0.057 C 
HETATM   18  C21 UNL     1      21.103   2.786  51.622  1.00  0.00     0.121 C 
HETATM   19 CL1  UNL     1      18.788   4.105  51.532  1.00  0.00    -0.082 Cl
BRANCH  16  20
HETATM   20  C2  UNL     1      17.886   1.478  50.194  1.00  0.00     0.037 C 
HETATM   21  C1  UNL     1      16.867   0.794  51.077  1.00  0.00     0.010 C 
ENDBRANCH  16  20
ENDBRANCH   1  13
BRANCH   9  22
HETATM   22  C12 UNL     1      22.764   2.404  49.078  1.00  0.00     0.218 A 
HETATM   23  O1  UNL     1      22.670   3.102  48.019  1.00  0.00    -0.343 OA
HETATM   24  C13 UNL     1      21.656   2.199  48.127  1.00  0.00     0.190 A 
BRANCH  24  25
HETATM   25  C14 UNL     1      21.400   2.825  46.998  1.00  0.00     0.022 C 
HETATM   26  C15 UNL     1      21.814   3.736  45.916  1.00  0.00     0.013 C 
ENDBRANCH  24  25
ENDBRANCH   9  22
BRANCH  11  27
HETATM   27  C18 UNL     1      27.178   4.541  49.102  1.00  0.00     0.031 C 
HETATM   28  C19 UNL     1      26.678   5.868  48.677  1.00  0.00     0.010 C 
ENDBRANCH  11  27
TORSDOF 5
ENDMDL
MODEL 8
REMARK VINA RESULT:      -6.4      5.714      8.875
REMARK  5 active torsions:
REMARK  status: ('A' for Active; 'I' for Inactive)
REMARK    1  A    between atoms: C2_2  and  C3_3 
REMARK    2  A    between atoms: N1_6  and  C6_7 
REMARK    3  A    between atoms: N4_15  and  C12_16 
REMARK    4  A    between atoms: C13_18  and  C14_19 
REMARK    5  A    between atoms: C17_22  and  C18_23 
ROOT
HETATM    1  C6  UNL     1      17.730   1.803  51.357  1.00  0.00     0.090 A 
HETATM    2  C7  UNL     1      17.501   3.130  51.038  1.00  0.00     0.091 A 
HETATM    3  C8  UNL     1      16.260   3.522  50.437  1.00  0.00     0.103 C 
HETATM    4  N2  UNL     1      15.249   3.849  49.967  1.00  0.00    -0.191 NA
HETATM    5  C9  UNL     1      18.462   4.116  51.290  1.00  0.00     0.142 A 
HETATM    6  N3  UNL     1      19.645   3.747  51.860  1.00  0.00    -0.257 NA
HETATM    7  C10 UNL     1      19.792   2.421  52.142  1.00  0.00     0.085 A 
HETATM    8  C11 UNL     1      18.904   1.393  51.932  1.00  0.00     0.091 A 
HETATM    9  N4  UNL     1      19.193   0.074  52.370  1.00  0.00    -0.335 N 
HETATM   10  C16 UNL     1      20.594  -0.335  52.556  1.00  0.00     0.161 C 
HETATM   11  C17 UNL     1      21.440   0.832  52.766  1.00  0.00    -0.060 C 
HETATM   12  C20 UNL     1      21.159   2.141  52.598  1.00  0.00     0.038 C 
ENDROOT
BRANCH   1  13
HETATM   13  N1  UNL     1      16.707   0.876  51.028  1.00  0.00    -0.327 N 
HETATM   14  C5  UNL     1      15.565   0.754  51.899  1.00  0.00     0.109 C 
HETATM   15  C4  UNL     1      14.565   0.078  51.423  1.00  0.00     0.000 C 
HETATM   16  C3  UNL     1      14.664  -0.832  50.498  1.00  0.00    -0.023 C 
HETATM   17  C22 UNL     1      15.802  -0.741  49.592  1.00  0.00     0.057 C 
HETATM   18  C21 UNL     1      16.807   0.081  49.825  1.00  0.00     0.121 C 
HETATM   19 CL1  UNL     1      15.836  -1.752  48.150  1.00  0.00    -0.082 Cl
BRANCH  16  20
HETATM   20  C2  UNL     1      13.675  -1.925  50.343  1.00  0.00     0.037 C 
HETATM   21  C1  UNL     1      13.949  -3.109  51.241  1.00  0.00     0.010 C 
ENDBRANCH  16  20
ENDBRANCH   1  13
BRANCH   9  22
HETATM   22  C12 UNL     1      18.042  -0.701  52.630  1.00  0.00     0.218 A 
HETATM   23  O1  UNL     1      18.484  -1.796  53.105  1.00  0.00    -0.343 OA
HETATM   24  C13 UNL     1      17.124  -1.784  53.028  1.00  0.00     0.190 A 
BRANCH  24  25
HETATM   25  C14 UNL     1      17.401  -2.971  53.526  1.00  0.00     0.022 C 
HETATM   26  C15 UNL     1      17.031  -4.376  53.769  1.00  0.00     0.013 C 
ENDBRANCH  24  25
ENDBRANCH   9  22
BRANCH  11  27
HETATM   27  C18 UNL     1      22.782   0.404  53.228  1.00  0.00     0.031 C 
HETATM   28  C19 UNL     1      22.779  -0.775  54.122  1.00  0.00     0.010 C 
ENDBRANCH  11  27
TORSDOF 5
ENDMDL
MODEL 9
REMARK VINA RESULT:      -6.0     21.077     24.372
REMARK  5 active torsions:
REMARK  status: ('A' for Active; 'I' for Inactive)
REMARK    1  A    between atoms: C2_2  and  C3_3 
REMARK    2  A    between atoms: N1_6  and  C6_7 
REMARK    3  A    between atoms: N4_15  and  C12_16 
REMARK    4  A    between atoms: C13_18  and  C14_19 
REMARK    5  A    between atoms: C17_22  and  C18_23 
ROOT
HETATM    1  C6  UNL     1      39.970  -3.381  67.827  1.00  0.00     0.090 A 
HETATM    2  C7  UNL     1      38.923  -3.595  66.948  1.00  0.00     0.091 A 
HETATM    3  C8  UNL     1      38.073  -2.507  66.562  1.00  0.00     0.103 C 
HETATM    4  N2  UNL     1      37.392  -1.625  66.231  1.00  0.00    -0.191 NA
HETATM    5  C9  UNL     1      38.666  -4.864  66.417  1.00  0.00     0.142 A 
HETATM    6  N3  UNL     1      39.470  -5.903  66.783  1.00  0.00    -0.257 NA
HETATM    7  C10 UNL     1      40.478  -5.609  67.653  1.00  0.00     0.085 A 
HETATM    8  C11 UNL     1      40.802  -4.397  68.217  1.00  0.00     0.091 A 
HETATM    9  N4  UNL     1      41.948  -4.256  69.044  1.00  0.00    -0.335 N 
HETATM   10  C16 UNL     1      42.489  -5.436  69.737  1.00  0.00     0.161 C 
HETATM   11  C17 UNL     1      42.081  -6.656  69.055  1.00  0.00    -0.060 C 
HETATM   12  C20 UNL     1      41.160  -6.835  68.084  1.00  0.00     0.038 C 
ENDROOT
BRANCH   1  13
HETATM   13  N1  UNL     1      40.125  -2.065  68.337  1.00  0.00    -0.327 N 
HETATM   14  C5  UNL     1      40.726  -1.056  67.502  1.00  0.00     0.109 C 
HETATM   15  C4  UNL     1      40.617   0.164  67.929  1.00  0.00     0.000 C 
HETATM   16  C3  UNL     1      40.446   0.497  69.175  1.00  0.00    -0.023 C 
HETATM   17  C22 UNL     1      39.834  -0.494  70.052  1.00  0.00     0.057 C 
HETATM   18  C21 UNL     1      39.665  -1.745  69.670  1.00  0.00     0.121 C 
HETATM   19 CL1  UNL     1      39.307  -0.009  71.661  1.00  0.00    -0.082 Cl
BRANCH  16  20
HETATM   20  C2  UNL     1      40.841   1.821  69.711  1.00  0.00     0.037 C 
HETATM   21  C1  UNL     1      42.280   2.178  69.418  1.00  0.00     0.010 C 
ENDBRANCH  16  20
ENDBRANCH   1  13
BRANCH   9  22
HETATM   22  C12 UNL     1      42.477  -2.948  69.058  1.00  0.00     0.218 A 
HETATM   23  O1  UNL     1      43.444  -2.994  69.884  1.00  0.00    -0.343 OA
HETATM   24  C13 UNL     1      43.289  -1.751  69.348  1.00  0.00     0.190 A 
BRANCH  24  25
HETATM   25  C14 UNL     1      44.310  -1.615  70.168  1.00  0.00     0.022 C 
HETATM   26  C15 UNL     1      45.200  -0.763  70.975  1.00  0.00     0.013 C 
ENDBRANCH  24  25
ENDBRANCH   9  22
BRANCH  11  27
HETATM   27  C18 UNL     1      42.849  -7.808  69.582  1.00  0.00     0.031 C 
HETATM   28  C19 UNL     1      44.319  -7.668  69.480  1.00  0.00     0.010 C 
ENDBRANCH  11  27
TORSDOF 5
ENDMDL
