MODEL 1
REMARK VINA RESULT:      -8.0      0.000      0.000
REMARK  5 active torsions:
REMARK  status: ('A' for Active; 'I' for Inactive)
REMARK    1  A    between atoms: C2_2  and  C3_3 
REMARK    2  A    between atoms: C3_3  and  C4_4 
REMARK    3  A    between atoms: C4_4  and  C5_5 
REMARK    4  A    between atoms: C5_5  and  C6_6 
REMARK    5  A    between atoms: C7_8  and  C8_9 
ROOT
HETATM    1  C8  UNL     1      22.586   0.401  53.689  1.00  0.00    -0.027 A 
HETATM    2  C9  UNL     1      23.725  -0.361  53.742  1.00  0.00     0.017 A 
HETATM    3  C10 UNL     1      24.922  -0.289  53.076  1.00  0.00    -0.052 A 
HETATM    4  C11 UNL     1      24.295   0.828  52.467  1.00  0.00     0.048 A 
HETATM    5  C12 UNL     1      23.384   1.886  52.053  1.00  0.00     0.176 A 
HETATM    6  C13 UNL     1      22.400   1.495  52.879  1.00  0.00     0.050 A 
HETATM    7  N2  UNL     1      23.870   2.798  51.076  1.00  0.00     0.139 N 
HETATM    8  C14 UNL     1      24.342   3.682  50.131  1.00  0.00     0.330 A 
HETATM    9  O1  UNL     1      23.134   3.710  50.107  1.00  0.00    -0.118 OA
HETATM   10  C15 UNL     1      25.847   3.813  49.981  1.00  0.00     0.185 C 
HETATM   11  N3  UNL     1      26.946   3.228  50.473  1.00  0.00    -0.269 NA
HETATM   12  C16 UNL     1      26.804   2.168  51.404  1.00  0.00     0.112 C 
HETATM   13  C17 UNL     1      26.691   1.199  52.333  1.00  0.00    -0.003 C 
HETATM   14  C18 UNL     1      26.245  -0.293  52.414  1.00  0.00     0.067 C 
HETATM   15  H10 UNL     1      24.568   2.767  51.799  1.00  0.00     0.335 HD
ENDROOT
BRANCH   1  16
HETATM   16  C7  UNL     1      21.412   0.079  54.532  1.00  0.00     0.164 A 
HETATM   17  N1  UNL     1      20.212   0.469  53.783  1.00  0.00    -0.276 NA
HETATM   18  C6  UNL     1      19.578  -0.582  53.397  1.00  0.00     0.052 A 
HETATM   19  C20 UNL     1      20.226  -1.811  53.811  1.00  0.00     0.029 A 
HETATM   20  C19 UNL     1      21.294  -1.422  54.473  1.00  0.00     0.007 A 
BRANCH  18  21
HETATM   21  C5  UNL     1      18.345  -0.511  52.632  1.00  0.00     0.031 C 
BRANCH  21  22
HETATM   22  C4  UNL     1      18.362  -0.207  51.344  1.00  0.00     0.010 C 
BRANCH  22  23
HETATM   23  C3  UNL     1      18.822   0.854  50.517  1.00  0.00     0.051 C 
BRANCH  23  24
HETATM   24  C2  UNL     1      20.055   0.983  50.080  1.00  0.00    -0.155 C 
HETATM   25  C1  UNL     1      21.128   0.899  49.306  1.00  0.00     0.096 C 
ENDBRANCH  23  24
ENDBRANCH  22  23
ENDBRANCH  21  22
ENDBRANCH  18  21
ENDBRANCH   1  16
TORSDOF 5
ENDMDL
MODEL 2
REMARK VINA RESULT:      -7.8      2.435      7.239
REMARK  5 active torsions:
REMARK  status: ('A' for Active; 'I' for Inactive)
REMARK    1  A    between atoms: C2_2  and  C3_3 
REMARK    2  A    between atoms: C3_3  and  C4_4 
REMARK    3  A    between atoms: C4_4  and  C5_5 
REMARK    4  A    between atoms: C5_5  and  C6_6 
REMARK    5  A    between atoms: C7_8  and  C8_9 
ROOT
HETATM    1  C8  UNL     1      23.590   1.075  52.460  1.00  0.00    -0.027 A 
HETATM    2  C9  UNL     1      23.108   1.437  51.228  1.00  0.00     0.017 A 
HETATM    3  C10 UNL     1      21.928   1.175  50.580  1.00  0.00    -0.052 A 
HETATM    4  C11 UNL     1      21.655   0.459  51.773  1.00  0.00     0.048 A 
HETATM    5  C12 UNL     1      21.696  -0.162  53.090  1.00  0.00     0.176 A 
HETATM    6  C13 UNL     1      22.922   0.302  53.378  1.00  0.00     0.050 A 
HETATM    7  N2  UNL     1      20.543  -0.897  53.483  1.00  0.00     0.139 N 
HETATM    8  C14 UNL     1      19.426  -1.607  53.863  1.00  0.00     0.330 A 
HETATM    9  O1  UNL     1      20.365  -1.998  54.516  1.00  0.00    -0.118 OA
HETATM   10  C15 UNL     1      18.116  -1.282  53.169  1.00  0.00     0.185 C 
HETATM   11  N3  UNL     1      17.695  -0.506  52.162  1.00  0.00    -0.269 NA
HETATM   12  C16 UNL     1      18.640   0.283  51.458  1.00  0.00     0.112 C 
HETATM   13  C17 UNL     1      19.512   1.084  50.817  1.00  0.00    -0.003 C 
HETATM   14  C18 UNL     1      20.689   0.951  49.802  1.00  0.00     0.067 C 
HETATM   15  H10 UNL     1      20.210   0.002  53.182  1.00  0.00     0.335 HD
ENDROOT
BRANCH   1  16
HETATM   16  C7  UNL     1      24.936   1.501  52.907  1.00  0.00     0.164 A 
HETATM   17  N1  UNL     1      25.598   0.328  53.487  1.00  0.00    -0.276 NA
HETATM   18  C6  UNL     1      26.545  -0.068  52.710  1.00  0.00     0.052 A 
HETATM   19  C20 UNL     1      26.670   0.750  51.519  1.00  0.00     0.029 A 
HETATM   20  C19 UNL     1      25.732   1.663  51.637  1.00  0.00     0.007 A 
BRANCH  18  21
HETATM   21  C5  UNL     1      27.383  -1.214  53.023  1.00  0.00     0.031 C 
BRANCH  21  22
HETATM   22  C4  UNL     1      28.682  -1.068  53.231  1.00  0.00     0.010 C 
BRANCH  22  23
HETATM   23  C3  UNL     1      29.550  -0.136  53.860  1.00  0.00     0.051 C 
BRANCH  23  24
HETATM   24  C2  UNL     1      29.258   1.126  54.087  1.00  0.00    -0.155 C 
HETATM   25  C1  UNL     1      28.973   2.405  53.884  1.00  0.00     0.096 C 
ENDBRANCH  23  24
ENDBRANCH  22  23
ENDBRANCH  21  22
ENDBRANCH  18  21
ENDBRANCH   1  16
TORSDOF 5
ENDMDL
MODEL 3
REMARK VINA RESULT:      -7.7      3.071      5.643
REMARK  5 active torsions:
REMARK  status: ('A' for Active; 'I' for Inactive)
REMARK    1  A    between atoms: C2_2  and  C3_3 
REMARK    2  A    between atoms: C3_3  and  C4_4 
REMARK    3  A    between atoms: C4_4  and  C5_5 
REMARK    4  A    between atoms: C5_5  and  C6_6 
REMARK    5  A    between atoms: C7_8  and  C8_9 
ROOT
HETATM    1  C8  UNL     1      23.293   2.949  52.187  1.00  0.00    -0.027 A 
HETATM    2  C9  UNL     1      22.762   1.725  52.502  1.00  0.00     0.017 A 
HETATM    3  C10 UNL     1      23.324   0.560  52.960  1.00  0.00    -0.052 A 
HETATM    4  C11 UNL     1      24.512   1.330  52.886  1.00  0.00     0.048 A 
HETATM    5  C12 UNL     1      25.511   2.372  52.698  1.00  0.00     0.176 A 
HETATM    6  C13 UNL     1      24.622   3.285  52.276  1.00  0.00     0.050 A 
HETATM    7  N2  UNL     1      26.854   2.033  53.024  1.00  0.00     0.139 N 
HETATM    8  C14 UNL     1      28.153   1.703  53.340  1.00  0.00     0.330 A 
HETATM    9  O1  UNL     1      28.174   2.640  52.576  1.00  0.00    -0.118 OA
HETATM   10  C15 UNL     1      28.372   0.543  54.294  1.00  0.00     0.185 C 
HETATM   11  N3  UNL     1      27.629  -0.384  54.913  1.00  0.00    -0.269 NA
HETATM   12  C16 UNL     1      26.228  -0.400  54.698  1.00  0.00     0.112 C 
HETATM   13  C17 UNL     1      24.889  -0.395  54.552  1.00  0.00    -0.003 C 
HETATM   14  C18 UNL     1      23.834  -0.738  53.456  1.00  0.00     0.067 C 
HETATM   15  H10 UNL     1      26.301   1.778  53.823  1.00  0.00     0.335 HD
ENDROOT
BRANCH   1  16
HETATM   16  C7  UNL     1      22.433   4.049  51.693  1.00  0.00     0.164 A 
HETATM   17  N1  UNL     1      23.259   4.897  50.826  1.00  0.00    -0.276 NA
HETATM   18  C6  UNL     1      22.896   4.751  49.600  1.00  0.00     0.052 A 
HETATM   19  C20 UNL     1      21.802   3.813  49.447  1.00  0.00     0.029 A 
HETATM   20  C19 UNL     1      21.534   3.406  50.668  1.00  0.00     0.007 A 
BRANCH  18  21
HETATM   21  C5  UNL     1      23.534   5.468  48.508  1.00  0.00     0.031 C 
BRANCH  21  22
HETATM   22  C4  UNL     1      24.632   6.178  48.713  1.00  0.00     0.010 C 
BRANCH  22  23
HETATM   23  C3  UNL     1      26.031   5.951  48.817  1.00  0.00     0.051 C 
BRANCH  23  24
HETATM   24  C2  UNL     1      26.585   4.779  49.041  1.00  0.00    -0.155 C 
HETATM   25  C1  UNL     1      26.756   3.528  49.446  1.00  0.00     0.096 C 
ENDBRANCH  23  24
ENDBRANCH  22  23
ENDBRANCH  21  22
ENDBRANCH  18  21
ENDBRANCH   1  16
TORSDOF 5
ENDMDL
MODEL 4
REMARK VINA RESULT:      -7.7      2.349      6.487
REMARK  5 active torsions:
REMARK  status: ('A' for Active; 'I' for Inactive)
REMARK    1  A    between atoms: C2_2  and  C3_3 
REMARK    2  A    between atoms: C3_3  and  C4_4 
REMARK    3  A    between atoms: C4_4  and  C5_5 
REMARK    4  A    between atoms: C5_5  and  C6_6 
REMARK    5  A    between atoms: C7_8  and  C8_9 
ROOT
HETATM    1  C8  UNL     1      23.980   1.137  53.200  1.00  0.00    -0.027 A 
HETATM    2  C9  UNL     1      23.149   0.099  53.535  1.00  0.00     0.017 A 
HETATM    3  C10 UNL     1      21.794  -0.079  53.421  1.00  0.00    -0.052 A 
HETATM    4  C11 UNL     1      21.864   1.223  52.865  1.00  0.00     0.048 A 
HETATM    5  C12 UNL     1      22.281   2.522  52.357  1.00  0.00     0.176 A 
HETATM    6  C13 UNL     1      23.580   2.320  52.626  1.00  0.00     0.050 A 
HETATM    7  N2  UNL     1      21.258   3.358  51.829  1.00  0.00     0.139 N 
HETATM    8  C14 UNL     1      20.267   4.165  51.317  1.00  0.00     0.330 A 
HETATM    9  O1  UNL     1      21.203   4.864  51.628  1.00  0.00    -0.118 OA
HETATM   10  C15 UNL     1      18.984   3.498  50.857  1.00  0.00     0.185 C 
HETATM   11  N3  UNL     1      18.446   2.271  50.869  1.00  0.00    -0.269 NA
HETATM   12  C16 UNL     1      19.176   1.204  51.453  1.00  0.00     0.112 C 
HETATM   13  C17 UNL     1      19.878   0.168  51.949  1.00  0.00    -0.003 C 
HETATM   14  C18 UNL     1      20.344  -0.367  53.338  1.00  0.00     0.067 C 
HETATM   15  H10 UNL     1      21.154   2.468  51.373  1.00  0.00     0.335 HD
ENDROOT
BRANCH   1  16
HETATM   16  C7  UNL     1      25.437   1.060  53.454  1.00  0.00     0.164 A 
HETATM   17  N1  UNL     1      25.767  -0.349  53.694  1.00  0.00    -0.276 NA
HETATM   18  C6  UNL     1      26.437  -0.815  52.698  1.00  0.00     0.052 A 
HETATM   19  C20 UNL     1      26.659   0.174  51.661  1.00  0.00     0.029 A 
HETATM   20  C19 UNL     1      26.076   1.265  52.105  1.00  0.00     0.007 A 
BRANCH  18  21
HETATM   21  C5  UNL     1      26.908  -2.189  52.650  1.00  0.00     0.031 C 
BRANCH  21  22
HETATM   22  C4  UNL     1      28.202  -2.464  52.667  1.00  0.00     0.010 C 
BRANCH  22  23
HETATM   23  C3  UNL     1      29.360  -2.045  53.377  1.00  0.00     0.051 C 
BRANCH  23  24
HETATM   24  C2  UNL     1      29.616  -0.803  53.726  1.00  0.00    -0.155 C 
HETATM   25  C1  UNL     1      29.520   0.515  53.840  1.00  0.00     0.096 C 
ENDBRANCH  23  24
ENDBRANCH  22  23
ENDBRANCH  21  22
ENDBRANCH  18  21
ENDBRANCH   1  16
TORSDOF 5
ENDMDL
MODEL 5
REMARK VINA RESULT:      -7.5      2.684      4.496
REMARK  5 active torsions:
REMARK  status: ('A' for Active; 'I' for Inactive)
REMARK    1  A    between atoms: C2_2  and  C3_3 
REMARK    2  A    between atoms: C3_3  and  C4_4 
REMARK    3  A    between atoms: C4_4  and  C5_5 
REMARK    4  A    between atoms: C5_5  and  C6_6 
REMARK    5  A    between atoms: C7_8  and  C8_9 
ROOT
HETATM    1  C8  UNL     1      22.692   3.133  52.313  1.00  0.00    -0.027 A 
HETATM    2  C9  UNL     1      22.118   1.919  52.592  1.00  0.00     0.017 A 
HETATM    3  C10 UNL     1      22.648   0.683  52.867  1.00  0.00    -0.052 A 
HETATM    4  C11 UNL     1      23.870   1.383  52.698  1.00  0.00     0.048 A 
HETATM    5  C12 UNL     1      24.910   2.375  52.466  1.00  0.00     0.176 A 
HETATM    6  C13 UNL     1      24.043   3.376  52.249  1.00  0.00     0.050 A 
HETATM    7  N2  UNL     1      26.255   1.925  52.576  1.00  0.00     0.139 N 
HETATM    8  C14 UNL     1      27.556   1.488  52.684  1.00  0.00     0.330 A 
HETATM    9  O1  UNL     1      27.547   2.489  52.007  1.00  0.00    -0.118 OA
HETATM   10  C15 UNL     1      27.812   0.232  53.497  1.00  0.00     0.185 C 
HETATM   11  N3  UNL     1      27.090  -0.702  54.129  1.00  0.00    -0.269 NA
HETATM   12  C16 UNL     1      25.675  -0.613  54.106  1.00  0.00     0.112 C 
HETATM   13  C17 UNL     1      24.332  -0.512  54.144  1.00  0.00    -0.003 C 
HETATM   14  C18 UNL     1      23.121  -0.684  53.177  1.00  0.00     0.067 C 
HETATM   15  H10 UNL     1      25.793   1.630  53.419  1.00  0.00     0.335 HD
ENDROOT
BRANCH   1  16
HETATM   16  C7  UNL     1      21.858   4.325  52.036  1.00  0.00     0.164 A 
HETATM   17  N1  UNL     1      22.098   4.714  50.642  1.00  0.00    -0.276 NA
HETATM   18  C6  UNL     1      21.056   4.456  49.932  1.00  0.00     0.052 A 
HETATM   19  C20 UNL     1      19.980   3.871  50.708  1.00  0.00     0.029 A 
HETATM   20  C19 UNL     1      20.451   3.796  51.933  1.00  0.00     0.007 A 
BRANCH  18  21
HETATM   21  C5  UNL     1      20.995   4.736  48.507  1.00  0.00     0.031 C 
BRANCH  21  22
HETATM   22  C4  UNL     1      21.717   4.036  47.646  1.00  0.00     0.010 C 
BRANCH  22  23
HETATM   23  C3  UNL     1      22.405   2.793  47.613  1.00  0.00     0.051 C 
BRANCH  23  24
HETATM   24  C2  UNL     1      22.026   1.709  48.253  1.00  0.00    -0.155 C 
HETATM   25  C1  UNL     1      21.381   0.903  49.086  1.00  0.00     0.096 C 
ENDBRANCH  23  24
ENDBRANCH  22  23
ENDBRANCH  21  22
ENDBRANCH  18  21
ENDBRANCH   1  16
TORSDOF 5
ENDMDL
MODEL 6
REMARK VINA RESULT:      -7.2      2.496      4.247
REMARK  5 active torsions:
REMARK  status: ('A' for Active; 'I' for Inactive)
REMARK    1  A    between atoms: C2_2  and  C3_3 
REMARK    2  A    between atoms: C3_3  and  C4_4 
REMARK    3  A    between atoms: C4_4  and  C5_5 
REMARK    4  A    between atoms: C5_5  and  C6_6 
REMARK    5  A    between atoms: C7_8  and  C8_9 
ROOT
HETATM    1  C8  UNL     1      23.835   2.590  51.592  1.00  0.00    -0.027 A 
HETATM    2  C9  UNL     1      23.336   1.367  51.961  1.00  0.00     0.017 A 
HETATM    3  C10 UNL     1      23.893   0.296  52.612  1.00  0.00    -0.052 A 
HETATM    4  C11 UNL     1      25.033   1.139  52.619  1.00  0.00     0.048 A 
HETATM    5  C12 UNL     1      25.987   2.227  52.459  1.00  0.00     0.176 A 
HETATM    6  C13 UNL     1      25.116   3.028  51.825  1.00  0.00     0.050 A 
HETATM    7  N2  UNL     1      27.287   2.019  52.999  1.00  0.00     0.139 N 
HETATM    8  C14 UNL     1      28.544   1.817  53.523  1.00  0.00     0.330 A 
HETATM    9  O1  UNL     1      28.620   2.674  52.674  1.00  0.00    -0.118 OA
HETATM   10  C15 UNL     1      28.691   0.774  54.617  1.00  0.00     0.185 C 
HETATM   11  N3  UNL     1      27.922  -0.139  55.224  1.00  0.00    -0.269 NA
HETATM   12  C16 UNL     1      26.569  -0.278  54.822  1.00  0.00     0.112 C 
HETATM   13  C17 UNL     1      25.267  -0.384  54.495  1.00  0.00    -0.003 C 
HETATM   14  C18 UNL     1      24.401  -0.907  53.309  1.00  0.00     0.067 C 
HETATM   15  H10 UNL     1      26.640   1.804  53.738  1.00  0.00     0.335 HD
ENDROOT
BRANCH   1  16
HETATM   16  C7  UNL     1      22.993   3.571  50.871  1.00  0.00     0.164 A 
HETATM   17  N1  UNL     1      21.842   2.844  50.323  1.00  0.00    -0.276 NA
HETATM   18  C6  UNL     1      20.775   3.171  50.964  1.00  0.00     0.052 A 
HETATM   19  C20 UNL     1      21.025   4.141  52.012  1.00  0.00     0.029 A 
HETATM   20  C19 UNL     1      22.318   4.373  51.954  1.00  0.00     0.007 A 
BRANCH  18  21
HETATM   21  C5  UNL     1      19.472   2.612  50.644  1.00  0.00     0.031 C 
BRANCH  21  22
HETATM   22  C4  UNL     1      19.067   1.477  51.194  1.00  0.00     0.010 C 
BRANCH  22  23
HETATM   23  C3  UNL     1      19.649   0.278  51.688  1.00  0.00     0.051 C 
BRANCH  23  24
HETATM   24  C2  UNL     1      19.917   0.041  52.953  1.00  0.00    -0.155 C 
HETATM   25  C1  UNL     1      20.588  -0.207  54.069  1.00  0.00     0.096 C 
ENDBRANCH  23  24
ENDBRANCH  22  23
ENDBRANCH  21  22
ENDBRANCH  18  21
ENDBRANCH   1  16
TORSDOF 5
ENDMDL
MODEL 7
REMARK VINA RESULT:      -7.2      4.590      7.764
REMARK  5 active torsions:
REMARK  status: ('A' for Active; 'I' for Inactive)
REMARK    1  A    between atoms: C2_2  and  C3_3 
REMARK    2  A    between atoms: C3_3  and  C4_4 
REMARK    3  A    between atoms: C4_4  and  C5_5 
REMARK    4  A    between atoms: C5_5  and  C6_6 
REMARK    5  A    between atoms: C7_8  and  C8_9 
ROOT
HETATM    1  C8  UNL     1      25.816   4.392  49.244  1.00  0.00    -0.027 A 
HETATM    2  C9  UNL     1      25.151   5.571  49.020  1.00  0.00     0.017 A 
HETATM    3  C10 UNL     1      25.567   6.801  48.578  1.00  0.00    -0.052 A 
HETATM    4  C11 UNL     1      26.824   6.147  48.537  1.00  0.00     0.048 A 
HETATM    5  C12 UNL     1      27.928   5.200  48.610  1.00  0.00     0.176 A 
HETATM    6  C13 UNL     1      27.161   4.190  49.050  1.00  0.00     0.050 A 
HETATM    7  N2  UNL     1      29.206   5.679  48.209  1.00  0.00     0.139 N 
HETATM    8  C14 UNL     1      30.442   6.144  47.820  1.00  0.00     0.330 A 
HETATM    9  O1  UNL     1      30.606   5.186  48.538  1.00  0.00    -0.118 OA
HETATM   10  C15 UNL     1      30.482   7.356  46.905  1.00  0.00     0.185 C 
HETATM   11  N3  UNL     1      29.613   8.229  46.380  1.00  0.00    -0.269 NA
HETATM   12  C16 UNL     1      28.236   8.102  46.691  1.00  0.00     0.112 C 
HETATM   13  C17 UNL     1      26.917   7.963  46.927  1.00  0.00    -0.003 C 
HETATM   14  C18 UNL     1      25.916   8.160  48.107  1.00  0.00     0.067 C 
HETATM   15  H10 UNL     1      28.575   5.910  47.461  1.00  0.00     0.335 HD
ENDROOT
BRANCH   1  16
HETATM   16  C7  UNL     1      25.101   3.197  49.746  1.00  0.00     0.164 A 
HETATM   17  N1  UNL     1      26.010   2.489  50.654  1.00  0.00    -0.276 NA
HETATM   18  C6  UNL     1      25.597   2.612  51.867  1.00  0.00     0.052 A 
HETATM   19  C20 UNL     1      24.381   3.395  51.969  1.00  0.00     0.029 A 
HETATM   20  C19 UNL     1      24.095   3.734  50.732  1.00  0.00     0.007 A 
BRANCH  18  21
HETATM   21  C5  UNL     1      26.297   2.014  52.992  1.00  0.00     0.031 C 
BRANCH  21  22
HETATM   22  C4  UNL     1      27.263   1.130  52.799  1.00  0.00     0.010 C 
BRANCH  22  23
HETATM   23  C3  UNL     1      27.480  -0.258  53.012  1.00  0.00     0.051 C 
BRANCH  23  24
HETATM   24  C2  UNL     1      28.645  -0.799  53.294  1.00  0.00    -0.155 C 
HETATM   25  C1  UNL     1      29.916  -0.930  53.649  1.00  0.00     0.096 C 
ENDBRANCH  23  24
ENDBRANCH  22  23
ENDBRANCH  21  22
ENDBRANCH  18  21
ENDBRANCH   1  16
TORSDOF 5
ENDMDL
MODEL 8
REMARK VINA RESULT:      -7.2      1.832      6.763
REMARK  5 active torsions:
REMARK  status: ('A' for Active; 'I' for Inactive)
REMARK    1  A    between atoms: C2_2  and  C3_3 
REMARK    2  A    between atoms: C3_3  and  C4_4 
REMARK    3  A    between atoms: C4_4  and  C5_5 
REMARK    4  A    between atoms: C5_5  and  C6_6 
REMARK    5  A    between atoms: C7_8  and  C8_9 
ROOT
HETATM    1  C8  UNL     1      23.478   2.526  51.497  1.00  0.00    -0.027 A 
HETATM    2  C9  UNL     1      23.003   2.446  50.212  1.00  0.00     0.017 A 
HETATM    3  C10 UNL     1      21.942   1.778  49.655  1.00  0.00    -0.052 A 
HETATM    4  C11 UNL     1      21.755   1.353  50.995  1.00  0.00     0.048 A 
HETATM    5  C12 UNL     1      21.847   1.117  52.429  1.00  0.00     0.176 A 
HETATM    6  C13 UNL     1      22.932   1.892  52.586  1.00  0.00     0.050 A 
HETATM    7  N2  UNL     1      20.849   0.280  53.002  1.00  0.00     0.139 N 
HETATM    8  C14 UNL     1      19.884  -0.531  53.555  1.00  0.00     0.330 A 
HETATM    9  O1  UNL     1      20.844  -0.529  54.289  1.00  0.00    -0.118 OA
HETATM   10  C15 UNL     1      18.577  -0.685  52.798  1.00  0.00     0.185 C 
HETATM   11  N3  UNL     1      18.063  -0.304  51.622  1.00  0.00    -0.269 NA
HETATM   12  C16 UNL     1      18.864   0.460  50.735  1.00  0.00     0.112 C 
HETATM   13  C17 UNL     1      19.588   1.235  49.906  1.00  0.00    -0.003 C 
HETATM   14  C18 UNL     1      20.823   1.100  48.963  1.00  0.00     0.067 C 
HETATM   15  H10 UNL     1      20.357   0.977  52.473  1.00  0.00     0.335 HD
ENDROOT
BRANCH   1  16
HETATM   16  C7  UNL     1      24.679   3.331  51.816  1.00  0.00     0.164 A 
HETATM   17  N1  UNL     1      25.514   2.535  52.722  1.00  0.00    -0.276 NA
HETATM   18  C6  UNL     1      26.573   2.142  52.105  1.00  0.00     0.052 A 
HETATM   19  C20 UNL     1      26.622   2.596  50.729  1.00  0.00     0.029 A 
HETATM   20  C19 UNL     1      25.517   3.290  50.565  1.00  0.00     0.007 A 
BRANCH  18  21
HETATM   21  C5  UNL     1      27.594   1.331  52.748  1.00  0.00     0.031 C 
BRANCH  21  22
HETATM   22  C4  UNL     1      27.504   0.011  52.762  1.00  0.00     0.010 C 
BRANCH  22  23
HETATM   23  C3  UNL     1      26.626  -0.981  53.279  1.00  0.00     0.051 C 
BRANCH  23  24
HETATM   24  C2  UNL     1      25.494  -0.730  53.899  1.00  0.00    -0.155 C 
HETATM   25  C1  UNL     1      24.366  -0.906  54.572  1.00  0.00     0.096 C 
ENDBRANCH  23  24
ENDBRANCH  22  23
ENDBRANCH  21  22
ENDBRANCH  18  21
ENDBRANCH   1  16
TORSDOF 5
ENDMDL
MODEL 9
REMARK VINA RESULT:      -7.1      3.842      7.442
REMARK  5 active torsions:
REMARK  status: ('A' for Active; 'I' for Inactive)
REMARK    1  A    between atoms: C2_2  and  C3_3 
REMARK    2  A    between atoms: C3_3  and  C4_4 
REMARK    3  A    between atoms: C4_4  and  C5_5 
REMARK    4  A    between atoms: C5_5  and  C6_6 
REMARK    5  A    between atoms: C7_8  and  C8_9 
ROOT
HETATM    1  C8  UNL     1      26.325   4.640  49.082  1.00  0.00    -0.027 A 
HETATM    2  C9  UNL     1      27.630   4.773  48.681  1.00  0.00     0.017 A 
HETATM    3  C10 UNL     1      28.367   5.853  48.267  1.00  0.00    -0.052 A 
HETATM    4  C11 UNL     1      27.143   6.532  48.491  1.00  0.00     0.048 A 
HETATM    5  C12 UNL     1      25.774   6.907  48.815  1.00  0.00     0.176 A 
HETATM    6  C13 UNL     1      25.409   5.661  49.156  1.00  0.00     0.050 A 
HETATM    7  N2  UNL     1      25.440   8.283  48.673  1.00  0.00     0.139 N 
HETATM    8  C14 UNL     1      25.119   9.615  48.535  1.00  0.00     0.330 A 
HETATM    9  O1  UNL     1      24.097   8.970  48.485  1.00  0.00    -0.118 OA
HETATM   10  C15 UNL     1      26.256  10.619  48.567  1.00  0.00     0.185 C 
HETATM   11  N3  UNL     1      27.594  10.599  48.615  1.00  0.00    -0.269 NA
HETATM   12  C16 UNL     1      28.264   9.349  48.641  1.00  0.00     0.112 C 
HETATM   13  C17 UNL     1      28.915   8.174  48.726  1.00  0.00    -0.003 C 
HETATM   14  C18 UNL     1      29.245   6.954  47.812  1.00  0.00     0.067 C 
HETATM   15  H10 UNL     1      26.273   8.255  49.235  1.00  0.00     0.335 HD
ENDROOT
BRANCH   1  16
HETATM   16  C7  UNL     1      25.778   3.320  49.472  1.00  0.00     0.164 A 
HETATM   17  N1  UNL     1      26.820   2.620  50.231  1.00  0.00    -0.276 NA
HETATM   18  C6  UNL     1      26.483   2.552  51.472  1.00  0.00     0.052 A 
HETATM   19  C20 UNL     1      25.201   3.173  51.740  1.00  0.00     0.029 A 
HETATM   20  C19 UNL     1      24.793   3.619  50.573  1.00  0.00     0.007 A 
BRANCH  18  21
HETATM   21  C5  UNL     1      27.321   1.910  52.472  1.00  0.00     0.031 C 
BRANCH  21  22
HETATM   22  C4  UNL     1      27.203   0.617  52.727  1.00  0.00     0.010 C 
BRANCH  22  23
HETATM   23  C3  UNL     1      26.203  -0.389  52.636  1.00  0.00     0.051 C 
BRANCH  23  24
HETATM   24  C2  UNL     1      25.014  -0.316  53.193  1.00  0.00    -0.155 C 
HETATM   25  C1  UNL     1      23.703  -0.408  53.371  1.00  0.00     0.096 C 
ENDBRANCH  23  24
ENDBRANCH  22  23
ENDBRANCH  21  22
ENDBRANCH  18  21
ENDBRANCH   1  16
TORSDOF 5
ENDMDL
