MODEL 1
REMARK VINA RESULT:      -7.8      0.000      0.000
REMARK  5 active torsions:
REMARK  status: ('A' for Active; 'I' for Inactive)
REMARK    1  A    between atoms: C2_2  and  O1_3 
REMARK    2  A    between atoms: O1_3  and  C3_4 
REMARK    3  A    between atoms: C4_5  and  C5_6 
REMARK    4  A    between atoms: C13_16  and  N2_17 
REMARK    5  A    between atoms: N2_17  and  C14_18 
ROOT
HETATM    1  C3  UNL     1      23.309   2.949  51.613  1.00  0.00     0.202 C 
HETATM    2  C4  UNL     1      24.055   2.880  50.360  1.00  0.00     0.167 C 
HETATM    3  O2  UNL     1      23.227   2.569  49.183  1.00  0.00    -0.353 OA
HETATM    4  C10 UNL     1      21.879   2.106  49.373  1.00  0.00     0.160 C 
HETATM    5  C11 UNL     1      21.553   1.430  50.504  1.00  0.00     0.036 C 
HETATM    6  C12 UNL     1      22.606   0.585  51.254  1.00  0.00     0.117 C 
HETATM    7  C13 UNL     1      22.912   1.669  52.319  1.00  0.00     0.160 C 
HETATM    8  N3  UNL     1      21.679   1.751  53.062  1.00  0.00    -0.249 NA
HETATM    9  C20 UNL     1      20.454   1.697  52.567  1.00  0.00     0.204 C 
HETATM   10  N4  UNL     1      20.225   1.520  51.119  1.00  0.00    -0.353 N 
HETATM   11  H26 UNL     1      19.559   1.452  50.343  1.00  0.00     0.166 HD
ENDROOT
BRANCH   7  12
HETATM   12  N2  UNL     1      23.914   1.104  53.146  1.00  0.00    -0.357 N 
HETATM   13  H21 UNL     1      23.502   1.127  54.130  1.00  0.00     0.162 HD
BRANCH  12  14
HETATM   14  C14 UNL     1      25.223   0.528  53.235  1.00  0.00     0.069 A 
HETATM   15  C15 UNL     1      25.558  -0.747  52.785  1.00  0.00     0.034 A 
HETATM   16  C16 UNL     1      26.847  -1.139  52.921  1.00  0.00     0.021 A 
HETATM   17  C17 UNL     1      27.804  -0.343  53.470  1.00  0.00     0.014 A 
HETATM   18 BR1  UNL     1      29.543  -1.116  53.551  1.00  0.00    -0.051 Br
HETATM   19  C18 UNL     1      27.500   0.925  53.923  1.00  0.00     0.063 A 
HETATM   20  C19 UNL     1      26.188   1.325  53.786  1.00  0.00     0.144 A 
HETATM   21  F1  UNL     1      26.087   2.596  54.268  1.00  0.00    -0.204 F 
ENDBRANCH  12  14
ENDBRANCH   7  12
BRANCH   1  22
HETATM   22  O1  UNL     1      24.011   3.649  52.580  1.00  0.00    -0.379 OA
BRANCH  22  23
HETATM   23  C2  UNL     1      23.376   4.813  53.008  1.00  0.00     0.164 C 
HETATM   24  C1  UNL     1      22.248   5.101  52.055  1.00  0.00     0.033 C 
ENDBRANCH  22  23
ENDBRANCH   1  22
BRANCH   2  25
HETATM   25  C5  UNL     1      24.908   3.955  49.906  1.00  0.00     0.048 C 
HETATM   26  C6  UNL     1      26.211   3.727  49.245  1.00  0.00     0.039 C 
HETATM   27  C7  UNL     1      26.649   5.212  49.173  1.00  0.00     0.272 C 
HETATM   28  N1  UNL     1      25.418   5.939  48.911  1.00  0.00     0.084 N 
HETATM   29  C8  UNL     1      25.256   6.914  49.966  1.00  0.00     0.309 C 
HETATM   30  C9  UNL     1      24.325   4.946  48.919  1.00  0.00     0.279 C 
ENDBRANCH   2  25
TORSDOF 5
ENDMDL
MODEL 2
REMARK VINA RESULT:      -7.7      2.938      6.047
REMARK  5 active torsions:
REMARK  status: ('A' for Active; 'I' for Inactive)
REMARK    1  A    between atoms: C2_2  and  O1_3 
REMARK    2  A    between atoms: O1_3  and  C3_4 
REMARK    3  A    between atoms: C4_5  and  C5_6 
REMARK    4  A    between atoms: C13_16  and  N2_17 
REMARK    5  A    between atoms: N2_17  and  C14_18 
ROOT
HETATM    1  C3  UNL     1      23.786   3.726  50.577  1.00  0.00     0.202 C 
HETATM    2  C4  UNL     1      24.700   3.441  51.680  1.00  0.00     0.167 C 
HETATM    3  O2  UNL     1      24.276   4.005  52.972  1.00  0.00    -0.353 OA
HETATM    4  C10 UNL     1      23.213   4.972  53.003  1.00  0.00     0.160 C 
HETATM    5  C11 UNL     1      22.994   5.768  51.925  1.00  0.00     0.036 C 
HETATM    6  C12 UNL     1      24.153   6.157  50.980  1.00  0.00     0.117 C 
HETATM    7  C13 UNL     1      23.817   5.086  49.911  1.00  0.00     0.160 C 
HETATM    8  N3  UNL     1      22.547   5.531  49.395  1.00  0.00    -0.249 NA
HETATM    9  C20 UNL     1      21.547   6.044  50.092  1.00  0.00     0.204 C 
HETATM   10  N4  UNL     1      21.657   6.237  51.552  1.00  0.00    -0.353 N 
HETATM   11  H26 UNL     1      21.216   6.532  52.428  1.00  0.00     0.166 HD
ENDROOT
BRANCH   7  12
HETATM   12  N2  UNL     1      24.804   5.241  48.908  1.00  0.00    -0.357 N 
HETATM   13  H21 UNL     1      24.381   4.796  48.036  1.00  0.00     0.162 HD
BRANCH  12  14
HETATM   14  C14 UNL     1      26.108   5.725  48.561  1.00  0.00     0.069 A 
HETATM   15  C15 UNL     1      26.377   7.011  48.099  1.00  0.00     0.034 A 
HETATM   16  C16 UNL     1      27.668   7.323  47.835  1.00  0.00     0.021 A 
HETATM   17  C17 UNL     1      28.688   6.439  48.003  1.00  0.00     0.014 A 
HETATM   18 BR1  UNL     1      30.416   7.110  47.565  1.00  0.00    -0.051 Br
HETATM   19  C18 UNL     1      28.450   5.158  48.460  1.00  0.00     0.063 A 
HETATM   20  C19 UNL     1      27.136   4.839  48.729  1.00  0.00     0.144 A 
HETATM   21  F1  UNL     1      27.103   3.553  49.180  1.00  0.00    -0.204 F 
ENDBRANCH  12  14
ENDBRANCH   7  12
BRANCH   1  22
HETATM   22  O1  UNL     1      23.977   2.845  49.524  1.00  0.00    -0.379 OA
BRANCH  22  23
HETATM   23  C2  UNL     1      22.846   2.101  49.198  1.00  0.00     0.164 C 
HETATM   24  C1  UNL     1      22.591   2.268  47.724  1.00  0.00     0.033 C 
ENDBRANCH  22  23
ENDBRANCH   1  22
BRANCH   2  25
HETATM   25  C5  UNL     1      25.119   2.098  52.012  1.00  0.00     0.048 C 
HETATM   26  C6  UNL     1      26.407   1.523  51.571  1.00  0.00     0.039 C 
HETATM   27  C7  UNL     1      26.165   0.087  52.100  1.00  0.00     0.272 C 
HETATM   28  N1  UNL     1      25.436   0.278  53.343  1.00  0.00     0.084 N 
HETATM   29  C8  UNL     1      24.195  -0.456  53.238  1.00  0.00     0.309 C 
HETATM   30  C9  UNL     1      25.197   1.729  53.480  1.00  0.00     0.279 C 
ENDBRANCH   2  25
TORSDOF 5
ENDMDL
MODEL 3
REMARK VINA RESULT:      -7.5      1.913      4.933
REMARK  5 active torsions:
REMARK  status: ('A' for Active; 'I' for Inactive)
REMARK    1  A    between atoms: C2_2  and  O1_3 
REMARK    2  A    between atoms: O1_3  and  C3_4 
REMARK    3  A    between atoms: C4_5  and  C5_6 
REMARK    4  A    between atoms: C13_16  and  N2_17 
REMARK    5  A    between atoms: N2_17  and  C14_18 
ROOT
HETATM    1  C3  UNL     1      22.377   2.456  50.932  1.00  0.00     0.202 C 
HETATM    2  C4  UNL     1      21.336   2.319  51.947  1.00  0.00     0.167 C 
HETATM    3  O2  UNL     1      20.866   3.599  52.501  1.00  0.00    -0.353 OA
HETATM    4  C10 UNL     1      21.609   4.799  52.232  1.00  0.00     0.160 C 
HETATM    5  C11 UNL     1      22.946   4.725  52.002  1.00  0.00     0.036 C 
HETATM    6  C12 UNL     1      23.797   3.600  52.631  1.00  0.00     0.117 C 
HETATM    7  C13 UNL     1      23.808   2.716  51.358  1.00  0.00     0.160 C 
HETATM    8  N3  UNL     1      24.579   3.498  50.425  1.00  0.00    -0.249 NA
HETATM    9  C20 UNL     1      24.531   4.810  50.267  1.00  0.00     0.204 C 
HETATM   10  N4  UNL     1      23.639   5.646  51.096  1.00  0.00    -0.353 N 
HETATM   11  H26 UNL     1      23.269   6.575  51.314  1.00  0.00     0.166 HD
ENDROOT
BRANCH   7  12
HETATM   12  N2  UNL     1      24.547   1.562  51.715  1.00  0.00    -0.357 N 
HETATM   13  H21 UNL     1      23.875   0.747  51.560  1.00  0.00     0.162 HD
BRANCH  12  14
HETATM   14  C14 UNL     1      25.785   1.020  52.191  1.00  0.00     0.069 A 
HETATM   15  C15 UNL     1      27.009   1.683  52.145  1.00  0.00     0.034 A 
HETATM   16  C16 UNL     1      28.087   1.043  52.658  1.00  0.00     0.021 A 
HETATM   17  C17 UNL     1      28.013  -0.200  53.205  1.00  0.00     0.014 A 
HETATM   18 BR1  UNL     1      29.663  -0.891  53.859  1.00  0.00    -0.051 Br
HETATM   19  C18 UNL     1      26.813  -0.880  53.264  1.00  0.00     0.063 A 
HETATM   20  C19 UNL     1      25.715  -0.230  52.743  1.00  0.00     0.144 A 
HETATM   21  F1  UNL     1      24.632  -1.043  52.905  1.00  0.00    -0.204 F 
ENDBRANCH  12  14
ENDBRANCH   7  12
BRANCH   1  22
HETATM   22  O1  UNL     1      22.473   1.316  50.151  1.00  0.00    -0.379 OA
BRANCH  22  23
HETATM   23  C2  UNL     1      21.687   1.350  49.002  1.00  0.00     0.164 C 
HETATM   24  C1  UNL     1      22.483   2.024  47.917  1.00  0.00     0.033 C 
ENDBRANCH  22  23
ENDBRANCH   1  22
BRANCH   2  25
HETATM   25  C5  UNL     1      20.118   1.577  51.712  1.00  0.00     0.048 C 
HETATM   26  C6  UNL     1      19.720   0.404  52.518  1.00  0.00     0.039 C 
HETATM   27  C7  UNL     1      18.476   0.012  51.681  1.00  0.00     0.272 C 
HETATM   28  N1  UNL     1      17.904   1.283  51.269  1.00  0.00     0.084 N 
HETATM   29  C8  UNL     1      17.830   1.280  49.826  1.00  0.00     0.309 C 
HETATM   30  C9  UNL     1      18.809   2.340  51.763  1.00  0.00     0.279 C 
ENDBRANCH   2  25
TORSDOF 5
ENDMDL
MODEL 4
REMARK VINA RESULT:      -7.4      3.649      6.014
REMARK  5 active torsions:
REMARK  status: ('A' for Active; 'I' for Inactive)
REMARK    1  A    between atoms: C2_2  and  O1_3 
REMARK    2  A    between atoms: O1_3  and  C3_4 
REMARK    3  A    between atoms: C4_5  and  C5_6 
REMARK    4  A    between atoms: C13_16  and  N2_17 
REMARK    5  A    between atoms: N2_17  and  C14_18 
ROOT
HETATM    1  C3  UNL     1      21.951   0.381  52.459  1.00  0.00     0.202 C 
HETATM    2  C4  UNL     1      23.096   0.323  53.364  1.00  0.00     0.167 C 
HETATM    3  O2  UNL     1      23.005  -0.735  54.383  1.00  0.00    -0.353 OA
HETATM    4  C10 UNL     1      21.753  -1.411  54.586  1.00  0.00     0.160 C 
HETATM    5  C11 UNL     1      20.588  -0.766  54.315  1.00  0.00     0.036 C 
HETATM    6  C12 UNL     1      20.486   0.770  54.438  1.00  0.00     0.117 C 
HETATM    7  C13 UNL     1      20.665   1.035  52.921  1.00  0.00     0.160 C 
HETATM    8  N3  UNL     1      19.467   0.474  52.349  1.00  0.00    -0.249 NA
HETATM    9  C20 UNL     1      18.868  -0.647  52.715  1.00  0.00     0.204 C 
HETATM   10  N4  UNL     1      19.398  -1.467  53.824  1.00  0.00    -0.353 N 
HETATM   11  H26 UNL     1      19.324  -2.314  54.395  1.00  0.00     0.166 HD
ENDROOT
BRANCH   7  12
HETATM   12  N2  UNL     1      20.626   2.444  52.784  1.00  0.00    -0.357 N 
HETATM   13  H21 UNL     1      19.771   2.751  53.343  1.00  0.00     0.162 HD
BRANCH  12  14
HETATM   14  C14 UNL     1      21.225   3.620  52.225  1.00  0.00     0.069 A 
HETATM   15  C15 UNL     1      22.505   4.079  52.532  1.00  0.00     0.034 A 
HETATM   16  C16 UNL     1      22.936   5.196  51.901  1.00  0.00     0.021 A 
HETATM   17  C17 UNL     1      22.176   5.871  50.997  1.00  0.00     0.014 A 
HETATM   18 BR1  UNL     1      23.001   7.413  50.243  1.00  0.00    -0.051 Br
HETATM   19  C18 UNL     1      20.905   5.439  50.673  1.00  0.00     0.063 A 
HETATM   20  C19 UNL     1      20.465   4.301  51.315  1.00  0.00     0.144 A 
HETATM   21  F1  UNL     1      19.210   4.024  50.859  1.00  0.00    -0.204 F 
ENDBRANCH  12  14
ENDBRANCH   7  12
BRANCH   1  22
HETATM   22  O1  UNL     1      22.262   1.062  51.294  1.00  0.00    -0.379 OA
BRANCH  22  23
HETATM   23  C2  UNL     1      21.660   0.536  50.154  1.00  0.00     0.164 C 
HETATM   24  C1  UNL     1      21.736   1.576  49.068  1.00  0.00     0.033 C 
ENDBRANCH  22  23
ENDBRANCH   1  22
BRANCH   2  25
HETATM   25  C5  UNL     1      24.457   0.224  52.885  1.00  0.00     0.048 C 
HETATM   26  C6  UNL     1      25.176   1.352  52.259  1.00  0.00     0.039 C 
HETATM   27  C7  UNL     1      26.449   0.566  51.855  1.00  0.00     0.272 C 
HETATM   28  N1  UNL     1      26.653  -0.373  52.945  1.00  0.00     0.084 N 
HETATM   29  C8  UNL     1      26.673  -1.702  52.377  1.00  0.00     0.309 C 
HETATM   30  C9  UNL     1      25.521  -0.200  53.877  1.00  0.00     0.279 C 
ENDBRANCH   2  25
TORSDOF 5
ENDMDL
MODEL 5
REMARK VINA RESULT:      -7.0      6.841     10.399
REMARK  5 active torsions:
REMARK  status: ('A' for Active; 'I' for Inactive)
REMARK    1  A    between atoms: C2_2  and  O1_3 
REMARK    2  A    between atoms: O1_3  and  C3_4 
REMARK    3  A    between atoms: C4_5  and  C5_6 
REMARK    4  A    between atoms: C13_16  and  N2_17 
REMARK    5  A    between atoms: N2_17  and  C14_18 
ROOT
HETATM    1  C3  UNL     1      31.833   7.190  47.145  1.00  0.00     0.202 C 
HETATM    2  C4  UNL     1      31.794   5.959  46.360  1.00  0.00     0.167 C 
HETATM    3  O2  UNL     1      32.145   6.139  44.942  1.00  0.00    -0.353 OA
HETATM    4  C10 UNL     1      32.220   7.467  44.398  1.00  0.00     0.160 C 
HETATM    5  C11 UNL     1      31.465   8.459  44.937  1.00  0.00     0.036 C 
HETATM    6  C12 UNL     1      30.112   8.146  45.615  1.00  0.00     0.117 C 
HETATM    7  C13 UNL     1      30.680   8.169  47.058  1.00  0.00     0.160 C 
HETATM    8  N3  UNL     1      31.051   9.550  47.239  1.00  0.00    -0.249 NA
HETATM    9  C20 UNL     1      31.612  10.341  46.340  1.00  0.00     0.204 C 
HETATM   10  N4  UNL     1      31.913   9.854  44.979  1.00  0.00    -0.353 N 
HETATM   11  H26 UNL     1      32.311  10.041  44.054  1.00  0.00     0.166 HD
ENDROOT
BRANCH   7  12
HETATM   12  N2  UNL     1      29.577   7.873  47.895  1.00  0.00    -0.357 N 
HETATM   13  H21 UNL     1      29.485   8.719  48.537  1.00  0.00     0.162 HD
BRANCH  12  14
HETATM   14  C14 UNL     1      28.548   6.941  48.253  1.00  0.00     0.069 A 
HETATM   15  C15 UNL     1      28.703   5.557  48.263  1.00  0.00     0.034 A 
HETATM   16  C16 UNL     1      27.640   4.811  48.648  1.00  0.00     0.021 A 
HETATM   17  C17 UNL     1      26.452   5.361  49.017  1.00  0.00     0.014 A 
HETATM   18 BR1  UNL     1      25.107   4.108  49.517  1.00  0.00    -0.051 Br
HETATM   19  C18 UNL     1      26.270   6.729  49.017  1.00  0.00     0.063 A 
HETATM   20  C19 UNL     1      27.352   7.489  48.625  1.00  0.00     0.144 A 
HETATM   21  F1  UNL     1      26.991   8.802  48.705  1.00  0.00    -0.204 F 
ENDBRANCH  12  14
ENDBRANCH   7  12
BRANCH   1  22
HETATM   22  O1  UNL     1      31.929   6.922  48.501  1.00  0.00    -0.379 OA
BRANCH  22  23
HETATM   23  C2  UNL     1      32.878   7.696  49.164  1.00  0.00     0.164 C 
HETATM   24  C1  UNL     1      34.155   7.645  48.367  1.00  0.00     0.033 C 
ENDBRANCH  22  23
ENDBRANCH   1  22
BRANCH   2  25
HETATM   25  C5  UNL     1      32.522   4.771  46.747  1.00  0.00     0.048 C 
HETATM   26  C6  UNL     1      31.971   3.407  46.609  1.00  0.00     0.039 C 
HETATM   27  C7  UNL     1      33.131   2.662  47.317  1.00  0.00     0.272 C 
HETATM   28  N1  UNL     1      34.324   3.390  46.920  1.00  0.00     0.084 N 
HETATM   29  C8  UNL     1      34.989   3.827  48.126  1.00  0.00     0.309 C 
HETATM   30  C9  UNL     1      33.874   4.535  46.104  1.00  0.00     0.279 C 
ENDBRANCH   2  25
TORSDOF 5
ENDMDL
MODEL 6
REMARK VINA RESULT:      -6.9      7.948     11.391
REMARK  5 active torsions:
REMARK  status: ('A' for Active; 'I' for Inactive)
REMARK    1  A    between atoms: C2_2  and  O1_3 
REMARK    2  A    between atoms: O1_3  and  C3_4 
REMARK    3  A    between atoms: C4_5  and  C5_6 
REMARK    4  A    between atoms: C13_16  and  N2_17 
REMARK    5  A    between atoms: N2_17  and  C14_18 
ROOT
HETATM    1  C3  UNL     1      33.058   6.347  46.520  1.00  0.00     0.202 C 
HETATM    2  C4  UNL     1      33.433   7.692  46.948  1.00  0.00     0.167 C 
HETATM    3  O2  UNL     1      34.622   7.737  47.815  1.00  0.00    -0.353 OA
HETATM    4  C10 UNL     1      35.132   6.516  48.375  1.00  0.00     0.160 C 
HETATM    5  C11 UNL     1      34.288   5.477  48.605  1.00  0.00     0.036 C 
HETATM    6  C12 UNL     1      32.795   5.723  48.919  1.00  0.00     0.117 C 
HETATM    7  C13 UNL     1      32.309   5.440  47.474  1.00  0.00     0.160 C 
HETATM    8  N3  UNL     1      32.586   4.035  47.308  1.00  0.00    -0.249 NA
HETATM    9  C20 UNL     1      33.652   3.384  47.741  1.00  0.00     0.204 C 
HETATM   10  N4  UNL     1      34.714   4.079  48.496  1.00  0.00    -0.353 N 
HETATM   11  H26 UNL     1      35.625   4.033  48.963  1.00  0.00     0.166 HD
ENDROOT
BRANCH   7  12
HETATM   12  N2  UNL     1      30.907   5.634  47.510  1.00  0.00    -0.357 N 
HETATM   13  H21 UNL     1      30.500   4.796  46.991  1.00  0.00     0.162 HD
BRANCH  12  14
HETATM   14  C14 UNL     1      29.812   6.457  47.931  1.00  0.00     0.069 A 
HETATM   15  C15 UNL     1      29.860   7.846  48.033  1.00  0.00     0.034 A 
HETATM   16  C16 UNL     1      28.731   8.484  48.425  1.00  0.00     0.021 A 
HETATM   17  C17 UNL     1      27.577   7.825  48.716  1.00  0.00     0.014 A 
HETATM   18 BR1  UNL     1      26.125   8.939  49.244  1.00  0.00    -0.051 Br
HETATM   19  C18 UNL     1      27.501   6.449  48.623  1.00  0.00     0.063 A 
HETATM   20  C19 UNL     1      28.649   5.799  48.224  1.00  0.00     0.144 A 
HETATM   21  F1  UNL     1      28.378   4.464  48.176  1.00  0.00    -0.204 F 
ENDBRANCH  12  14
ENDBRANCH   7  12
BRANCH   1  22
HETATM   22  O1  UNL     1      32.244   6.383  45.400  1.00  0.00    -0.379 OA
BRANCH  22  23
HETATM   23  C2  UNL     1      32.821   5.821  44.264  1.00  0.00     0.164 C 
HETATM   24  C1  UNL     1      32.479   6.698  43.089  1.00  0.00     0.033 C 
ENDBRANCH  22  23
ENDBRANCH   1  22
BRANCH   2  25
HETATM   25  C5  UNL     1      33.649   8.771  46.011  1.00  0.00     0.048 C 
HETATM   26  C6  UNL     1      32.980  10.085  46.125  1.00  0.00     0.039 C 
HETATM   27  C7  UNL     1      33.499  10.678  44.790  1.00  0.00     0.272 C 
HETATM   28  N1  UNL     1      34.852  10.162  44.668  1.00  0.00     0.084 N 
HETATM   29  C8  UNL     1      34.936   9.453  43.411  1.00  0.00     0.309 C 
HETATM   30  C9  UNL     1      35.071   9.258  45.815  1.00  0.00     0.279 C 
ENDBRANCH   2  25
TORSDOF 5
ENDMDL
MODEL 7
REMARK VINA RESULT:      -6.8      3.719      6.281
REMARK  5 active torsions:
REMARK  status: ('A' for Active; 'I' for Inactive)
REMARK    1  A    between atoms: C2_2  and  O1_3 
REMARK    2  A    between atoms: O1_3  and  C3_4 
REMARK    3  A    between atoms: C4_5  and  C5_6 
REMARK    4  A    between atoms: C13_16  and  N2_17 
REMARK    5  A    between atoms: N2_17  and  C14_18 
ROOT
HETATM    1  C3  UNL     1      23.488   2.061  52.391  1.00  0.00     0.202 C 
HETATM    2  C4  UNL     1      24.681   1.502  51.762  1.00  0.00     0.167 C 
HETATM    3  O2  UNL     1      25.463   2.477  50.984  1.00  0.00    -0.353 OA
HETATM    4  C10 UNL     1      24.888   3.759  50.680  1.00  0.00     0.160 C 
HETATM    5  C11 UNL     1      23.540   3.885  50.578  1.00  0.00     0.036 C 
HETATM    6  C12 UNL     1      22.665   2.695  50.126  1.00  0.00     0.117 C 
HETATM    7  C13 UNL     1      22.242   2.290  51.561  1.00  0.00     0.160 C 
HETATM    8  N3  UNL     1      21.432   3.404  51.988  1.00  0.00    -0.249 NA
HETATM    9  C20 UNL     1      21.663   4.684  51.748  1.00  0.00     0.204 C 
HETATM   10  N4  UNL     1      22.834   5.112  50.957  1.00  0.00    -0.353 N 
HETATM   11  H26 UNL     1      23.390   5.879  50.569  1.00  0.00     0.166 HD
ENDROOT
BRANCH   7  12
HETATM   12  N2  UNL     1      21.414   1.153  51.397  1.00  0.00    -0.357 N 
HETATM   13  H21 UNL     1      22.082   0.361  51.142  1.00  0.00     0.162 HD
BRANCH  12  14
HETATM   14  C14 UNL     1      20.087   0.611  51.418  1.00  0.00     0.069 A 
HETATM   15  C15 UNL     1      19.542  -0.106  52.481  1.00  0.00     0.034 A 
HETATM   16  C16 UNL     1      18.263  -0.533  52.357  1.00  0.00     0.021 A 
HETATM   17  C17 UNL     1      17.510  -0.288  51.251  1.00  0.00     0.014 A 
HETATM   18 BR1  UNL     1      15.740  -0.989  51.312  1.00  0.00    -0.051 Br
HETATM   19  C18 UNL     1      18.023   0.421  50.184  1.00  0.00     0.063 A 
HETATM   20  C19 UNL     1      19.325   0.856  50.309  1.00  0.00     0.144 A 
HETATM   21  F1  UNL     1      19.647   1.543  49.176  1.00  0.00    -0.204 F 
ENDBRANCH  12  14
ENDBRANCH   7  12
BRANCH   1  22
HETATM   22  O1  UNL     1      23.043   1.260  53.431  1.00  0.00    -0.379 OA
BRANCH  22  23
HETATM   23  C2  UNL     1      23.251  -0.101  53.224  1.00  0.00     0.164 C 
HETATM   24  C1  UNL     1      22.667  -0.841  54.398  1.00  0.00     0.033 C 
ENDBRANCH  22  23
ENDBRANCH   1  22
BRANCH   2  25
HETATM   25  C5  UNL     1      25.683   0.776  52.510  1.00  0.00     0.048 C 
HETATM   26  C6  UNL     1      26.698  -0.088  51.871  1.00  0.00     0.039 C 
HETATM   27  C7  UNL     1      27.312  -0.656  53.175  1.00  0.00     0.272 C 
HETATM   28  N1  UNL     1      27.275   0.459  54.107  1.00  0.00     0.084 N 
HETATM   29  C8  UNL     1      26.529   0.032  55.269  1.00  0.00     0.309 C 
HETATM   30  C9  UNL     1      26.603   1.575  53.412  1.00  0.00     0.279 C 
ENDBRANCH   2  25
TORSDOF 5
ENDMDL
MODEL 8
REMARK VINA RESULT:      -6.8      3.345      6.340
REMARK  5 active torsions:
REMARK  status: ('A' for Active; 'I' for Inactive)
REMARK    1  A    between atoms: C2_2  and  O1_3 
REMARK    2  A    between atoms: O1_3  and  C3_4 
REMARK    3  A    between atoms: C4_5  and  C5_6 
REMARK    4  A    between atoms: C13_16  and  N2_17 
REMARK    5  A    between atoms: N2_17  and  C14_18 
ROOT
HETATM    1  C3  UNL     1      25.280   2.456  51.538  1.00  0.00     0.202 C 
HETATM    2  C4  UNL     1      25.562   2.075  52.919  1.00  0.00     0.167 C 
HETATM    3  O2  UNL     1      24.659   1.042  53.453  1.00  0.00    -0.353 OA
HETATM    4  C10 UNL     1      23.466   0.706  52.727  1.00  0.00     0.160 C 
HETATM    5  C11 UNL     1      22.874   1.638  51.936  1.00  0.00     0.036 C 
HETATM    6  C12 UNL     1      22.996   3.144  52.259  1.00  0.00     0.117 C 
HETATM    7  C13 UNL     1      24.136   3.405  51.243  1.00  0.00     0.160 C 
HETATM    8  N3  UNL     1      23.493   3.191  49.970  1.00  0.00    -0.249 NA
HETATM    9  C20 UNL     1      22.609   2.251  49.681  1.00  0.00     0.204 C 
HETATM   10  N4  UNL     1      22.161   1.286  50.705  1.00  0.00    -0.353 N 
HETATM   11  H26 UNL     1      21.593   0.467  50.942  1.00  0.00     0.166 HD
ENDROOT
BRANCH   7  12
HETATM   12  N2  UNL     1      24.447   4.780  51.379  1.00  0.00    -0.357 N 
HETATM   13  H21 UNL     1      24.707   4.901  52.406  1.00  0.00     0.162 HD
BRANCH  12  14
HETATM   14  C14 UNL     1      24.557   6.061  50.747  1.00  0.00     0.069 A 
HETATM   15  C15 UNL     1      25.713   6.546  50.138  1.00  0.00     0.034 A 
HETATM   16  C16 UNL     1      25.650   7.771  49.564  1.00  0.00     0.021 A 
HETATM   17  C17 UNL     1      24.519   8.526  49.564  1.00  0.00     0.014 A 
HETATM   18 BR1  UNL     1      24.678  10.213  48.693  1.00  0.00    -0.051 Br
HETATM   19  C18 UNL     1      23.359   8.071  50.159  1.00  0.00     0.063 A 
HETATM   20  C19 UNL     1      23.422   6.824  50.744  1.00  0.00     0.144 A 
HETATM   21  F1  UNL     1      22.191   6.542  51.259  1.00  0.00    -0.204 F 
ENDBRANCH  12  14
ENDBRANCH   7  12
BRANCH   1  22
HETATM   22  O1  UNL     1      26.373   3.074  50.952  1.00  0.00    -0.379 OA
BRANCH  22  23
HETATM   23  C2  UNL     1      26.532   2.778  49.600  1.00  0.00     0.164 C 
HETATM   24  C1  UNL     1      27.189   3.961  48.942  1.00  0.00     0.033 C 
ENDBRANCH  22  23
ENDBRANCH   1  22
BRANCH   2  25
HETATM   25  C5  UNL     1      26.872   1.644  53.352  1.00  0.00     0.048 C 
HETATM   26  C6  UNL     1      27.923   2.581  53.800  1.00  0.00     0.039 C 
HETATM   27  C7  UNL     1      29.057   1.536  53.953  1.00  0.00     0.272 C 
HETATM   28  N1  UNL     1      28.387   0.347  54.452  1.00  0.00     0.084 N 
HETATM   29  C8  UNL     1      28.666  -0.730  53.528  1.00  0.00     0.309 C 
HETATM   30  C9  UNL     1      26.945   0.658  54.500  1.00  0.00     0.279 C 
ENDBRANCH   2  25
TORSDOF 5
ENDMDL
MODEL 9
REMARK VINA RESULT:      -6.8      3.484      6.661
REMARK  5 active torsions:
REMARK  status: ('A' for Active; 'I' for Inactive)
REMARK    1  A    between atoms: C2_2  and  O1_3 
REMARK    2  A    between atoms: O1_3  and  C3_4 
REMARK    3  A    between atoms: C4_5  and  C5_6 
REMARK    4  A    between atoms: C13_16  and  N2_17 
REMARK    5  A    between atoms: N2_17  and  C14_18 
ROOT
HETATM    1  C3  UNL     1      22.905   5.243  49.406  1.00  0.00     0.202 C 
HETATM    2  C4  UNL     1      22.666   5.001  50.826  1.00  0.00     0.167 C 
HETATM    3  O2  UNL     1      21.781   5.989  51.464  1.00  0.00    -0.353 OA
HETATM    4  C10 UNL     1      21.460   7.203  50.764  1.00  0.00     0.160 C 
HETATM    5  C11 UNL     1      22.338   7.711  49.861  1.00  0.00     0.036 C 
HETATM    6  C12 UNL     1      23.856   7.467  50.008  1.00  0.00     0.117 C 
HETATM    7  C13 UNL     1      23.902   6.303  48.985  1.00  0.00     0.160 C 
HETATM    8  N3  UNL     1      23.594   6.955  47.737  1.00  0.00    -0.249 NA
HETATM    9  C20 UNL     1      22.701   7.912  47.546  1.00  0.00     0.204 C 
HETATM   10  N4  UNL     1      21.903   8.444  48.668  1.00  0.00    -0.353 N 
HETATM   11  H26 UNL     1      21.167   9.080  48.991  1.00  0.00     0.166 HD
ENDROOT
BRANCH   7  12
HETATM   12  N2  UNL     1      25.253   5.881  48.964  1.00  0.00    -0.357 N 
HETATM   13  H21 UNL     1      25.264   4.970  49.519  1.00  0.00     0.162 HD
BRANCH  12  14
HETATM   14  C14 UNL     1      26.595   6.143  48.533  1.00  0.00     0.069 A 
HETATM   15  C15 UNL     1      27.050   7.376  48.070  1.00  0.00     0.034 A 
HETATM   16  C16 UNL     1      28.355   7.469  47.720  1.00  0.00     0.021 A 
HETATM   17  C17 UNL     1      29.216   6.419  47.804  1.00  0.00     0.014 A 
HETATM   18 BR1  UNL     1      31.000   6.796  47.255  1.00  0.00    -0.051 Br
HETATM   19  C18 UNL     1      28.792   5.187  48.259  1.00  0.00     0.063 A 
HETATM   20  C19 UNL     1      27.464   5.091  48.616  1.00  0.00     0.144 A 
HETATM   21  F1  UNL     1      27.240   3.818  49.051  1.00  0.00    -0.204 F 
ENDBRANCH  12  14
ENDBRANCH   7  12
BRANCH   1  22
HETATM   22  O1  UNL     1      23.358   4.100  48.768  1.00  0.00    -0.379 OA
BRANCH  22  23
HETATM   23  C2  UNL     1      22.483   3.608  47.802  1.00  0.00     0.164 C 
HETATM   24  C1  UNL     1      22.354   2.123  48.008  1.00  0.00     0.033 C 
ENDBRANCH  22  23
ENDBRANCH   1  22
BRANCH   2  25
HETATM   25  C5  UNL     1      22.183   3.733  51.325  1.00  0.00     0.048 C 
HETATM   26  C6  UNL     1      23.012   2.817  52.136  1.00  0.00     0.039 C 
HETATM   27  C7  UNL     1      22.000   1.645  52.193  1.00  0.00     0.272 C 
HETATM   28  N1  UNL     1      20.702   2.293  52.283  1.00  0.00     0.084 N 
HETATM   29  C8  UNL     1      19.902   1.822  51.176  1.00  0.00     0.309 C 
HETATM   30  C9  UNL     1      20.943   3.747  52.197  1.00  0.00     0.279 C 
ENDBRANCH   2  25
TORSDOF 5
ENDMDL
