MODEL 1
REMARK VINA RESULT:     -10.1      0.000      0.000
REMARK  3 active torsions:
REMARK  status: ('A' for Active; 'I' for Inactive)
REMARK    1  A    between atoms: C5_5  and  N1_6 
REMARK    2  A    between atoms: C12_15  and  O3_16 
REMARK    3  A    between atoms: O3_16  and  C13_17 
ROOT
HETATM    1  C1  UNL     1      27.458   7.659  47.531  1.00  0.00     0.049 C 
HETATM    2  C2  UNL     1      26.879   6.503  48.246  1.00  0.00    -0.041 A 
HETATM    3  C3  UNL     1      25.545   6.511  48.594  1.00  0.00     0.010 A 
HETATM    4  C4  UNL     1      24.968   5.457  49.266  1.00  0.00     0.032 A 
HETATM    5  C5  UNL     1      25.692   4.334  49.629  1.00  0.00     0.061 A 
HETATM    6  C18 UNL     1      27.045   4.355  49.262  1.00  0.00     0.054 A 
HETATM    7  C19 UNL     1      27.640   5.412  48.583  1.00  0.00     0.052 A 
HETATM    8  C20 UNL     1      29.055   5.362  48.233  1.00  0.00     0.100 C 
HETATM    9  N4  UNL     1      30.161   5.334  47.943  1.00  0.00    -0.191 NA
ENDROOT
BRANCH   5  10
HETATM   10  N1  UNL     1      25.254   3.150  50.342  1.00  0.00    -0.189 N 
HETATM   11  C6  UNL     1      23.802   3.186  50.376  1.00  0.00     0.188 C 
HETATM   12  C7  UNL     1      23.206   2.137  51.165  1.00  0.00     0.034 C 
HETATM   13  C8  UNL     1      23.150   1.109  51.996  1.00  0.00     0.103 C 
HETATM   14  O1  UNL     1      21.894   0.532  52.300  1.00  0.00    -0.346 OA
HETATM   15  C11 UNL     1      24.051   0.312  52.768  1.00  0.00     0.143 C 
HETATM   16  C9  UNL     1      21.591   0.132  53.649  1.00  0.00     0.202 C 
HETATM   17  C10 UNL     1      22.413  -1.128  53.830  1.00  0.00     0.202 C 
HETATM   18  O2  UNL     1      23.757  -0.747  53.569  1.00  0.00    -0.343 OA
HETATM   19  C12 UNL     1      25.313   0.088  53.176  1.00  0.00     0.151 C 
HETATM   20  C16 UNL     1      26.010   1.142  52.597  1.00  0.00    -0.050 C 
HETATM   21  C17 UNL     1      26.588   2.032  52.134  1.00  0.00     0.369 A 
HETATM   22  N2  UNL     1      27.246   3.087  51.598  1.00  0.00    -0.074 NA
HETATM   23  N3  UNL     1      26.507   2.628  50.561  1.00  0.00     0.122 N 
HETATM   24  H20 UNL     1      27.603   3.095  52.567  1.00  0.00     0.160 HD
HETATM   25  H21 UNL     1      26.978   2.241  49.742  1.00  0.00     0.337 HD
BRANCH  19  26
HETATM   26  O3  UNL     1      26.535  -0.221  53.635  1.00  0.00    -0.336 OA
BRANCH  26  27
HETATM   27  C13 UNL     1      27.510  -0.891  52.816  1.00  0.00     0.121 C 
HETATM   28  C14 UNL     1      28.819  -0.973  53.569  1.00  0.00     0.040 C 
HETATM   29  C15 UNL     1      27.072  -2.302  52.555  1.00  0.00     0.040 C 
ENDBRANCH  26  27
ENDBRANCH  19  26
ENDBRANCH   5  10
TORSDOF 3
ENDMDL
MODEL 2
REMARK VINA RESULT:     -10.0      1.255      2.027
REMARK  3 active torsions:
REMARK  status: ('A' for Active; 'I' for Inactive)
REMARK    1  A    between atoms: C5_5  and  N1_6 
REMARK    2  A    between atoms: C12_15  and  O3_16 
REMARK    3  A    between atoms: O3_16  and  C13_17 
ROOT
HETATM    1  C1  UNL     1      26.746   7.850  47.941  1.00  0.00     0.049 C 
HETATM    2  C2  UNL     1      26.427   6.596  48.655  1.00  0.00    -0.041 A 
HETATM    3  C3  UNL     1      27.243   5.495  48.502  1.00  0.00     0.010 A 
HETATM    4  C4  UNL     1      26.978   4.307  49.143  1.00  0.00     0.032 A 
HETATM    5  C5  UNL     1      25.881   4.149  49.973  1.00  0.00     0.061 A 
HETATM    6  C18 UNL     1      25.070   5.284  50.108  1.00  0.00     0.054 A 
HETATM    7  C19 UNL     1      25.326   6.491  49.467  1.00  0.00     0.052 A 
HETATM    8  C20 UNL     1      24.437   7.631  49.657  1.00  0.00     0.100 C 
HETATM    9  N4  UNL     1      23.755   8.538  49.802  1.00  0.00    -0.191 NA
ENDROOT
BRANCH   5  10
HETATM   10  N1  UNL     1      25.447   2.978  50.710  1.00  0.00    -0.189 N 
HETATM   11  C6  UNL     1      24.003   3.064  50.835  1.00  0.00     0.188 C 
HETATM   12  C7  UNL     1      23.420   2.033  51.657  1.00  0.00     0.034 C 
HETATM   13  C8  UNL     1      23.380   1.006  52.489  1.00  0.00     0.103 C 
HETATM   14  O1  UNL     1      22.126   0.471  52.870  1.00  0.00    -0.346 OA
HETATM   15  C11 UNL     1      24.299   0.174  53.203  1.00  0.00     0.143 C 
HETATM   16  C9  UNL     1      21.894   0.077  54.234  1.00  0.00     0.202 C 
HETATM   17  C10 UNL     1      22.681  -1.212  54.362  1.00  0.00     0.202 C 
HETATM   18  O2  UNL     1      24.018  -0.876  54.019  1.00  0.00    -0.343 OA
HETATM   19  C12 UNL     1      25.575  -0.094  53.531  1.00  0.00     0.151 C 
HETATM   20  C16 UNL     1      26.271   0.937  52.911  1.00  0.00    -0.050 C 
HETATM   21  C17 UNL     1      26.850   1.808  52.414  1.00  0.00     0.369 A 
HETATM   22  N2  UNL     1      27.510   2.841  51.839  1.00  0.00    -0.074 NA
HETATM   23  N3  UNL     1      26.692   2.412  50.849  1.00  0.00     0.122 N 
HETATM   24  H20 UNL     1      27.926   2.833  52.784  1.00  0.00     0.160 HD
HETATM   25  H21 UNL     1      27.098   2.011  50.002  1.00  0.00     0.337 HD
BRANCH  19  26
HETATM   26  O3  UNL     1      26.812  -0.447  53.913  1.00  0.00    -0.336 OA
BRANCH  26  27
HETATM   27  C13 UNL     1      27.756  -1.028  52.995  1.00  0.00     0.121 C 
HETATM   28  C14 UNL     1      29.102  -1.145  53.675  1.00  0.00     0.040 C 
HETATM   29  C15 UNL     1      27.329  -2.421  52.639  1.00  0.00     0.040 C 
ENDBRANCH  26  27
ENDBRANCH  19  26
ENDBRANCH   5  10
TORSDOF 3
ENDMDL
MODEL 3
REMARK VINA RESULT:     -10.0      3.780      6.516
REMARK  3 active torsions:
REMARK  status: ('A' for Active; 'I' for Inactive)
REMARK    1  A    between atoms: C5_5  and  N1_6 
REMARK    2  A    between atoms: C12_15  and  O3_16 
REMARK    3  A    between atoms: O3_16  and  C13_17 
ROOT
HETATM    1  C1  UNL     1      29.934  -1.214  53.857  1.00  0.00     0.049 C 
HETATM    2  C2  UNL     1      28.598  -0.743  53.437  1.00  0.00    -0.041 A 
HETATM    3  C3  UNL     1      27.749  -1.599  52.768  1.00  0.00     0.010 A 
HETATM    4  C4  UNL     1      26.499  -1.199  52.355  1.00  0.00     0.032 A 
HETATM    5  C5  UNL     1      26.026   0.082  52.585  1.00  0.00     0.061 A 
HETATM    6  C18 UNL     1      26.911   0.929  53.266  1.00  0.00     0.054 A 
HETATM    7  C19 UNL     1      28.175   0.538  53.690  1.00  0.00     0.052 A 
HETATM    8  C20 UNL     1      29.041   1.476  54.395  1.00  0.00     0.100 C 
HETATM    9  N4  UNL     1      29.729   2.196  54.957  1.00  0.00    -0.191 NA
ENDROOT
BRANCH   5  10
HETATM   10  N1  UNL     1      24.754   0.672  52.213  1.00  0.00    -0.189 N 
HETATM   11  C6  UNL     1      25.041   1.975  51.637  1.00  0.00     0.188 C 
HETATM   12  C7  UNL     1      23.868   2.754  51.328  1.00  0.00     0.034 C 
HETATM   13  C8  UNL     1      22.586   3.075  51.292  1.00  0.00     0.103 C 
HETATM   14  O1  UNL     1      22.188   4.265  50.635  1.00  0.00    -0.346 OA
HETATM   15  C11 UNL     1      21.340   2.549  51.756  1.00  0.00     0.143 C 
HETATM   16  C9  UNL     1      21.176   5.107  51.216  1.00  0.00     0.202 C 
HETATM   17  C10 UNL     1      19.897   4.333  50.968  1.00  0.00     0.202 C 
HETATM   18  O2  UNL     1      20.094   3.065  51.579  1.00  0.00    -0.343 OA
HETATM   19  C12 UNL     1      20.692   1.596  52.450  1.00  0.00     0.151 C 
HETATM   20  C16 UNL     1      21.734   0.825  52.951  1.00  0.00    -0.050 C 
HETATM   21  C17 UNL     1      22.602   0.194  53.388  1.00  0.00     0.369 A 
HETATM   22  N2  UNL     1      23.628  -0.523  53.902  1.00  0.00    -0.074 NA
HETATM   23  N3  UNL     1      23.971  -0.390  52.599  1.00  0.00     0.122 N 
HETATM   24  H20 UNL     1      23.031  -0.395  54.735  1.00  0.00     0.160 HD
HETATM   25  H21 UNL     1      24.020  -1.220  52.007  1.00  0.00     0.337 HD
BRANCH  19  26
HETATM   26  O3  UNL     1      19.955   0.694  53.115  1.00  0.00    -0.336 OA
BRANCH  26  27
HETATM   27  C13 UNL     1      19.228  -0.346  52.434  1.00  0.00     0.121 C 
HETATM   28  C14 UNL     1      18.587  -1.255  53.459  1.00  0.00     0.040 C 
HETATM   29  C15 UNL     1      18.112   0.255  51.632  1.00  0.00     0.040 C 
ENDBRANCH  26  27
ENDBRANCH  19  26
ENDBRANCH   5  10
TORSDOF 3
ENDMDL
MODEL 4
REMARK VINA RESULT:      -9.8      3.471      6.483
REMARK  3 active torsions:
REMARK  status: ('A' for Active; 'I' for Inactive)
REMARK    1  A    between atoms: C5_5  and  N1_6 
REMARK    2  A    between atoms: C12_15  and  O3_16 
REMARK    3  A    between atoms: O3_16  and  C13_17 
ROOT
HETATM    1  C1  UNL     1      29.671  -0.891  53.591  1.00  0.00     0.049 C 
HETATM    2  C2  UNL     1      28.318  -0.312  53.452  1.00  0.00    -0.041 A 
HETATM    3  C3  UNL     1      27.325  -1.036  52.826  1.00  0.00     0.010 A 
HETATM    4  C4  UNL     1      26.055  -0.531  52.670  1.00  0.00     0.032 A 
HETATM    5  C5  UNL     1      25.703   0.727  53.129  1.00  0.00     0.061 A 
HETATM    6  C18 UNL     1      26.734   1.439  53.759  1.00  0.00     0.054 A 
HETATM    7  C19 UNL     1      28.021   0.941  53.924  1.00  0.00     0.052 A 
HETATM    8  C20 UNL     1      29.042   1.740  54.593  1.00  0.00     0.100 C 
HETATM    9  N4  UNL     1      29.851   2.350  55.123  1.00  0.00    -0.191 NA
ENDROOT
BRANCH   5  10
HETATM   10  N1  UNL     1      24.430   1.415  53.040  1.00  0.00    -0.189 N 
HETATM   11  C6  UNL     1      23.397   0.394  52.986  1.00  0.00     0.188 C 
HETATM   12  C7  UNL     1      22.069   0.911  52.767  1.00  0.00     0.034 C 
HETATM   13  C8  UNL     1      21.130   1.804  52.503  1.00  0.00     0.103 C 
HETATM   14  O1  UNL     1      19.773   1.400  52.493  1.00  0.00    -0.346 OA
HETATM   15  C11 UNL     1      21.039   3.197  52.191  1.00  0.00     0.143 C 
HETATM   16  C9  UNL     1      18.880   1.895  51.479  1.00  0.00     0.202 C 
HETATM   17  C10 UNL     1      18.634   3.329  51.905  1.00  0.00     0.202 C 
HETATM   18  O2  UNL     1      19.919   3.934  51.967  1.00  0.00    -0.343 OA
HETATM   19  C12 UNL     1      21.679   4.353  51.939  1.00  0.00     0.151 C 
HETATM   20  C16 UNL     1      23.015   3.973  51.970  1.00  0.00    -0.050 C 
HETATM   21  C17 UNL     1      24.128   3.654  51.974  1.00  0.00     0.369 A 
HETATM   22  N2  UNL     1      25.424   3.261  51.966  1.00  0.00    -0.074 NA
HETATM   23  N3  UNL     1      24.937   2.691  53.094  1.00  0.00     0.122 N 
HETATM   24  H20 UNL     1      25.377   3.828  51.105  1.00  0.00     0.160 HD
HETATM   25  H21 UNL     1      25.297   2.991  54.002  1.00  0.00     0.337 HD
BRANCH  19  26
HETATM   26  O3  UNL     1      22.220   5.552  51.680  1.00  0.00    -0.336 OA
BRANCH  26  27
HETATM   27  C13 UNL     1      21.624   6.473  50.748  1.00  0.00     0.121 C 
HETATM   28  C14 UNL     1      22.581   7.617  50.499  1.00  0.00     0.040 C 
HETATM   29  C15 UNL     1      21.410   5.793  49.428  1.00  0.00     0.040 C 
ENDBRANCH  26  27
ENDBRANCH  19  26
ENDBRANCH   5  10
TORSDOF 3
ENDMDL
MODEL 5
REMARK VINA RESULT:      -9.6      3.462      7.639
REMARK  3 active torsions:
REMARK  status: ('A' for Active; 'I' for Inactive)
REMARK    1  A    between atoms: C5_5  and  N1_6 
REMARK    2  A    between atoms: C12_15  and  O3_16 
REMARK    3  A    between atoms: O3_16  and  C13_17 
ROOT
HETATM    1  C1  UNL     1      23.528  -0.908  53.646  1.00  0.00     0.049 C 
HETATM    2  C2  UNL     1      23.918   0.371  53.016  1.00  0.00    -0.041 A 
HETATM    3  C3  UNL     1      23.069   0.976  52.113  1.00  0.00     0.010 A 
HETATM    4  C4  UNL     1      23.397   2.163  51.500  1.00  0.00     0.032 A 
HETATM    5  C5  UNL     1      24.593   2.814  51.751  1.00  0.00     0.061 A 
HETATM    6  C18 UNL     1      25.434   2.175  52.673  1.00  0.00     0.054 A 
HETATM    7  C19 UNL     1      25.116   0.976  53.300  1.00  0.00     0.052 A 
HETATM    8  C20 UNL     1      26.043   0.371  54.250  1.00  0.00     0.100 C 
HETATM    9  N4  UNL     1      26.754  -0.112  55.004  1.00  0.00    -0.191 NA
ENDROOT
BRANCH   5  10
HETATM   10  N1  UNL     1      25.101   4.051  51.192  1.00  0.00    -0.189 N 
HETATM   11  C6  UNL     1      24.068   5.057  51.375  1.00  0.00     0.188 C 
HETATM   12  C7  UNL     1      24.365   6.325  50.756  1.00  0.00     0.034 C 
HETATM   13  C8  UNL     1      25.018   7.202  50.012  1.00  0.00     0.103 C 
HETATM   14  O1  UNL     1      24.546   8.535  49.939  1.00  0.00    -0.346 OA
HETATM   15  C11 UNL     1      26.170   7.236  49.167  1.00  0.00     0.143 C 
HETATM   16  C9  UNL     1      24.546   9.233  48.681  1.00  0.00     0.202 C 
HETATM   17  C10 UNL     1      26.011   9.552  48.461  1.00  0.00     0.202 C 
HETATM   18  O2  UNL     1      26.682   8.299  48.491  1.00  0.00    -0.343 OA
HETATM   19  C12 UNL     1      27.181   6.563  48.589  1.00  0.00     0.151 C 
HETATM   20  C16 UNL     1      26.938   5.253  48.985  1.00  0.00    -0.050 C 
HETATM   21  C17 UNL     1      26.725   4.159  49.297  1.00  0.00     0.369 A 
HETATM   22  N2  UNL     1      26.452   2.882  49.657  1.00  0.00    -0.074 NA
HETATM   23  N3  UNL     1      26.331   3.562  50.822  1.00  0.00     0.122 N 
HETATM   24  H20 UNL     1      26.637   2.774  48.647  1.00  0.00     0.160 HD
HETATM   25  H21 UNL     1      26.983   3.370  51.584  1.00  0.00     0.337 HD
BRANCH  19  26
HETATM   26  O3  UNL     1      28.222   5.984  47.972  1.00  0.00    -0.336 OA
BRANCH  26  27
HETATM   27  C13 UNL     1      29.574   6.430  48.179  1.00  0.00     0.121 C 
HETATM   28  C14 UNL     1      30.525   5.297  47.862  1.00  0.00     0.040 C 
HETATM   29  C15 UNL     1      29.895   7.543  47.226  1.00  0.00     0.040 C 
ENDBRANCH  26  27
ENDBRANCH  19  26
ENDBRANCH   5  10
TORSDOF 3
ENDMDL
MODEL 6
REMARK VINA RESULT:      -9.5      2.160      3.111
REMARK  3 active torsions:
REMARK  status: ('A' for Active; 'I' for Inactive)
REMARK    1  A    between atoms: C5_5  and  N1_6 
REMARK    2  A    between atoms: C12_15  and  O3_16 
REMARK    3  A    between atoms: O3_16  and  C13_17 
ROOT
HETATM    1  C1  UNL     1      28.370   7.307  47.892  1.00  0.00     0.049 C 
HETATM    2  C2  UNL     1      27.441   6.264  48.376  1.00  0.00    -0.041 A 
HETATM    3  C3  UNL     1      27.903   4.983  48.593  1.00  0.00     0.010 A 
HETATM    4  C4  UNL     1      27.071   3.982  49.037  1.00  0.00     0.032 A 
HETATM    5  C5  UNL     1      25.727   4.202  49.290  1.00  0.00     0.061 A 
HETATM    6  C18 UNL     1      25.287   5.513  49.060  1.00  0.00     0.054 A 
HETATM    7  C19 UNL     1      26.117   6.534  48.612  1.00  0.00     0.052 A 
HETATM    8  C20 UNL     1      25.587   7.876  48.397  1.00  0.00     0.100 C 
HETATM    9  N4  UNL     1      25.190   8.935  48.232  1.00  0.00    -0.191 NA
ENDROOT
BRANCH   5  10
HETATM   10  N1  UNL     1      24.713   3.271  49.745  1.00  0.00    -0.189 N 
HETATM   11  C6  UNL     1      23.547   3.465  48.901  1.00  0.00     0.188 C 
HETATM   12  C7  UNL     1      22.394   2.699  49.304  1.00  0.00     0.034 C 
HETATM   13  C8  UNL     1      21.653   1.907  50.061  1.00  0.00     0.103 C 
HETATM   14  O1  UNL     1      20.353   1.552  49.627  1.00  0.00    -0.346 OA
HETATM   15  C11 UNL     1      21.756   1.225  51.314  1.00  0.00     0.143 C 
HETATM   16  C9  UNL     1      19.263   1.515  50.565  1.00  0.00     0.202 C 
HETATM   17  C10 UNL     1      19.534   0.254  51.361  1.00  0.00     0.202 C 
HETATM   18  O2  UNL     1      20.835   0.421  51.908  1.00  0.00    -0.343 OA
HETATM   19  C12 UNL     1      22.480   0.973  52.418  1.00  0.00     0.151 C 
HETATM   20  C16 UNL     1      23.596   1.783  52.241  1.00  0.00    -0.050 C 
HETATM   21  C17 UNL     1      24.515   2.473  52.104  1.00  0.00     0.369 A 
HETATM   22  N2  UNL     1      25.576   3.298  51.937  1.00  0.00    -0.074 NA
HETATM   23  N3  UNL     1      25.470   2.687  50.733  1.00  0.00     0.122 N 
HETATM   24  H20 UNL     1      25.315   3.497  52.916  1.00  0.00     0.160 HD
HETATM   25  H21 UNL     1      26.220   2.071  50.416  1.00  0.00     0.337 HD
BRANCH  19  26
HETATM   26  O3  UNL     1      23.125   0.656  53.551  1.00  0.00    -0.336 OA
BRANCH  26  27
HETATM   27  C13 UNL     1      23.378  -0.710  53.927  1.00  0.00     0.121 C 
HETATM   28  C14 UNL     1      24.713  -0.792  54.633  1.00  0.00     0.040 C 
HETATM   29  C15 UNL     1      22.341  -1.169  54.909  1.00  0.00     0.040 C 
ENDBRANCH  26  27
ENDBRANCH  19  26
ENDBRANCH   5  10
TORSDOF 3
ENDMDL
MODEL 7
REMARK VINA RESULT:      -9.5      3.374      8.158
REMARK  3 active torsions:
REMARK  status: ('A' for Active; 'I' for Inactive)
REMARK    1  A    between atoms: C5_5  and  N1_6 
REMARK    2  A    between atoms: C12_15  and  O3_16 
REMARK    3  A    between atoms: O3_16  and  C13_17 
ROOT
HETATM    1  C1  UNL     1      22.855  -1.008  54.274  1.00  0.00     0.049 C 
HETATM    2  C2  UNL     1      23.328   0.050  53.358  1.00  0.00    -0.041 A 
HETATM    3  C3  UNL     1      22.451   0.622  52.462  1.00  0.00     0.010 A 
HETATM    4  C4  UNL     1      22.852   1.606  51.587  1.00  0.00     0.032 A 
HETATM    5  C5  UNL     1      24.154   2.075  51.558  1.00  0.00     0.061 A 
HETATM    6  C18 UNL     1      25.023   1.474  52.480  1.00  0.00     0.054 A 
HETATM    7  C19 UNL     1      24.631   0.481  53.369  1.00  0.00     0.052 A 
HETATM    8  C20 UNL     1      25.592  -0.097  54.302  1.00  0.00     0.100 C 
HETATM    9  N4  UNL     1      26.331  -0.553  55.046  1.00  0.00    -0.191 NA
ENDROOT
BRANCH   5  10
HETATM   10  N1  UNL     1      24.747   3.086  50.704  1.00  0.00    -0.189 N 
HETATM   11  C6  UNL     1      26.055   2.594  50.307  1.00  0.00     0.188 C 
HETATM   12  C7  UNL     1      26.837   3.542  49.553  1.00  0.00     0.034 C 
HETATM   13  C8  UNL     1      27.159   4.699  48.999  1.00  0.00     0.103 C 
HETATM   14  O1  UNL     1      28.355   4.799  48.247  1.00  0.00    -0.346 OA
HETATM   15  C11 UNL     1      26.628   6.024  48.910  1.00  0.00     0.143 C 
HETATM   16  C9  UNL     1      29.191   5.963  48.372  1.00  0.00     0.202 C 
HETATM   17  C10 UNL     1      28.419   7.026  47.616  1.00  0.00     0.202 C 
HETATM   18  O2  UNL     1      27.146   7.091  48.245  1.00  0.00    -0.343 OA
HETATM   19  C12 UNL     1      25.670   6.895  49.272  1.00  0.00     0.151 C 
HETATM   20  C16 UNL     1      24.894   6.145  50.148  1.00  0.00    -0.050 C 
HETATM   21  C17 UNL     1      24.259   5.529  50.895  1.00  0.00     0.369 A 
HETATM   22  N2  UNL     1      23.537   4.799  51.778  1.00  0.00    -0.074 NA
HETATM   23  N3  UNL     1      23.683   3.955  50.729  1.00  0.00     0.122 N 
HETATM   24  H20 UNL     1      23.658   5.684  52.295  1.00  0.00     0.160 HD
HETATM   25  H21 UNL     1      22.858   3.665  50.201  1.00  0.00     0.337 HD
BRANCH  19  26
HETATM   26  O3  UNL     1      24.761   7.836  49.570  1.00  0.00    -0.336 OA
BRANCH  26  27
HETATM   27  C13 UNL     1      23.966   8.476  48.555  1.00  0.00     0.121 C 
HETATM   28  C14 UNL     1      22.616   8.835  49.135  1.00  0.00     0.040 C 
HETATM   29  C15 UNL     1      24.613   9.763  48.138  1.00  0.00     0.040 C 
ENDBRANCH  26  27
ENDBRANCH  19  26
ENDBRANCH   5  10
TORSDOF 3
ENDMDL
MODEL 8
REMARK VINA RESULT:      -9.4      2.752      6.729
REMARK  3 active torsions:
REMARK  status: ('A' for Active; 'I' for Inactive)
REMARK    1  A    between atoms: C5_5  and  N1_6 
REMARK    2  A    between atoms: C12_15  and  O3_16 
REMARK    3  A    between atoms: O3_16  and  C13_17 
ROOT
HETATM    1  C1  UNL     1      29.466  -0.849  53.953  1.00  0.00     0.049 C 
HETATM    2  C2  UNL     1      28.409  -0.001  53.364  1.00  0.00    -0.041 A 
HETATM    3  C3  UNL     1      27.477  -0.559  52.515  1.00  0.00     0.010 A 
HETATM    4  C4  UNL     1      26.481   0.197  51.941  1.00  0.00     0.032 A 
HETATM    5  C5  UNL     1      26.359   1.555  52.181  1.00  0.00     0.061 A 
HETATM    6  C18 UNL     1      27.321   2.094  53.047  1.00  0.00     0.054 A 
HETATM    7  C19 UNL     1      28.332   1.342  53.635  1.00  0.00     0.052 A 
HETATM    8  C20 UNL     1      29.297   1.973  54.528  1.00  0.00     0.100 C 
HETATM    9  N4  UNL     1      30.056   2.449  55.238  1.00  0.00    -0.191 NA
ENDROOT
BRANCH   5  10
HETATM   10  N1  UNL     1      25.389   2.497  51.657  1.00  0.00    -0.189 N 
HETATM   11  C6  UNL     1      24.074   2.005  52.028  1.00  0.00     0.188 C 
HETATM   12  C7  UNL     1      22.982   2.764  51.472  1.00  0.00     0.034 C 
HETATM   13  C8  UNL     1      22.377   3.671  50.724  1.00  0.00     0.103 C 
HETATM   14  O1  UNL     1      20.969   3.806  50.800  1.00  0.00    -0.346 OA
HETATM   15  C11 UNL     1      22.728   4.665  49.757  1.00  0.00     0.143 C 
HETATM   16  C9  UNL     1      20.197   4.009  49.604  1.00  0.00     0.202 C 
HETATM   17  C10 UNL     1      20.492   5.451  49.242  1.00  0.00     0.202 C 
HETATM   18  O2  UNL     1      21.904   5.528  49.106  1.00  0.00    -0.343 OA
HETATM   19  C12 UNL     1      23.690   5.250  49.022  1.00  0.00     0.151 C 
HETATM   20  C16 UNL     1      24.817   4.505  49.349  1.00  0.00    -0.050 C 
HETATM   21  C17 UNL     1      25.752   3.871  49.603  1.00  0.00     0.369 A 
HETATM   22  N2  UNL     1      26.832   3.110  49.899  1.00  0.00    -0.074 NA
HETATM   23  N3  UNL     1      26.299   3.373  51.116  1.00  0.00     0.122 N 
HETATM   24  H20 UNL     1      26.892   3.157  48.869  1.00  0.00     0.160 HD
HETATM   25  H21 UNL     1      26.828   3.937  51.783  1.00  0.00     0.337 HD
BRANCH  19  26
HETATM   26  O3  UNL     1      24.575   5.899  48.250  1.00  0.00    -0.336 OA
BRANCH  26  27
HETATM   27  C13 UNL     1      24.543   7.330  48.093  1.00  0.00     0.121 C 
HETATM   28  C14 UNL     1      25.949   7.835  47.861  1.00  0.00     0.040 C 
HETATM   29  C15 UNL     1      23.746   7.691  46.874  1.00  0.00     0.040 C 
ENDBRANCH  26  27
ENDBRANCH  19  26
ENDBRANCH   5  10
TORSDOF 3
ENDMDL
MODEL 9
REMARK VINA RESULT:      -9.2      3.579      7.821
REMARK  3 active torsions:
REMARK  status: ('A' for Active; 'I' for Inactive)
REMARK    1  A    between atoms: C5_5  and  N1_6 
REMARK    2  A    between atoms: C12_15  and  O3_16 
REMARK    3  A    between atoms: O3_16  and  C13_17 
ROOT
HETATM    1  C1  UNL     1      22.710  -0.739  53.194  1.00  0.00     0.049 C 
HETATM    2  C2  UNL     1      23.333   0.492  52.664  1.00  0.00    -0.041 A 
HETATM    3  C3  UNL     1      24.546   0.915  53.163  1.00  0.00     0.010 A 
HETATM    4  C4  UNL     1      25.157   2.058  52.702  1.00  0.00     0.032 A 
HETATM    5  C5  UNL     1      24.589   2.847  51.716  1.00  0.00     0.061 A 
HETATM    6  C18 UNL     1      23.356   2.392  51.228  1.00  0.00     0.054 A 
HETATM    7  C19 UNL     1      22.728   1.239  51.685  1.00  0.00     0.052 A 
HETATM    8  C20 UNL     1      21.444   0.827  51.128  1.00  0.00     0.100 C 
HETATM    9  N4  UNL     1      20.442   0.485  50.696  1.00  0.00    -0.191 NA
ENDROOT
BRANCH   5  10
HETATM   10  N1  UNL     1      25.081   4.076  51.125  1.00  0.00    -0.189 N 
HETATM   11  C6  UNL     1      24.013   5.056  51.229  1.00  0.00     0.188 C 
HETATM   12  C7  UNL     1      24.295   6.307  50.570  1.00  0.00     0.034 C 
HETATM   13  C8  UNL     1      24.950   7.174  49.816  1.00  0.00     0.103 C 
HETATM   14  O1  UNL     1      24.443   8.488  49.672  1.00  0.00    -0.346 OA
HETATM   15  C11 UNL     1      26.132   7.211  49.013  1.00  0.00     0.143 C 
HETATM   16  C9  UNL     1      24.469   9.135  48.387  1.00  0.00     0.202 C 
HETATM   17  C10 UNL     1      25.932   9.490  48.208  1.00  0.00     0.202 C 
HETATM   18  O2  UNL     1      26.638   8.261  48.313  1.00  0.00    -0.343 OA
HETATM   19  C12 UNL     1      27.183   6.546  48.500  1.00  0.00     0.151 C 
HETATM   20  C16 UNL     1      26.965   5.247  48.940  1.00  0.00    -0.050 C 
HETATM   21  C17 UNL     1      26.772   4.159  49.288  1.00  0.00     0.369 A 
HETATM   22  N2  UNL     1      26.524   2.890  49.689  1.00  0.00    -0.074 NA
HETATM   23  N3  UNL     1      26.338   3.611  50.820  1.00  0.00     0.122 N 
HETATM   24  H20 UNL     1      26.749   2.748  48.692  1.00  0.00     0.160 HD
HETATM   25  H21 UNL     1      26.966   3.470  51.613  1.00  0.00     0.337 HD
BRANCH  19  26
HETATM   26  O3  UNL     1      28.263   5.976  47.945  1.00  0.00    -0.336 OA
BRANCH  26  27
HETATM   27  C13 UNL     1      29.574   6.563  48.051  1.00  0.00     0.121 C 
HETATM   28  C14 UNL     1      30.617   5.483  47.870  1.00  0.00     0.040 C 
HETATM   29  C15 UNL     1      29.779   7.553  46.944  1.00  0.00     0.040 C 
ENDBRANCH  26  27
ENDBRANCH  19  26
ENDBRANCH   5  10
TORSDOF 3
ENDMDL
