MODEL 1
REMARK VINA RESULT:      -9.2      0.000      0.000
REMARK  3 active torsions:
REMARK  status: ('A' for Active; 'I' for Inactive)
REMARK    1  A    between atoms: C5_7  and  C6_8 
REMARK    2  A    between atoms: C7_9  and  C8_10 
REMARK    3  A    between atoms: N2_14  and  C12_15 
ROOT
HETATM    1  C8  UNL     1      24.009   1.684  51.484  1.00  0.00     0.040 A 
HETATM    2  C9  UNL     1      24.225   2.479  50.381  1.00  0.00     0.039 A 
HETATM    3  C10 UNL     1      23.034   2.435  49.682  1.00  0.00    -0.033 A 
HETATM    4  C11 UNL     1      22.167   1.638  50.367  1.00  0.00     0.024 A 
HETATM    5  N2  UNL     1      22.765   1.172  51.481  1.00  0.00    -0.315 N 
HETATM    6  C18 UNL     1      20.796   1.358  49.917  1.00  0.00     0.058 C 
HETATM    7  C19 UNL     1      20.407   2.107  48.686  1.00  0.00     0.006 C 
HETATM    8  C20 UNL     1      21.130   3.436  48.623  1.00  0.00     0.005 C 
HETATM    9  C21 UNL     1      22.603   3.083  48.393  1.00  0.00     0.040 C 
ENDROOT
BRANCH   1  10
HETATM   10  C7  UNL     1      25.035   1.459  52.497  1.00  0.00     0.027 C 
HETATM   11  C6  UNL     1      26.087   0.709  52.210  1.00  0.00    -0.007 C 
BRANCH  11  12
HETATM   12  C5  UNL     1      27.155   0.452  53.203  1.00  0.00     0.124 C 
HETATM   13  C1  UNL     1      28.259   1.452  53.061  1.00  0.00     0.233 C 
HETATM   14  O1  UNL     1      28.112   2.530  52.424  1.00  0.00    -0.272 OA
HETATM   15  N1  UNL     1      29.519   1.149  53.680  1.00  0.00    -0.336 N 
HETATM   16  C2  UNL     1      29.771  -0.242  53.890  1.00  0.00     0.103 C 
HETATM   17  H1  UNL     1      30.174   1.890  53.944  1.00  0.00     0.168 HD
HETATM   18  C3  UNL     1      28.954  -1.160  53.455  1.00  0.00    -0.012 C 
HETATM   19  C4  UNL     1      27.778  -0.889  52.976  1.00  0.00     0.005 C 
ENDBRANCH  11  12
ENDBRANCH   1  10
BRANCH   5  20
HETATM   20  C12 UNL     1      22.291   0.303  52.530  1.00  0.00     0.039 A 
HETATM   21  C13 UNL     1      21.392   0.980  53.362  1.00  0.00     0.030 A 
HETATM   22  C14 UNL     1      20.810   0.335  54.438  1.00  0.00     0.002 A 
HETATM   23  C15 UNL     1      21.138  -0.999  54.673  1.00  0.00     0.000 A 
HETATM   24  C16 UNL     1      22.024  -1.644  53.840  1.00  0.00     0.002 A 
HETATM   25  C17 UNL     1      22.613  -1.015  52.764  1.00  0.00     0.030 A 
ENDBRANCH   5  20
TORSDOF 3
ENDMDL
MODEL 2
REMARK VINA RESULT:      -9.2      2.688      7.139
REMARK  3 active torsions:
REMARK  status: ('A' for Active; 'I' for Inactive)
REMARK    1  A    between atoms: C5_7  and  C6_8 
REMARK    2  A    between atoms: C7_9  and  C8_10 
REMARK    3  A    between atoms: N2_14  and  C12_15 
ROOT
HETATM    1  C8  UNL     1      24.497   0.381  52.984  1.00  0.00     0.040 A 
HETATM    2  C9  UNL     1      25.302  -0.650  53.419  1.00  0.00     0.039 A 
HETATM    3  C10 UNL     1      26.576  -0.117  53.426  1.00  0.00    -0.033 A 
HETATM    4  C11 UNL     1      26.500   1.178  53.006  1.00  0.00     0.024 A 
HETATM    5  N2  UNL     1      25.217   1.488  52.734  1.00  0.00    -0.315 N 
HETATM    6  C18 UNL     1      27.668   2.061  52.887  1.00  0.00     0.058 C 
HETATM    7  C19 UNL     1      28.939   1.437  53.359  1.00  0.00     0.006 C 
HETATM    8  C20 UNL     1      28.662   0.443  54.467  1.00  0.00     0.005 C 
HETATM    9  C21 UNL     1      27.909  -0.710  53.795  1.00  0.00     0.040 C 
ENDROOT
BRANCH   1  10
HETATM   10  C7  UNL     1      23.054   0.233  52.834  1.00  0.00     0.027 C 
HETATM   11  C6  UNL     1      22.263   0.402  53.882  1.00  0.00    -0.007 C 
BRANCH  11  12
HETATM   12  C5  UNL     1      20.793   0.263  53.779  1.00  0.00     0.124 C 
HETATM   13  C1  UNL     1      20.368  -1.124  54.149  1.00  0.00     0.233 C 
HETATM   14  O1  UNL     1      21.125  -1.915  54.774  1.00  0.00    -0.272 OA
HETATM   15  N1  UNL     1      19.049  -1.542  53.768  1.00  0.00    -0.336 N 
HETATM   16  C2  UNL     1      18.492  -0.845  52.650  1.00  0.00     0.103 C 
HETATM   17  H1  UNL     1      18.560  -2.287  54.272  1.00  0.00     0.168 HD
HETATM   18  C3  UNL     1      19.182   0.032  51.977  1.00  0.00    -0.012 C 
HETATM   19  C4  UNL     1      20.337   0.475  52.370  1.00  0.00     0.005 C 
ENDBRANCH  11  12
ENDBRANCH   1  10
BRANCH   5  20
HETATM   20  C12 UNL     1      24.608   2.709  52.265  1.00  0.00     0.039 A 
HETATM   21  C13 UNL     1      24.704   2.805  50.872  1.00  0.00     0.030 A 
HETATM   22  C14 UNL     1      24.182   3.899  50.206  1.00  0.00     0.002 A 
HETATM   23  C15 UNL     1      23.563   4.901  50.952  1.00  0.00     0.000 A 
HETATM   24  C16 UNL     1      23.480   4.784  52.321  1.00  0.00     0.002 A 
HETATM   25  C17 UNL     1      23.995   3.700  52.999  1.00  0.00     0.030 A 
ENDBRANCH   5  20
TORSDOF 3
ENDMDL
MODEL 3
REMARK VINA RESULT:      -9.1      2.314      5.555
REMARK  3 active torsions:
REMARK  status: ('A' for Active; 'I' for Inactive)
REMARK    1  A    between atoms: C5_7  and  C6_8 
REMARK    2  A    between atoms: C7_9  and  C8_10 
REMARK    3  A    between atoms: N2_14  and  C12_15 
ROOT
HETATM    1  C8  UNL     1      23.234   2.103  51.933  1.00  0.00     0.040 A 
HETATM    2  C9  UNL     1      21.875   1.888  51.881  1.00  0.00     0.039 A 
HETATM    3  C10 UNL     1      21.658   0.818  52.727  1.00  0.00    -0.033 A 
HETATM    4  C11 UNL     1      22.859   0.435  53.246  1.00  0.00     0.024 A 
HETATM    5  N2  UNL     1      23.835   1.227  52.758  1.00  0.00    -0.315 N 
HETATM    6  C18 UNL     1      23.015  -0.679  54.191  1.00  0.00     0.058 C 
HETATM    7  C19 UNL     1      21.721  -1.295  54.606  1.00  0.00     0.006 C 
HETATM    8  C20 UNL     1      20.615  -0.262  54.596  1.00  0.00     0.005 C 
HETATM    9  C21 UNL     1      20.403   0.086  53.119  1.00  0.00     0.040 C 
ENDROOT
BRANCH   1  10
HETATM   10  C7  UNL     1      23.886   3.161  51.170  1.00  0.00     0.027 C 
HETATM   11  C6  UNL     1      24.502   2.868  50.035  1.00  0.00    -0.007 C 
BRANCH  11  12
HETATM   12  C5  UNL     1      25.178   3.907  49.225  1.00  0.00     0.124 C 
HETATM   13  C1  UNL     1      26.582   4.115  49.700  1.00  0.00     0.233 C 
HETATM   14  O1  UNL     1      27.171   3.282  50.441  1.00  0.00    -0.272 OA
HETATM   15  N1  UNL     1      27.259   5.309  49.282  1.00  0.00    -0.336 N 
HETATM   16  C2  UNL     1      26.403   6.400  48.932  1.00  0.00     0.103 C 
HETATM   17  H1  UNL     1      28.281   5.357  49.245  1.00  0.00     0.168 HD
HETATM   18  C3  UNL     1      25.110   6.330  49.082  1.00  0.00    -0.012 C 
HETATM   19  C4  UNL     1      24.491   5.227  49.374  1.00  0.00     0.005 C 
ENDBRANCH  11  12
ENDBRANCH   1  10
BRANCH   5  20
HETATM   20  C12 UNL     1      25.259   1.241  52.986  1.00  0.00     0.039 A 
HETATM   21  C13 UNL     1      25.879   0.193  52.297  1.00  0.00     0.030 A 
HETATM   22  C14 UNL     1      27.249   0.016  52.373  1.00  0.00     0.002 A 
HETATM   23  C15 UNL     1      27.993   0.903  53.150  1.00  0.00     0.000 A 
HETATM   24  C16 UNL     1      27.361   1.927  53.818  1.00  0.00     0.002 A 
HETATM   25  C17 UNL     1      25.997   2.116  53.752  1.00  0.00     0.030 A 
ENDBRANCH   5  20
TORSDOF 3
ENDMDL
MODEL 4
REMARK VINA RESULT:      -9.0      1.943      4.224
REMARK  3 active torsions:
REMARK  status: ('A' for Active; 'I' for Inactive)
REMARK    1  A    between atoms: C5_7  and  C6_8 
REMARK    2  A    between atoms: C7_9  and  C8_10 
REMARK    3  A    between atoms: N2_14  and  C12_15 
ROOT
HETATM    1  C8  UNL     1      23.293   1.411  52.883  1.00  0.00     0.040 A 
HETATM    2  C9  UNL     1      22.545   0.415  53.471  1.00  0.00     0.039 A 
HETATM    3  C10 UNL     1      21.261   0.625  53.008  1.00  0.00    -0.033 A 
HETATM    4  C11 UNL     1      21.276   1.710  52.183  1.00  0.00     0.024 A 
HETATM    5  N2  UNL     1      22.531   2.197  52.103  1.00  0.00    -0.315 N 
HETATM    6  C18 UNL     1      20.081   2.229  51.506  1.00  0.00     0.058 C 
HETATM    7  C19 UNL     1      18.860   1.401  51.729  1.00  0.00     0.006 C 
HETATM    8  C20 UNL     1      19.234  -0.053  51.921  1.00  0.00     0.005 C 
HETATM    9  C21 UNL     1      19.970  -0.106  53.265  1.00  0.00     0.040 C 
ENDROOT
BRANCH   1  10
HETATM   10  C7  UNL     1      24.726   1.550  53.114  1.00  0.00     0.027 C 
HETATM   11  C6  UNL     1      25.525   0.511  52.925  1.00  0.00    -0.007 C 
BRANCH  11  12
HETATM   12  C5  UNL     1      26.987   0.602  53.146  1.00  0.00     0.124 C 
HETATM   13  C1  UNL     1      27.335   0.188  54.541  1.00  0.00     0.233 C 
HETATM   14  O1  UNL     1      26.534  -0.458  55.271  1.00  0.00    -0.272 OA
HETATM   15  N1  UNL     1      28.631   0.549  55.041  1.00  0.00    -0.336 N 
HETATM   16  C2  UNL     1      29.229   1.684  54.410  1.00  0.00     0.103 C 
HETATM   17  H1  UNL     1      29.078   0.019  55.795  1.00  0.00     0.168 HD
HETATM   18  C3  UNL     1      28.590   2.388  53.519  1.00  0.00    -0.012 C 
HETATM   19  C4  UNL     1      27.458   2.014  53.003  1.00  0.00     0.005 C 
ENDBRANCH  11  12
ENDBRANCH   1  10
BRANCH   5  20
HETATM   20  C12 UNL     1      23.076   3.317  51.376  1.00  0.00     0.039 A 
HETATM   21  C13 UNL     1      23.481   2.923  50.096  1.00  0.00     0.030 A 
HETATM   22  C14 UNL     1      24.035   3.841  49.222  1.00  0.00     0.002 A 
HETATM   23  C15 UNL     1      24.182   5.161  49.645  1.00  0.00     0.000 A 
HETATM   24  C16 UNL     1      23.776   5.524  50.909  1.00  0.00     0.002 A 
HETATM   25  C17 UNL     1      23.222   4.622  51.792  1.00  0.00     0.030 A 
ENDBRANCH   5  20
TORSDOF 3
ENDMDL
MODEL 5
REMARK VINA RESULT:      -8.7      2.064      3.023
REMARK  3 active torsions:
REMARK  status: ('A' for Active; 'I' for Inactive)
REMARK    1  A    between atoms: C5_7  and  C6_8 
REMARK    2  A    between atoms: C7_9  and  C8_10 
REMARK    3  A    between atoms: N2_14  and  C12_15 
ROOT
HETATM    1  C8  UNL     1      25.725   2.325  50.996  1.00  0.00     0.040 A 
HETATM    2  C9  UNL     1      26.588   3.239  50.432  1.00  0.00     0.039 A 
HETATM    3  C10 UNL     1      25.779   4.290  50.049  1.00  0.00    -0.033 A 
HETATM    4  C11 UNL     1      24.493   3.983  50.383  1.00  0.00     0.024 A 
HETATM    5  N2  UNL     1      24.457   2.770  50.969  1.00  0.00    -0.315 N 
HETATM    6  C18 UNL     1      23.354   4.874  50.123  1.00  0.00     0.058 C 
HETATM    7  C19 UNL     1      23.746   6.191  49.543  1.00  0.00     0.006 C 
HETATM    8  C20 UNL     1      25.122   6.596  50.029  1.00  0.00     0.005 C 
HETATM    9  C21 UNL     1      26.088   5.601  49.376  1.00  0.00     0.040 C 
ENDROOT
BRANCH   1  10
HETATM   10  C7  UNL     1      26.185   1.050  51.538  1.00  0.00     0.027 C 
HETATM   11  C6  UNL     1      26.704   1.003  52.755  1.00  0.00    -0.007 C 
BRANCH  11  12
HETATM   12  C5  UNL     1      27.184  -0.266  53.349  1.00  0.00     0.124 C 
HETATM   13  C1  UNL     1      28.674  -0.252  53.487  1.00  0.00     0.233 C 
HETATM   14  O1  UNL     1      29.346   0.814  53.424  1.00  0.00    -0.272 OA
HETATM   15  N1  UNL     1      29.337  -1.507  53.700  1.00  0.00    -0.336 N 
HETATM   16  C2  UNL     1      28.625  -2.655  53.232  1.00  0.00     0.103 C 
HETATM   17  H1  UNL     1      30.253  -1.555  54.156  1.00  0.00     0.168 HD
HETATM   18  C3  UNL     1      27.505  -2.545  52.574  1.00  0.00    -0.012 C 
HETATM   19  C4  UNL     1      26.862  -1.423  52.458  1.00  0.00     0.005 C 
ENDBRANCH  11  12
ENDBRANCH   1  10
BRANCH   5  20
HETATM   20  C12 UNL     1      23.361   1.996  51.499  1.00  0.00     0.039 A 
HETATM   21  C13 UNL     1      22.603   1.441  50.462  1.00  0.00     0.030 A 
HETATM   22  C14 UNL     1      21.499   0.656  50.742  1.00  0.00     0.002 A 
HETATM   23  C15 UNL     1      21.160   0.434  52.076  1.00  0.00     0.000 A 
HETATM   24  C16 UNL     1      21.921   0.990  53.079  1.00  0.00     0.002 A 
HETATM   25  C17 UNL     1      23.024   1.774  52.816  1.00  0.00     0.030 A 
ENDBRANCH   5  20
TORSDOF 3
ENDMDL
MODEL 6
REMARK VINA RESULT:      -8.5      1.722      3.892
REMARK  3 active torsions:
REMARK  status: ('A' for Active; 'I' for Inactive)
REMARK    1  A    between atoms: C5_7  and  C6_8 
REMARK    2  A    between atoms: C7_9  and  C8_10 
REMARK    3  A    between atoms: N2_14  and  C12_15 
ROOT
HETATM    1  C8  UNL     1      24.097   0.558  53.019  1.00  0.00     0.040 A 
HETATM    2  C9  UNL     1      23.158  -0.197  53.687  1.00  0.00     0.039 A 
HETATM    3  C10 UNL     1      21.945   0.351  53.318  1.00  0.00    -0.033 A 
HETATM    4  C11 UNL     1      22.186   1.388  52.467  1.00  0.00     0.024 A 
HETATM    5  N2  UNL     1      23.515   1.518  52.279  1.00  0.00    -0.315 N 
HETATM    6  C18 UNL     1      21.124   2.209  51.869  1.00  0.00     0.058 C 
HETATM    7  C19 UNL     1      19.747   1.743  52.207  1.00  0.00     0.006 C 
HETATM    8  C20 UNL     1      19.730   0.242  52.406  1.00  0.00     0.005 C 
HETATM    9  C21 UNL     1      20.530  -0.002  53.690  1.00  0.00     0.040 C 
ENDROOT
BRANCH   1  10
HETATM   10  C7  UNL     1      25.529   0.305  53.136  1.00  0.00     0.027 C 
HETATM   11  C6  UNL     1      26.120   0.412  54.316  1.00  0.00    -0.007 C 
BRANCH  11  12
HETATM   12  C5  UNL     1      27.570   0.165  54.486  1.00  0.00     0.124 C 
HETATM   13  C1  UNL     1      28.360   1.375  54.097  1.00  0.00     0.233 C 
HETATM   14  O1  UNL     1      27.832   2.514  53.982  1.00  0.00    -0.272 OA
HETATM   15  N1  UNL     1      29.765   1.206  53.855  1.00  0.00    -0.336 N 
HETATM   16  C2  UNL     1      30.160  -0.116  53.481  1.00  0.00     0.103 C 
HETATM   17  H1  UNL     1      30.419   1.988  53.948  1.00  0.00     0.168 HD
HETATM   18  C3  UNL     1      29.286  -1.062  53.282  1.00  0.00    -0.012 C 
HETATM   19  C4  UNL     1      28.029  -0.937  53.584  1.00  0.00     0.005 C 
ENDBRANCH  11  12
ENDBRANCH   1  10
BRANCH   5  20
HETATM   20  C12 UNL     1      24.282   2.446  51.485  1.00  0.00     0.039 A 
HETATM   21  C13 UNL     1      23.900   3.764  51.759  1.00  0.00     0.030 A 
HETATM   22  C14 UNL     1      24.509   4.821  51.108  1.00  0.00     0.002 A 
HETATM   23  C15 UNL     1      25.507   4.544  50.174  1.00  0.00     0.000 A 
HETATM   24  C16 UNL     1      25.865   3.239  49.921  1.00  0.00     0.002 A 
HETATM   25  C17 UNL     1      25.268   2.175  50.562  1.00  0.00     0.030 A 
ENDBRANCH   5  20
TORSDOF 3
ENDMDL
MODEL 7
REMARK VINA RESULT:      -8.4      2.510      3.856
REMARK  3 active torsions:
REMARK  status: ('A' for Active; 'I' for Inactive)
REMARK    1  A    between atoms: C5_7  and  C6_8 
REMARK    2  A    between atoms: C7_9  and  C8_10 
REMARK    3  A    between atoms: N2_14  and  C12_15 
ROOT
HETATM    1  C8  UNL     1      25.824   3.470  50.051  1.00  0.00     0.040 A 
HETATM    2  C9  UNL     1      26.762   4.375  49.603  1.00  0.00     0.039 A 
HETATM    3  C10 UNL     1      26.027   5.337  48.939  1.00  0.00    -0.033 A 
HETATM    4  C11 UNL     1      24.711   4.990  49.005  1.00  0.00     0.024 A 
HETATM    5  N2  UNL     1      24.582   3.837  49.692  1.00  0.00    -0.315 N 
HETATM    6  C18 UNL     1      23.632   5.786  48.404  1.00  0.00     0.058 C 
HETATM    7  C19 UNL     1      24.102   7.063  47.792  1.00  0.00     0.006 C 
HETATM    8  C20 UNL     1      25.315   7.589  48.530  1.00  0.00     0.005 C 
HETATM    9  C21 UNL     1      26.438   6.594  48.220  1.00  0.00     0.040 C 
ENDROOT
BRANCH   1  10
HETATM   10  C7  UNL     1      26.190   2.281  50.813  1.00  0.00     0.027 C 
HETATM   11  C6  UNL     1      26.448   2.384  52.107  1.00  0.00    -0.007 C 
BRANCH  11  12
HETATM   12  C5  UNL     1      26.823   1.207  52.923  1.00  0.00     0.124 C 
HETATM   13  C1  UNL     1      28.259   1.289  53.339  1.00  0.00     0.233 C 
HETATM   14  O1  UNL     1      28.915   2.365  53.281  1.00  0.00    -0.272 OA
HETATM   15  N1  UNL     1      28.886   0.090  53.817  1.00  0.00    -0.336 N 
HETATM   16  C2  UNL     1      28.293  -1.128  53.358  1.00  0.00     0.103 C 
HETATM   17  H1  UNL     1      29.698   0.125  54.439  1.00  0.00     0.168 HD
HETATM   18  C3  UNL     1      27.319  -1.131  52.492  1.00  0.00    -0.012 C 
HETATM   19  C4  UNL     1      26.694  -0.053  52.127  1.00  0.00     0.005 C 
ENDBRANCH  11  12
ENDBRANCH   1  10
BRANCH   5  20
HETATM   20  C12 UNL     1      23.421   3.056  50.039  1.00  0.00     0.039 A 
HETATM   21  C13 UNL     1      22.963   2.333  48.932  1.00  0.00     0.030 A 
HETATM   22  C14 UNL     1      21.856   1.512  49.038  1.00  0.00     0.002 A 
HETATM   23  C15 UNL     1      21.208   1.422  50.269  1.00  0.00     0.000 A 
HETATM   24  C16 UNL     1      21.677   2.142  51.345  1.00  0.00     0.002 A 
HETATM   25  C17 UNL     1      22.778   2.965  51.255  1.00  0.00     0.030 A 
ENDBRANCH   5  20
TORSDOF 3
ENDMDL
MODEL 8
REMARK VINA RESULT:      -8.4      3.603      6.103
REMARK  3 active torsions:
REMARK  status: ('A' for Active; 'I' for Inactive)
REMARK    1  A    between atoms: C5_7  and  C6_8 
REMARK    2  A    between atoms: C7_9  and  C8_10 
REMARK    3  A    between atoms: N2_14  and  C12_15 
ROOT
HETATM    1  C8  UNL     1      25.692   2.775  51.025  1.00  0.00     0.040 A 
HETATM    2  C9  UNL     1      26.855   2.114  51.357  1.00  0.00     0.039 A 
HETATM    3  C10 UNL     1      26.450   1.096  52.197  1.00  0.00    -0.033 A 
HETATM    4  C11 UNL     1      25.097   1.174  52.341  1.00  0.00     0.024 A 
HETATM    5  N2  UNL     1      24.626   2.210  51.618  1.00  0.00    -0.315 N 
HETATM    6  C18 UNL     1      24.315   0.246  53.169  1.00  0.00     0.058 C 
HETATM    7  C19 UNL     1      25.129  -0.852  53.766  1.00  0.00     0.006 C 
HETATM    8  C20 UNL     1      26.292  -1.202  52.860  1.00  0.00     0.005 C 
HETATM    9  C21 UNL     1      27.220   0.016  52.908  1.00  0.00     0.040 C 
ENDROOT
BRANCH   1  10
HETATM   10  C7  UNL     1      25.678   3.934  50.140  1.00  0.00     0.027 C 
HETATM   11  C6  UNL     1      26.781   4.282  49.496  1.00  0.00    -0.007 C 
BRANCH  11  12
HETATM   12  C5  UNL     1      26.818   5.450  48.587  1.00  0.00     0.124 C 
HETATM   13  C1  UNL     1      28.231   5.838  48.284  1.00  0.00     0.233 C 
HETATM   14  O1  UNL     1      29.203   5.064  48.503  1.00  0.00    -0.272 OA
HETATM   15  N1  UNL     1      28.462   7.140  47.726  1.00  0.00    -0.336 N 
HETATM   16  C2  UNL     1      27.449   8.108  48.010  1.00  0.00     0.103 C 
HETATM   17  H1  UNL     1      29.297   7.341  47.169  1.00  0.00     0.168 HD
HETATM   18  C3  UNL     1      26.447   7.841  48.800  1.00  0.00    -0.012 C 
HETATM   19  C4  UNL     1      26.190   6.644  49.233  1.00  0.00     0.005 C 
ENDBRANCH  11  12
ENDBRANCH   1  10
BRANCH   5  20
HETATM   20  C12 UNL     1      23.288   2.716  51.432  1.00  0.00     0.039 A 
HETATM   21  C13 UNL     1      22.645   2.041  50.389  1.00  0.00     0.030 A 
HETATM   22  C14 UNL     1      21.348   2.365  50.037  1.00  0.00     0.002 A 
HETATM   23  C15 UNL     1      20.698   3.377  50.742  1.00  0.00     0.000 A 
HETATM   24  C16 UNL     1      21.351   4.027  51.765  1.00  0.00     0.002 A 
HETATM   25  C17 UNL     1      22.644   3.716  52.127  1.00  0.00     0.030 A 
ENDBRANCH   5  20
TORSDOF 3
ENDMDL
MODEL 9
REMARK VINA RESULT:      -8.2      3.834      5.495
REMARK  3 active torsions:
REMARK  status: ('A' for Active; 'I' for Inactive)
REMARK    1  A    between atoms: C5_7  and  C6_8 
REMARK    2  A    between atoms: C7_9  and  C8_10 
REMARK    3  A    between atoms: N2_14  and  C12_15 
ROOT
HETATM    1  C8  UNL     1      26.579   4.237  49.243  1.00  0.00     0.040 A 
HETATM    2  C9  UNL     1      27.747   4.754  48.730  1.00  0.00     0.039 A 
HETATM    3  C10 UNL     1      27.424   6.045  48.361  1.00  0.00    -0.033 A 
HETATM    4  C11 UNL     1      26.110   6.256  48.655  1.00  0.00     0.024 A 
HETATM    5  N2  UNL     1      25.585   5.141  49.200  1.00  0.00    -0.315 N 
HETATM    6  C18 UNL     1      25.416   7.525  48.397  1.00  0.00     0.058 C 
HETATM    7  C19 UNL     1      26.309   8.598  47.869  1.00  0.00     0.006 C 
HETATM    8  C20 UNL     1      27.716   8.424  48.400  1.00  0.00     0.005 C 
HETATM    9  C21 UNL     1      28.242   7.146  47.740  1.00  0.00     0.040 C 
ENDROOT
BRANCH   1  10
HETATM   10  C7  UNL     1      26.487   2.874  49.755  1.00  0.00     0.027 C 
HETATM   11  C6  UNL     1      26.612   2.649  51.053  1.00  0.00    -0.007 C 
BRANCH  11  12
HETATM   12  C5  UNL     1      26.527   1.284  51.621  1.00  0.00     0.124 C 
HETATM   13  C1  UNL     1      25.154   1.019  52.154  1.00  0.00     0.233 C 
HETATM   14  O1  UNL     1      24.162   1.733  51.841  1.00  0.00    -0.272 OA
HETATM   15  N1  UNL     1      24.986  -0.091  53.048  1.00  0.00    -0.336 N 
HETATM   16  C2  UNL     1      26.167  -0.485  53.751  1.00  0.00     0.103 C 
HETATM   17  H1  UNL     1      24.080  -0.553  53.160  1.00  0.00     0.168 HD
HETATM   18  C3  UNL     1      27.280   0.187  53.652  1.00  0.00    -0.012 C 
HETATM   19  C4  UNL     1      27.458   1.134  52.781  1.00  0.00     0.005 C 
ENDBRANCH  11  12
ENDBRANCH   1  10
BRANCH   5  20
HETATM   20  C12 UNL     1      24.257   4.844  49.678  1.00  0.00     0.039 A 
HETATM   21  C13 UNL     1      24.086   5.315  50.985  1.00  0.00     0.030 A 
HETATM   22  C14 UNL     1      22.882   5.139  51.643  1.00  0.00     0.002 A 
HETATM   23  C15 UNL     1      21.847   4.484  50.977  1.00  0.00     0.000 A 
HETATM   24  C16 UNL     1      22.039   4.031  49.691  1.00  0.00     0.002 A 
HETATM   25  C17 UNL     1      23.233   4.198  49.022  1.00  0.00     0.030 A 
ENDBRANCH   5  20
TORSDOF 3
ENDMDL
