MODEL 1
REMARK VINA RESULT:      -8.0      0.000      0.000
REMARK  4 active torsions:
REMARK  status: ('A' for Active; 'I' for Inactive)
REMARK    1  A    between atoms: C2_2  and  N1_3 
REMARK    2  A    between atoms: C2_2  and  N2_10 
REMARK    3  A    between atoms: C7_8  and  O1_9 
REMARK    4  A    between atoms: C11_14  and  O2_15 
ROOT
HETATM    1  N2  UNL     1      21.753   3.032  50.846  1.00  0.00    -0.357 N 
HETATM    2  C8  UNL     1      22.347   2.478  49.644  1.00  0.00     0.131 C 
HETATM    3  C9  UNL     1      23.771   2.854  49.494  1.00  0.00     0.017 C 
HETATM    4  C10 UNL     1      25.045   3.274  49.180  1.00  0.00     0.114 C 
HETATM    5  C11 UNL     1      26.100   3.033  50.226  1.00  0.00     0.061 C 
HETATM    6  C12 UNL     1      26.699   2.664  51.380  1.00  0.00     0.004 C 
HETATM    7  C13 UNL     1      26.263   2.063  52.668  1.00  0.00     0.066 C 
HETATM    8  C14 UNL     1      24.942   1.763  52.943  1.00  0.00     0.133 C 
HETATM    9  O3  UNL     1      23.710   1.414  53.363  1.00  0.00    -0.343 OA
HETATM   10  C15 UNL     1      22.514   1.296  52.736  1.00  0.00     0.117 A 
HETATM   11  C16 UNL     1      21.941   0.155  53.310  1.00  0.00     0.071 A 
HETATM   12 CL1  UNL     1      22.757  -0.802  54.570  1.00  0.00    -0.081 Cl
HETATM   13  C17 UNL     1      20.726  -0.422  53.047  1.00  0.00     0.050 A 
HETATM   14  C18 UNL     1      19.960   0.205  52.083  1.00  0.00     0.038 A 
HETATM   15 CL2  UNL     1      18.383  -0.458  51.659  1.00  0.00    -0.084 Cl
HETATM   16  C19 UNL     1      20.486   1.352  51.477  1.00  0.00     0.056 A 
HETATM   17  C20 UNL     1      21.700   1.900  51.760  1.00  0.00     0.069 A 
ENDROOT
BRANCH   1  18
HETATM   18  C2  UNL     1      21.213   4.132  51.571  1.00  0.00     0.189 C 
HETATM   19  C1  UNL     1      19.706   4.260  51.506  1.00  0.00     0.056 C 
BRANCH  18  20
HETATM   20  N1  UNL     1      21.861   5.396  51.253  1.00  0.00    -0.316 N 
HETATM   21  C3  UNL     1      21.324   6.524  50.550  1.00  0.00     0.095 C 
HETATM   22  C4  UNL     1      22.103   7.595  50.378  1.00  0.00     0.018 C 
HETATM   23  C5  UNL     1      23.475   7.715  50.851  1.00  0.00     0.018 C 
HETATM   24  C6  UNL     1      23.992   6.628  51.368  1.00  0.00     0.029 C 
HETATM   25  C7  UNL     1      23.199   5.634  51.662  1.00  0.00     0.155 C 
BRANCH  25  26
HETATM   26  O1  UNL     1      23.974   4.843  52.478  1.00  0.00    -0.345 OA
HETATM   27  H8  UNL     1      24.014   3.834  52.483  1.00  0.00     0.219 HD
ENDBRANCH  25  26
ENDBRANCH  18  20
ENDBRANCH   1  18
BRANCH   5  28
HETATM   28  O2  UNL     1      27.243   3.532  49.524  1.00  0.00    -0.391 OA
HETATM   29  H13 UNL     1      27.146   3.910  48.598  1.00  0.00     0.210 HD
ENDBRANCH   5  28
TORSDOF 4
ENDMDL
MODEL 2
REMARK VINA RESULT:      -7.9      2.431      4.393
REMARK  4 active torsions:
REMARK  status: ('A' for Active; 'I' for Inactive)
REMARK    1  A    between atoms: C2_2  and  N1_3 
REMARK    2  A    between atoms: C2_2  and  N2_10 
REMARK    3  A    between atoms: C7_8  and  O1_9 
REMARK    4  A    between atoms: C11_14  and  O2_15 
ROOT
HETATM    1  N2  UNL     1      24.318   2.042  51.701  1.00  0.00    -0.357 N 
HETATM    2  C8  UNL     1      25.057   0.798  51.594  1.00  0.00     0.131 C 
HETATM    3  C9  UNL     1      25.168   0.094  52.891  1.00  0.00     0.017 C 
HETATM    4  C10 UNL     1      25.464  -0.557  54.069  1.00  0.00     0.114 C 
HETATM    5  C11 UNL     1      24.291  -0.930  54.935  1.00  0.00     0.061 C 
HETATM    6  C12 UNL     1      23.024  -1.057  55.391  1.00  0.00     0.004 C 
HETATM    7  C13 UNL     1      21.675  -0.634  54.934  1.00  0.00     0.066 C 
HETATM    8  C14 UNL     1      21.473   0.108  53.786  1.00  0.00     0.133 C 
HETATM    9  O3  UNL     1      21.110   0.825  52.703  1.00  0.00    -0.343 OA
HETATM   10  C15 UNL     1      21.771   1.227  51.591  1.00  0.00     0.117 A 
HETATM   11  C16 UNL     1      20.830   1.077  50.565  1.00  0.00     0.071 A 
HETATM   12 CL1  UNL     1      19.181   0.472  50.851  1.00  0.00    -0.081 Cl
HETATM   13  C17 UNL     1      20.969   1.343  49.227  1.00  0.00     0.050 A 
HETATM   14  C18 UNL     1      22.202   1.824  48.835  1.00  0.00     0.038 A 
HETATM   15 CL2  UNL     1      22.493   2.191  47.136  1.00  0.00    -0.084 Cl
HETATM   16  C19 UNL     1      23.180   1.994  49.823  1.00  0.00     0.056 A 
HETATM   17  C20 UNL     1      23.012   1.718  51.146  1.00  0.00     0.069 A 
ENDROOT
BRANCH   1  18
HETATM   18  C2  UNL     1      24.237   3.408  52.092  1.00  0.00     0.189 C 
HETATM   19  C1  UNL     1      22.955   3.794  52.798  1.00  0.00     0.056 C 
BRANCH  18  20
HETATM   20  N1  UNL     1      24.534   4.330  51.006  1.00  0.00    -0.316 N 
HETATM   21  C3  UNL     1      23.693   5.341  50.435  1.00  0.00     0.095 C 
HETATM   22  C4  UNL     1      24.181   6.085  49.440  1.00  0.00     0.018 C 
HETATM   23  C5  UNL     1      25.517   5.953  48.874  1.00  0.00     0.018 C 
HETATM   24  C6  UNL     1      26.219   4.939  49.313  1.00  0.00     0.029 C 
HETATM   25  C7  UNL     1      25.805   4.300  50.373  1.00  0.00     0.155 C 
BRANCH  25  26
HETATM   26  O1  UNL     1      26.907   3.568  50.752  1.00  0.00    -0.345 OA
HETATM   27  H8  UNL     1      27.689   3.892  51.302  1.00  0.00     0.219 HD
ENDBRANCH  25  26
ENDBRANCH  18  20
ENDBRANCH   1  18
BRANCH   5  28
HETATM   28  O2  UNL     1      24.983  -1.612  55.986  1.00  0.00    -0.391 OA
HETATM   29  H13 UNL     1      25.898  -1.994  55.828  1.00  0.00     0.210 HD
ENDBRANCH   5  28
TORSDOF 4
ENDMDL
MODEL 3
REMARK VINA RESULT:      -7.8      8.491     10.937
REMARK  4 active torsions:
REMARK  status: ('A' for Active; 'I' for Inactive)
REMARK    1  A    between atoms: C2_2  and  N1_3 
REMARK    2  A    between atoms: C2_2  and  N2_10 
REMARK    3  A    between atoms: C7_8  and  O1_9 
REMARK    4  A    between atoms: C11_14  and  O2_15 
ROOT
HETATM    1  N2  UNL     1      31.007   8.353  46.734  1.00  0.00    -0.357 N 
HETATM    2  C8  UNL     1      30.904   8.141  45.302  1.00  0.00     0.131 C 
HETATM    3  C9  UNL     1      31.894   7.161  44.804  1.00  0.00     0.017 C 
HETATM    4  C10 UNL     1      32.873   6.389  44.217  1.00  0.00     0.114 C 
HETATM    5  C11 UNL     1      33.032   4.994  44.759  1.00  0.00     0.061 C 
HETATM    6  C12 UNL     1      32.861   3.885  45.513  1.00  0.00     0.004 C 
HETATM    7  C13 UNL     1      32.003   3.495  46.663  1.00  0.00     0.066 C 
HETATM    8  C14 UNL     1      31.114   4.367  47.261  1.00  0.00     0.133 C 
HETATM    9  O3  UNL     1      30.206   5.088  47.949  1.00  0.00    -0.343 OA
HETATM   10  C15 UNL     1      29.623   6.293  47.737  1.00  0.00     0.117 A 
HETATM   11  C16 UNL     1      28.296   6.103  48.140  1.00  0.00     0.071 A 
HETATM   12 CL1  UNL     1      27.691   4.549  48.762  1.00  0.00    -0.081 Cl
HETATM   13  C17 UNL     1      27.262   7.004  48.141  1.00  0.00     0.050 A 
HETATM   14  C18 UNL     1      27.567   8.270  47.683  1.00  0.00     0.038 A 
HETATM   15 CL2  UNL     1      26.310   9.504  47.633  1.00  0.00    -0.084 Cl
HETATM   16  C19 UNL     1      28.883   8.514  47.269  1.00  0.00     0.056 A 
HETATM   17  C20 UNL     1      29.889   7.596  47.277  1.00  0.00     0.069 A 
ENDROOT
BRANCH   1  18
HETATM   18  C2  UNL     1      31.667   8.920  47.861  1.00  0.00     0.189 C 
HETATM   19  C1  UNL     1      31.591  10.429  47.950  1.00  0.00     0.056 C 
BRANCH  18  20
HETATM   20  N1  UNL     1      33.037   8.454  48.012  1.00  0.00    -0.316 N 
HETATM   21  C3  UNL     1      34.245   9.059  47.534  1.00  0.00     0.095 C 
HETATM   22  C4  UNL     1      35.406   8.454  47.799  1.00  0.00     0.018 C 
HETATM   23  C5  UNL     1      35.550   7.211  48.546  1.00  0.00     0.018 C 
HETATM   24  C6  UNL     1      34.432   6.605  48.855  1.00  0.00     0.029 C 
HETATM   25  C7  UNL     1      33.307   7.254  48.721  1.00  0.00     0.155 C 
BRANCH  25  26
HETATM   26  O1  UNL     1      32.415   6.493  49.441  1.00  0.00    -0.345 OA
HETATM   27  H8  UNL     1      31.408   6.514  49.372  1.00  0.00     0.219 HD
ENDBRANCH  25  26
ENDBRANCH  18  20
ENDBRANCH   1  18
BRANCH   5  28
HETATM   28  O2  UNL     1      34.061   4.519  43.884  1.00  0.00    -0.391 OA
HETATM   29  H13 UNL     1      34.823   5.118  43.623  1.00  0.00     0.210 HD
ENDBRANCH   5  28
TORSDOF 4
ENDMDL
MODEL 4
REMARK VINA RESULT:      -7.8      9.102     11.944
REMARK  4 active torsions:
REMARK  status: ('A' for Active; 'I' for Inactive)
REMARK    1  A    between atoms: C2_2  and  N1_3 
REMARK    2  A    between atoms: C2_2  and  N2_10 
REMARK    3  A    between atoms: C7_8  and  O1_9 
REMARK    4  A    between atoms: C11_14  and  O2_15 
ROOT
HETATM    1  N2  UNL     1      31.954   4.895  47.651  1.00  0.00    -0.357 N 
HETATM    2  C8  UNL     1      32.522   5.247  48.939  1.00  0.00     0.131 C 
HETATM    3  C9  UNL     1      33.789   6.001  48.811  1.00  0.00     0.017 C 
HETATM    4  C10 UNL     1      35.046   6.565  48.803  1.00  0.00     0.114 C 
HETATM    5  C11 UNL     1      35.202   7.830  48.003  1.00  0.00     0.061 C 
HETATM    6  C12 UNL     1      34.922   8.880  47.198  1.00  0.00     0.004 C 
HETATM    7  C13 UNL     1      33.736   9.363  46.444  1.00  0.00     0.066 C 
HETATM    8  C14 UNL     1      32.535   8.681  46.422  1.00  0.00     0.133 C 
HETATM    9  O3  UNL     1      31.306   8.142  46.301  1.00  0.00    -0.343 OA
HETATM   10  C15 UNL     1      30.667   7.133  46.942  1.00  0.00     0.117 A 
HETATM   11  C16 UNL     1      29.354   7.598  47.084  1.00  0.00     0.071 A 
HETATM   12 CL1  UNL     1      28.829   9.193  46.493  1.00  0.00    -0.081 Cl
HETATM   13  C17 UNL     1      28.279   6.974  47.661  1.00  0.00     0.050 A 
HETATM   14  C18 UNL     1      28.520   5.715  48.175  1.00  0.00     0.038 A 
HETATM   15 CL2  UNL     1      27.210   4.825  48.949  1.00  0.00    -0.084 Cl
HETATM   16  C19 UNL     1      29.818   5.200  48.059  1.00  0.00     0.056 A 
HETATM   17  C20 UNL     1      30.867   5.848  47.480  1.00  0.00     0.069 A 
ENDROOT
BRANCH   1  18
HETATM   18  C2  UNL     1      31.946   4.093  46.475  1.00  0.00     0.189 C 
HETATM   19  C1  UNL     1      32.024   2.602  46.721  1.00  0.00     0.056 C 
BRANCH  18  20
HETATM   20  N1  UNL     1      32.933   4.514  45.492  1.00  0.00    -0.316 N 
HETATM   21  C3  UNL     1      32.747   5.339  44.334  1.00  0.00     0.095 C 
HETATM   22  C4  UNL     1      33.807   5.607  43.568  1.00  0.00     0.018 C 
HETATM   23  C5  UNL     1      35.159   5.123  43.813  1.00  0.00     0.018 C 
HETATM   24  C6  UNL     1      35.283   4.263  44.793  1.00  0.00     0.029 C 
HETATM   25  C7  UNL     1      34.287   4.107  45.622  1.00  0.00     0.155 C 
BRANCH  25  26
HETATM   26  O1  UNL     1      34.858   3.440  46.681  1.00  0.00    -0.345 OA
HETATM   27  H8  UNL     1      35.551   3.801  47.321  1.00  0.00     0.219 HD
ENDBRANCH  25  26
ENDBRANCH  18  20
ENDBRANCH   1  18
BRANCH   5  28
HETATM   28  O2  UNL     1      36.575   8.119  48.288  1.00  0.00    -0.391 OA
HETATM   29  H13 UNL     1      37.186   7.399  48.630  1.00  0.00     0.210 HD
ENDBRANCH   5  28
TORSDOF 4
ENDMDL
MODEL 5
REMARK VINA RESULT:      -7.6      2.498      5.276
REMARK  4 active torsions:
REMARK  status: ('A' for Active; 'I' for Inactive)
REMARK    1  A    between atoms: C2_2  and  N1_3 
REMARK    2  A    between atoms: C2_2  and  N2_10 
REMARK    3  A    between atoms: C7_8  and  O1_9 
REMARK    4  A    between atoms: C11_14  and  O2_15 
ROOT
HETATM    1  N2  UNL     1      24.508   3.414  51.280  1.00  0.00    -0.357 N 
HETATM    2  C8  UNL     1      23.875   4.306  52.233  1.00  0.00     0.131 C 
HETATM    3  C9  UNL     1      22.398   4.223  52.189  1.00  0.00     0.017 C 
HETATM    4  C10 UNL     1      21.026   4.337  52.118  1.00  0.00     0.114 C 
HETATM    5  C11 UNL     1      20.245   3.061  52.272  1.00  0.00     0.061 C 
HETATM    6  C12 UNL     1      19.948   1.751  52.433  1.00  0.00     0.004 C 
HETATM    7  C13 UNL     1      20.720   0.489  52.579  1.00  0.00     0.066 C 
HETATM    8  C14 UNL     1      22.100   0.448  52.538  1.00  0.00     0.133 C 
HETATM    9  O3  UNL     1      23.432   0.240  52.523  1.00  0.00    -0.343 OA
HETATM   10  C15 UNL     1      24.502   1.070  52.571  1.00  0.00     0.117 A 
HETATM   11  C16 UNL     1      25.417   0.396  53.390  1.00  0.00     0.071 A 
HETATM   12 CL1  UNL     1      25.069  -1.189  54.120  1.00  0.00    -0.081 Cl
HETATM   13  C17 UNL     1      26.675   0.784  53.773  1.00  0.00     0.050 A 
HETATM   14  C18 UNL     1      27.101   2.005  53.287  1.00  0.00     0.038 A 
HETATM   15 CL2  UNL     1      28.699   2.605  53.724  1.00  0.00    -0.084 Cl
HETATM   16  C19 UNL     1      26.225   2.720  52.461  1.00  0.00     0.056 A 
HETATM   17  C20 UNL     1      24.978   2.308  52.101  1.00  0.00     0.069 A 
ENDROOT
BRANCH   1  18
HETATM   18  C2  UNL     1      24.881   3.085  49.946  1.00  0.00     0.189 C 
HETATM   19  C1  UNL     1      26.170   3.719  49.470  1.00  0.00     0.056 C 
BRANCH  18  20
HETATM   20  N1  UNL     1      23.807   3.296  48.987  1.00  0.00    -0.316 N 
HETATM   21  C3  UNL     1      22.964   2.321  48.359  1.00  0.00     0.095 C 
HETATM   22  C4  UNL     1      22.028   2.745  47.507  1.00  0.00     0.018 C 
HETATM   23  C5  UNL     1      21.787   4.138  47.155  1.00  0.00     0.018 C 
HETATM   24  C6  UNL     1      22.652   4.999  47.630  1.00  0.00     0.029 C 
HETATM   25  C7  UNL     1      23.476   4.610  48.565  1.00  0.00     0.155 C 
BRANCH  25  26
HETATM   26  O1  UNL     1      23.969   5.794  49.064  1.00  0.00    -0.345 OA
HETATM   27  H8  UNL     1      23.703   6.726  48.783  1.00  0.00     0.219 HD
ENDBRANCH  25  26
ENDBRANCH  18  20
ENDBRANCH   1  18
BRANCH   5  28
HETATM   28  O2  UNL     1      18.917   3.590  52.203  1.00  0.00    -0.391 OA
HETATM   29  H13 UNL     1      18.618   4.110  51.398  1.00  0.00     0.210 HD
ENDBRANCH   5  28
TORSDOF 4
ENDMDL
MODEL 6
REMARK VINA RESULT:      -7.5      3.337      6.334
REMARK  4 active torsions:
REMARK  status: ('A' for Active; 'I' for Inactive)
REMARK    1  A    between atoms: C2_2  and  N1_3 
REMARK    2  A    between atoms: C2_2  and  N2_10 
REMARK    3  A    between atoms: C7_8  and  O1_9 
REMARK    4  A    between atoms: C11_14  and  O2_15 
ROOT
HETATM    1  N2  UNL     1      24.287   3.704  49.437  1.00  0.00    -0.357 N 
HETATM    2  C8  UNL     1      23.394   2.934  48.592  1.00  0.00     0.131 C 
HETATM    3  C9  UNL     1      22.567   1.981  49.364  1.00  0.00     0.017 C 
HETATM    4  C10 UNL     1      21.869   0.957  49.967  1.00  0.00     0.114 C 
HETATM    5  C11 UNL     1      20.994   1.343  51.128  1.00  0.00     0.061 C 
HETATM    6  C12 UNL     1      20.381   2.080  52.082  1.00  0.00     0.004 C 
HETATM    7  C13 UNL     1      20.400   3.503  52.510  1.00  0.00     0.066 C 
HETATM    8  C14 UNL     1      21.208   4.452  51.915  1.00  0.00     0.133 C 
HETATM    9  O3  UNL     1      21.928   5.490  51.444  1.00  0.00    -0.343 OA
HETATM   10  C15 UNL     1      22.702   5.661  50.344  1.00  0.00     0.117 A 
HETATM   11  C16 UNL     1      22.416   6.967  49.928  1.00  0.00     0.071 A 
HETATM   12 CL1  UNL     1      21.260   8.018  50.781  1.00  0.00    -0.081 Cl
HETATM   13  C17 UNL     1      22.926   7.659  48.860  1.00  0.00     0.050 A 
HETATM   14  C18 UNL     1      23.846   6.979  48.087  1.00  0.00     0.038 A 
HETATM   15 CL2  UNL     1      24.559   7.771  46.684  1.00  0.00    -0.084 Cl
HETATM   16  C19 UNL     1      24.169   5.668  48.460  1.00  0.00     0.056 A 
HETATM   17  C20 UNL     1      23.642   5.006  49.527  1.00  0.00     0.069 A 
ENDROOT
BRANCH   1  18
HETATM   18  C2  UNL     1      25.467   3.808  50.227  1.00  0.00     0.189 C 
HETATM   19  C1  UNL     1      26.753   3.929  49.438  1.00  0.00     0.056 C 
BRANCH  18  20
HETATM   20  N1  UNL     1      25.568   2.767  51.238  1.00  0.00    -0.316 N 
HETATM   21  C3  UNL     1      26.299   1.534  51.183  1.00  0.00     0.095 C 
HETATM   22  C4  UNL     1      26.256   0.723  52.243  1.00  0.00     0.018 C 
HETATM   23  C5  UNL     1      25.518   0.989  53.470  1.00  0.00     0.018 C 
HETATM   24  C6  UNL     1      24.750   2.049  53.450  1.00  0.00     0.029 C 
HETATM   25  C7  UNL     1      24.893   2.910  52.479  1.00  0.00     0.155 C 
BRANCH  25  26
HETATM   26  O1  UNL     1      24.223   4.020  52.939  1.00  0.00    -0.345 OA
HETATM   27  H8  UNL     1      24.626   4.914  53.179  1.00  0.00     0.219 HD
ENDBRANCH  25  26
ENDBRANCH  18  20
ENDBRANCH   1  18
BRANCH   5  28
HETATM   28  O2  UNL     1      20.419   0.065  51.423  1.00  0.00    -0.391 OA
HETATM   29  H13 UNL     1      20.375  -0.266  52.370  1.00  0.00     0.210 HD
ENDBRANCH   5  28
TORSDOF 4
ENDMDL
MODEL 7
REMARK VINA RESULT:      -7.5      2.383      3.694
REMARK  4 active torsions:
REMARK  status: ('A' for Active; 'I' for Inactive)
REMARK    1  A    between atoms: C2_2  and  N1_3 
REMARK    2  A    between atoms: C2_2  and  N2_10 
REMARK    3  A    between atoms: C7_8  and  O1_9 
REMARK    4  A    between atoms: C11_14  and  O2_15 
ROOT
HETATM    1  N2  UNL     1      24.707   4.093  50.952  1.00  0.00    -0.357 N 
HETATM    2  C8  UNL     1      25.930   3.482  50.466  1.00  0.00     0.131 C 
HETATM    3  C9  UNL     1      26.629   2.705  51.514  1.00  0.00     0.017 C 
HETATM    4  C10 UNL     1      27.434   2.094  52.451  1.00  0.00     0.114 C 
HETATM    5  C11 UNL     1      26.797   0.994  53.256  1.00  0.00     0.061 C 
HETATM    6  C12 UNL     1      25.880   0.127  53.741  1.00  0.00     0.004 C 
HETATM    7  C13 UNL     1      24.440  -0.152  53.503  1.00  0.00     0.066 C 
HETATM    8  C14 UNL     1      23.675   0.579  52.614  1.00  0.00     0.133 C 
HETATM    9  O3  UNL     1      22.799   1.189  51.790  1.00  0.00    -0.343 OA
HETATM   10  C15 UNL     1      22.939   2.090  50.788  1.00  0.00     0.117 A 
HETATM   11  C16 UNL     1      22.018   1.669  49.822  1.00  0.00     0.071 A 
HETATM   12 CL1  UNL     1      20.981   0.239  50.039  1.00  0.00    -0.081 Cl
HETATM   13  C17 UNL     1      21.740   2.225  48.600  1.00  0.00     0.050 A 
HETATM   14  C18 UNL     1      22.466   3.354  48.274  1.00  0.00     0.038 A 
HETATM   15 CL2  UNL     1      22.195   4.145  46.723  1.00  0.00    -0.084 Cl
HETATM   16  C19 UNL     1      23.401   3.819  49.207  1.00  0.00     0.056 A 
HETATM   17  C20 UNL     1      23.657   3.242  50.414  1.00  0.00     0.069 A 
ENDROOT
BRANCH   1  18
HETATM   18  C2  UNL     1      24.036   5.099  51.702  1.00  0.00     0.189 C 
HETATM   19  C1  UNL     1      22.830   4.617  52.479  1.00  0.00     0.056 C 
BRANCH  18  20
HETATM   20  N1  UNL     1      23.712   6.278  50.912  1.00  0.00    -0.316 N 
HETATM   21  C3  UNL     1      22.427   6.731  50.467  1.00  0.00     0.095 C 
HETATM   22  C4  UNL     1      22.363   7.857  49.752  1.00  0.00     0.018 C 
HETATM   23  C5  UNL     1      23.509   8.677  49.380  1.00  0.00     0.018 C 
HETATM   24  C6  UNL     1      24.682   8.178  49.677  1.00  0.00     0.029 C 
HETATM   25  C7  UNL     1      24.743   7.157  50.488  1.00  0.00     0.155 C 
BRANCH  25  26
HETATM   26  O1  UNL     1      26.070   7.122  50.852  1.00  0.00    -0.345 OA
HETATM   27  H8  UNL     1      26.701   7.907  50.916  1.00  0.00     0.219 HD
ENDBRANCH  25  26
ENDBRANCH  18  20
ENDBRANCH   1  18
BRANCH   5  28
HETATM   28  O2  UNL     1      27.928   0.592  54.038  1.00  0.00    -0.391 OA
HETATM   29  H13 UNL     1      27.798   0.181  54.945  1.00  0.00     0.210 HD
ENDBRANCH   5  28
TORSDOF 4
ENDMDL
MODEL 8
REMARK VINA RESULT:      -7.5      7.764     10.689
REMARK  4 active torsions:
REMARK  status: ('A' for Active; 'I' for Inactive)
REMARK    1  A    between atoms: C2_2  and  N1_3 
REMARK    2  A    between atoms: C2_2  and  N2_10 
REMARK    3  A    between atoms: C7_8  and  O1_9 
REMARK    4  A    between atoms: C11_14  and  O2_15 
ROOT
HETATM    1  N2  UNL     1      30.247   9.643  48.014  1.00  0.00    -0.357 N 
HETATM    2  C8  UNL     1      30.016   9.781  49.440  1.00  0.00     0.131 C 
HETATM    3  C9  UNL     1      28.616   9.487  49.817  1.00  0.00     0.017 C 
HETATM    4  C10 UNL     1      27.310   9.390  50.248  1.00  0.00     0.114 C 
HETATM    5  C11 UNL     1      26.592   8.112  49.906  1.00  0.00     0.061 C 
HETATM    6  C12 UNL     1      26.328   6.886  49.402  1.00  0.00     0.004 C 
HETATM    7  C13 UNL     1      27.061   5.885  48.583  1.00  0.00     0.066 C 
HETATM    8  C14 UNL     1      28.338   6.104  48.103  1.00  0.00     0.133 C 
HETATM    9  O3  UNL     1      29.573   6.161  47.565  1.00  0.00    -0.343 OA
HETATM   10  C15 UNL     1      30.618   7.008  47.728  1.00  0.00     0.117 A 
HETATM   11  C16 UNL     1      31.739   6.169  47.711  1.00  0.00     0.071 A 
HETATM   12 CL1  UNL     1      31.619   4.404  47.512  1.00  0.00    -0.081 Cl
HETATM   13  C17 UNL     1      33.064   6.503  47.832  1.00  0.00     0.050 A 
HETATM   14  C18 UNL     1      33.332   7.847  47.995  1.00  0.00     0.038 A 
HETATM   15 CL2  UNL     1      35.000   8.387  48.171  1.00  0.00    -0.084 Cl
HETATM   16  C19 UNL     1      32.245   8.731  48.019  1.00  0.00     0.056 A 
HETATM   17  C20 UNL     1      30.939   8.368  47.897  1.00  0.00     0.069 A 
ENDROOT
BRANCH   1  18
HETATM   18  C2  UNL     1      30.118  10.130  46.683  1.00  0.00     0.189 C 
HETATM   19  C1  UNL     1      30.550  11.567  46.486  1.00  0.00     0.056 C 
BRANCH  18  20
HETATM   20  N1  UNL     1      28.798   9.898  46.117  1.00  0.00    -0.316 N 
HETATM   21  C3  UNL     1      27.566  10.566  46.417  1.00  0.00     0.095 C 
HETATM   22  C4  UNL     1      26.464  10.191  45.762  1.00  0.00     0.018 C 
HETATM   23  C5  UNL     1      26.408   9.142  44.753  1.00  0.00     0.018 C 
HETATM   24  C6  UNL     1      27.510   8.453  44.591  1.00  0.00     0.029 C 
HETATM   25  C7  UNL     1      28.615   8.901  45.123  1.00  0.00     0.155 C 
BRANCH  25  26
HETATM   26  O1  UNL     1      29.591   8.170  44.486  1.00  0.00    -0.345 OA
HETATM   27  H8  UNL     1      30.418   8.529  44.033  1.00  0.00     0.219 HD
ENDBRANCH  25  26
ENDBRANCH  18  20
ENDBRANCH   1  18
BRANCH   5  28
HETATM   28  O2  UNL     1      25.341   8.367  50.554  1.00  0.00    -0.391 OA
HETATM   29  H13 UNL     1      24.567   7.740  50.430  1.00  0.00     0.210 HD
ENDBRANCH   5  28
TORSDOF 4
ENDMDL
MODEL 9
REMARK VINA RESULT:      -7.3      3.255      6.722
REMARK  4 active torsions:
REMARK  status: ('A' for Active; 'I' for Inactive)
REMARK    1  A    between atoms: C2_2  and  N1_3 
REMARK    2  A    between atoms: C2_2  and  N2_10 
REMARK    3  A    between atoms: C7_8  and  O1_9 
REMARK    4  A    between atoms: C11_14  and  O2_15 
ROOT
HETATM    1  N2  UNL     1      23.043   2.314  51.054  1.00  0.00    -0.357 N 
HETATM    2  C8  UNL     1      22.667   1.732  49.779  1.00  0.00     0.131 C 
HETATM    3  C9  UNL     1      21.269   1.247  49.769  1.00  0.00     0.017 C 
HETATM    4  C10 UNL     1      20.042   0.624  49.708  1.00  0.00     0.114 C 
HETATM    5  C11 UNL     1      18.849   1.470  50.062  1.00  0.00     0.061 C 
HETATM    6  C12 UNL     1      18.095   2.522  50.453  1.00  0.00     0.004 C 
HETATM    7  C13 UNL     1      18.352   3.917  50.897  1.00  0.00     0.066 C 
HETATM    8  C14 UNL     1      19.626   4.436  51.030  1.00  0.00     0.133 C 
HETATM    9  O3  UNL     1      20.792   5.088  51.208  1.00  0.00    -0.343 OA
HETATM   10  C15 UNL     1      22.075   4.803  50.875  1.00  0.00     0.117 A 
HETATM   11  C16 UNL     1      22.602   6.036  50.470  1.00  0.00     0.071 A 
HETATM   12 CL1  UNL     1      21.643   7.536  50.459  1.00  0.00    -0.081 Cl
HETATM   13  C17 UNL     1      23.868   6.327  50.032  1.00  0.00     0.050 A 
HETATM   14  C18 UNL     1      24.745   5.262  49.980  1.00  0.00     0.038 A 
HETATM   15 CL2  UNL     1      26.397   5.522  49.423  1.00  0.00    -0.084 Cl
HETATM   16  C19 UNL     1      24.270   4.006  50.376  1.00  0.00     0.056 A 
HETATM   17  C20 UNL     1      23.003   3.748  50.805  1.00  0.00     0.069 A 
ENDROOT
BRANCH   1  18
HETATM   18  C2  UNL     1      23.414   2.175  52.421  1.00  0.00     0.189 C 
HETATM   19  C1  UNL     1      24.904   2.222  52.684  1.00  0.00     0.056 C 
BRANCH  18  20
HETATM   20  N1  UNL     1      22.805   1.018  53.061  1.00  0.00    -0.316 N 
HETATM   21  C3  UNL     1      23.434  -0.189  53.511  1.00  0.00     0.095 C 
HETATM   22  C4  UNL     1      22.674  -1.125  54.085  1.00  0.00     0.018 C 
HETATM   23  C5  UNL     1      21.236  -1.021  54.295  1.00  0.00     0.018 C 
HETATM   24  C6  UNL     1      20.660   0.024  53.756  1.00  0.00     0.029 C 
HETATM   25  C7  UNL     1      21.410   0.999  53.320  1.00  0.00     0.155 C 
BRANCH  25  26
HETATM   26  O1  UNL     1      20.519   2.036  53.162  1.00  0.00    -0.345 OA
HETATM   27  H8  UNL     1      19.926   2.438  53.873  1.00  0.00     0.219 HD
ENDBRANCH  25  26
ENDBRANCH  18  20
ENDBRANCH   1  18
BRANCH   5  28
HETATM   28  O2  UNL     1      17.807   0.517  49.825  1.00  0.00    -0.391 OA
HETATM   29  H13 UNL     1      17.006   0.479  50.430  1.00  0.00     0.210 HD
ENDBRANCH   5  28
TORSDOF 4
ENDMDL
