MODEL 1
REMARK VINA RESULT:      -7.1      0.000      0.000
REMARK  6 active torsions:
REMARK  status: ('A' for Active; 'I' for Inactive)
REMARK    1  A    between atoms: C10_11  and  C11_12 
REMARK    2  A    between atoms: C12_13  and  C13_14 
REMARK    3  A    between atoms: C13_14  and  O1_15 
REMARK    4  A    between atoms: O1_15  and  C14_16 
REMARK    5  A    between atoms: C14_16  and  C15_17 
REMARK    6  A    between atoms: C15_17  and  O2_18 
ROOT
HETATM    1  C1  UNL     1      15.234  -4.089  53.097  1.00  0.00     0.018 C 
HETATM    2  C2  UNL     1      16.031  -3.194  52.946  1.00  0.00    -0.078 C 
HETATM    3  C3  UNL     1      16.989  -2.127  52.788  1.00  0.00     0.019 A 
HETATM    4  C4  UNL     1      16.715  -1.116  51.888  1.00  0.00     0.023 A 
HETATM    5  C5  UNL     1      17.591  -0.067  51.692  1.00  0.00     0.035 A 
HETATM    6  C6  UNL     1      18.774  -0.063  52.440  1.00  0.00     0.084 A 
HETATM    7  C7  UNL     1      19.061  -1.084  53.354  1.00  0.00     0.058 A 
HETATM    8  C8  UNL     1      18.153  -2.137  53.534  1.00  0.00     0.052 A 
HETATM    9  N1  UNL     1      20.173  -1.315  54.225  1.00  0.00    -0.382 N 
HETATM   10  C9  UNL     1      21.273  -0.486  54.724  1.00  0.00     0.179 C 
HETATM   11  C10 UNL     1      22.113   0.051  53.628  1.00  0.00     0.053 C 
HETATM   12  N2  UNL     1      21.868   0.827  52.629  1.00  0.00    -0.245 NA
HETATM   13  C17 UNL     1      20.735   1.514  52.112  1.00  0.00     0.234 C 
HETATM   14  N3  UNL     1      19.506   1.120  52.055  1.00  0.00    -0.240 NA
HETATM   15  H5  UNL     1      20.160  -2.307  54.558  1.00  0.00     0.160 HD
ENDROOT
BRANCH  11  16
HETATM   16  C11 UNL     1      23.492  -0.365  53.660  1.00  0.00     0.027 C 
HETATM   17  C12 UNL     1      24.586   0.106  53.111  1.00  0.00     0.001 C 
BRANCH  17  18
HETATM   18  C13 UNL     1      26.003  -0.320  53.143  1.00  0.00     0.195 C 
BRANCH  18  19
HETATM   19  O1  UNL     1      26.388  -0.746  54.414  1.00  0.00    -0.385 OA
BRANCH  19  20
HETATM   20  C14 UNL     1      27.145   0.214  55.029  1.00  0.00     0.194 C 
BRANCH  20  21
HETATM   21  C15 UNL     1      28.549   0.304  54.557  1.00  0.00     0.193 C 
BRANCH  21  22
HETATM   22  O2  UNL     1      29.115   1.536  54.566  1.00  0.00    -0.394 OA
HETATM   23  C16 UNL     1      28.614   2.414  53.653  1.00  0.00     0.201 C 
ENDBRANCH  21  22
ENDBRANCH  20  21
ENDBRANCH  19  20
ENDBRANCH  18  19
ENDBRANCH  17  18
ENDBRANCH  11  16
TORSDOF 6
ENDMDL
MODEL 2
REMARK VINA RESULT:      -6.8      4.817      8.775
REMARK  6 active torsions:
REMARK  status: ('A' for Active; 'I' for Inactive)
REMARK    1  A    between atoms: C10_11  and  C11_12 
REMARK    2  A    between atoms: C12_13  and  C13_14 
REMARK    3  A    between atoms: C13_14  and  O1_15 
REMARK    4  A    between atoms: O1_15  and  C14_16 
REMARK    5  A    between atoms: C14_16  and  C15_17 
REMARK    6  A    between atoms: C15_17  and  O2_18 
ROOT
HETATM    1  C1  UNL     1      28.909   7.510  47.171  1.00  0.00     0.018 C 
HETATM    2  C2  UNL     1      28.021   7.193  47.924  1.00  0.00    -0.078 C 
HETATM    3  C3  UNL     1      26.950   6.799  48.808  1.00  0.00     0.019 A 
HETATM    4  C4  UNL     1      26.435   7.734  49.685  1.00  0.00     0.023 A 
HETATM    5  C5  UNL     1      25.411   7.419  50.555  1.00  0.00     0.035 A 
HETATM    6  C6  UNL     1      24.910   6.112  50.521  1.00  0.00     0.084 A 
HETATM    7  C7  UNL     1      25.427   5.158  49.636  1.00  0.00     0.058 A 
HETATM    8  C8  UNL     1      26.466   5.505  48.763  1.00  0.00     0.052 A 
HETATM    9  N1  UNL     1      25.103   3.783  49.402  1.00  0.00    -0.382 N 
HETATM   10  C9  UNL     1      23.967   2.925  49.750  1.00  0.00     0.179 C 
HETATM   11  C10 UNL     1      23.764   2.830  51.215  1.00  0.00     0.053 C 
HETATM   12  N2  UNL     1      23.494   3.700  52.126  1.00  0.00    -0.245 NA
HETATM   13  C17 UNL     1      23.271   5.104  52.175  1.00  0.00     0.234 C 
HETATM   14  N3  UNL     1      23.863   6.041  51.512  1.00  0.00    -0.240 NA
HETATM   15  H5  UNL     1      25.872   3.327  48.860  1.00  0.00     0.160 HD
ENDROOT
BRANCH  11  16
HETATM   16  C11 UNL     1      23.887   1.502  51.760  1.00  0.00     0.027 C 
HETATM   17  C12 UNL     1      23.784   1.015  52.973  1.00  0.00     0.001 C 
BRANCH  17  18
HETATM   18  C13 UNL     1      23.911  -0.349  53.535  1.00  0.00     0.195 C 
BRANCH  18  19
HETATM   19  O1  UNL     1      25.171  -0.565  54.092  1.00  0.00    -0.385 OA
BRANCH  19  20
HETATM   20  C14 UNL     1      26.020  -1.096  53.161  1.00  0.00     0.194 C 
BRANCH  20  21
HETATM   21  C15 UNL     1      27.354  -0.449  53.087  1.00  0.00     0.193 C 
BRANCH  21  22
HETATM   22  O2  UNL     1      28.274  -0.849  53.998  1.00  0.00    -0.394 OA
HETATM   23  C16 UNL     1      28.701   0.118  54.859  1.00  0.00     0.201 C 
ENDBRANCH  21  22
ENDBRANCH  20  21
ENDBRANCH  19  20
ENDBRANCH  18  19
ENDBRANCH  17  18
ENDBRANCH  11  16
TORSDOF 6
ENDMDL
MODEL 3
REMARK VINA RESULT:      -6.6     10.949     14.294
REMARK  6 active torsions:
REMARK  status: ('A' for Active; 'I' for Inactive)
REMARK    1  A    between atoms: C10_11  and  C11_12 
REMARK    2  A    between atoms: C12_13  and  C13_14 
REMARK    3  A    between atoms: C13_14  and  O1_15 
REMARK    4  A    between atoms: O1_15  and  C14_16 
REMARK    5  A    between atoms: C14_16  and  C15_17 
REMARK    6  A    between atoms: C15_17  and  O2_18 
ROOT
HETATM    1  C1  UNL     1      32.059   0.176  46.681  1.00  0.00     0.018 C 
HETATM    2  C2  UNL     1      32.421   1.300  46.933  1.00  0.00    -0.078 C 
HETATM    3  C3  UNL     1      32.839   2.652  47.217  1.00  0.00     0.019 A 
HETATM    4  C4  UNL     1      34.146   2.876  47.603  1.00  0.00     0.023 A 
HETATM    5  C5  UNL     1      34.606   4.145  47.889  1.00  0.00     0.035 A 
HETATM    6  C6  UNL     1      33.699   5.205  47.774  1.00  0.00     0.084 A 
HETATM    7  C7  UNL     1      32.372   4.987  47.384  1.00  0.00     0.058 A 
HETATM    8  C8  UNL     1      31.931   3.688  47.100  1.00  0.00     0.052 A 
HETATM    9  N1  UNL     1      31.265   5.874  47.193  1.00  0.00    -0.382 N 
HETATM   10  C9  UNL     1      31.128   7.325  47.041  1.00  0.00     0.179 C 
HETATM   11  C10 UNL     1      31.649   8.064  48.215  1.00  0.00     0.053 C 
HETATM   12  N2  UNL     1      32.814   8.145  48.760  1.00  0.00    -0.245 NA
HETATM   13  C17 UNL     1      34.104   7.597  48.519  1.00  0.00     0.234 C 
HETATM   14  N3  UNL     1      34.417   6.408  48.123  1.00  0.00    -0.240 NA
HETATM   15  H5  UNL     1      30.375   5.325  47.161  1.00  0.00     0.160 HD
ENDROOT
BRANCH  11  16
HETATM   16  C11 UNL     1      30.674   8.865  48.910  1.00  0.00     0.027 C 
HETATM   17  C12 UNL     1      29.372   8.786  49.039  1.00  0.00     0.001 C 
BRANCH  17  18
HETATM   18  C13 UNL     1      28.369   9.609  49.752  1.00  0.00     0.195 C 
BRANCH  18  19
HETATM   19  O1  UNL     1      27.177   8.914  49.953  1.00  0.00    -0.385 OA
BRANCH  19  20
HETATM   20  C14 UNL     1      26.992   7.989  48.963  1.00  0.00     0.194 C 
BRANCH  20  21
HETATM   21  C15 UNL     1      26.347   6.724  49.399  1.00  0.00     0.193 C 
BRANCH  21  22
HETATM   22  O2  UNL     1      26.584   5.628  48.637  1.00  0.00    -0.394 OA
HETATM   23  C16 UNL     1      27.895   5.285  48.501  1.00  0.00     0.201 C 
ENDBRANCH  21  22
ENDBRANCH  20  21
ENDBRANCH  19  20
ENDBRANCH  18  19
ENDBRANCH  17  18
ENDBRANCH  11  16
TORSDOF 6
ENDMDL
MODEL 4
REMARK VINA RESULT:      -6.4      4.851      6.729
REMARK  6 active torsions:
REMARK  status: ('A' for Active; 'I' for Inactive)
REMARK    1  A    between atoms: C10_11  and  C11_12 
REMARK    2  A    between atoms: C12_13  and  C13_14 
REMARK    3  A    between atoms: C13_14  and  O1_15 
REMARK    4  A    between atoms: O1_15  and  C14_16 
REMARK    5  A    between atoms: C14_16  and  C15_17 
REMARK    6  A    between atoms: C15_17  and  O2_18 
ROOT
HETATM    1  C1  UNL     1      22.331  -1.404  55.080  1.00  0.00     0.018 C 
HETATM    2  C2  UNL     1      22.355  -0.695  54.103  1.00  0.00    -0.078 C 
HETATM    3  C3  UNL     1      22.390   0.172  52.949  1.00  0.00     0.019 A 
HETATM    4  C4  UNL     1      21.542  -0.097  51.892  1.00  0.00     0.023 A 
HETATM    5  C5  UNL     1      21.527   0.694  50.761  1.00  0.00     0.035 A 
HETATM    6  C6  UNL     1      22.405   1.783  50.720  1.00  0.00     0.084 A 
HETATM    7  C7  UNL     1      23.268   2.062  51.786  1.00  0.00     0.058 A 
HETATM    8  C8  UNL     1      23.263   1.243  52.923  1.00  0.00     0.052 A 
HETATM    9  N1  UNL     1      24.243   3.089  51.995  1.00  0.00    -0.382 N 
HETATM   10  C9  UNL     1      24.526   4.378  51.358  1.00  0.00     0.179 C 
HETATM   11  C10 UNL     1      24.837   4.235  49.916  1.00  0.00     0.053 C 
HETATM   12  N2  UNL     1      24.167   3.789  48.911  1.00  0.00    -0.245 NA
HETATM   13  C17 UNL     1      22.871   3.243  48.697  1.00  0.00     0.234 C 
HETATM   14  N3  UNL     1      22.197   2.439  49.450  1.00  0.00    -0.240 NA
HETATM   15  H5  UNL     1      24.873   2.822  52.786  1.00  0.00     0.160 HD
ENDROOT
BRANCH  11  16
HETATM   16  C11 UNL     1      26.152   4.679  49.531  1.00  0.00     0.027 C 
HETATM   17  C12 UNL     1      26.585   5.599  48.704  1.00  0.00     0.001 C 
BRANCH  17  18
HETATM   18  C13 UNL     1      27.936   6.055  48.307  1.00  0.00     0.195 C 
BRANCH  18  19
HETATM   19  O1  UNL     1      28.863   5.015  48.335  1.00  0.00    -0.385 OA
BRANCH  19  20
HETATM   20  C14 UNL     1      30.118   5.486  48.063  1.00  0.00     0.194 C 
BRANCH  20  21
HETATM   21  C15 UNL     1      30.411   6.839  48.601  1.00  0.00     0.193 C 
BRANCH  21  22
HETATM   22  O2  UNL     1      31.476   6.944  49.432  1.00  0.00    -0.394 OA
HETATM   23  C16 UNL     1      32.694   6.954  48.820  1.00  0.00     0.201 C 
ENDBRANCH  21  22
ENDBRANCH  20  21
ENDBRANCH  19  20
ENDBRANCH  18  19
ENDBRANCH  17  18
ENDBRANCH  11  16
TORSDOF 6
ENDMDL
MODEL 5
REMARK VINA RESULT:      -6.3      5.351      9.992
REMARK  6 active torsions:
REMARK  status: ('A' for Active; 'I' for Inactive)
REMARK    1  A    between atoms: C10_11  and  C11_12 
REMARK    2  A    between atoms: C12_13  and  C13_14 
REMARK    3  A    between atoms: C13_14  and  O1_15 
REMARK    4  A    between atoms: O1_15  and  C14_16 
REMARK    5  A    between atoms: C14_16  and  C15_17 
REMARK    6  A    between atoms: C15_17  and  O2_18 
ROOT
HETATM    1  C1  UNL     1      31.100   5.630  47.503  1.00  0.00     0.018 C 
HETATM    2  C2  UNL     1      29.952   5.805  47.831  1.00  0.00    -0.078 C 
HETATM    3  C3  UNL     1      28.573   5.992  48.214  1.00  0.00     0.019 A 
HETATM    4  C4  UNL     1      28.050   7.270  48.208  1.00  0.00     0.023 A 
HETATM    5  C5  UNL     1      26.739   7.515  48.564  1.00  0.00     0.035 A 
HETATM    6  C6  UNL     1      25.952   6.418  48.934  1.00  0.00     0.084 A 
HETATM    7  C7  UNL     1      26.474   5.119  48.944  1.00  0.00     0.058 A 
HETATM    8  C8  UNL     1      27.809   4.899  48.578  1.00  0.00     0.052 A 
HETATM    9  N1  UNL     1      25.899   3.851  49.274  1.00  0.00    -0.382 N 
HETATM   10  C9  UNL     1      24.528   3.359  49.441  1.00  0.00     0.179 C 
HETATM   11  C10 UNL     1      23.799   4.083  50.509  1.00  0.00     0.053 C 
HETATM   12  N2  UNL     1      23.466   5.317  50.668  1.00  0.00    -0.245 NA
HETATM   13  C17 UNL     1      23.625   6.529  49.941  1.00  0.00     0.234 C 
HETATM   14  N3  UNL     1      24.643   6.934  49.256  1.00  0.00    -0.240 NA
HETATM   15  H5  UNL     1      26.658   3.146  49.421  1.00  0.00     0.160 HD
ENDROOT
BRANCH  11  16
HETATM   16  C11 UNL     1      23.359   3.262  51.608  1.00  0.00     0.027 C 
HETATM   17  C12 UNL     1      23.514   1.993  51.901  1.00  0.00     0.001 C 
BRANCH  17  18
HETATM   18  C13 UNL     1      23.062   1.149  53.030  1.00  0.00     0.195 C 
BRANCH  18  19
HETATM   19  O1  UNL     1      22.545  -0.069  52.591  1.00  0.00    -0.385 OA
BRANCH  19  20
HETATM   20  C14 UNL     1      21.385  -0.361  53.254  1.00  0.00     0.194 C 
BRANCH  20  21
HETATM   21  C15 UNL     1      21.500  -0.400  54.733  1.00  0.00     0.193 C 
BRANCH  21  22
HETATM   22  O2  UNL     1      21.967  -1.551  55.277  1.00  0.00    -0.394 OA
HETATM   23  C16 UNL     1      23.284  -1.539  55.624  1.00  0.00     0.201 C 
ENDBRANCH  21  22
ENDBRANCH  20  21
ENDBRANCH  19  20
ENDBRANCH  18  19
ENDBRANCH  17  18
ENDBRANCH  11  16
TORSDOF 6
ENDMDL
MODEL 6
REMARK VINA RESULT:      -6.3      4.771      8.308
REMARK  6 active torsions:
REMARK  status: ('A' for Active; 'I' for Inactive)
REMARK    1  A    between atoms: C10_11  and  C11_12 
REMARK    2  A    between atoms: C12_13  and  C13_14 
REMARK    3  A    between atoms: C13_14  and  O1_15 
REMARK    4  A    between atoms: O1_15  and  C14_16 
REMARK    5  A    between atoms: C14_16  and  C15_17 
REMARK    6  A    between atoms: C15_17  and  O2_18 
ROOT
HETATM    1  C1  UNL     1      30.156  -0.521  53.562  1.00  0.00     0.018 C 
HETATM    2  C2  UNL     1      28.972  -0.324  53.433  1.00  0.00    -0.078 C 
HETATM    3  C3  UNL     1      27.558  -0.069  53.294  1.00  0.00     0.019 A 
HETATM    4  C4  UNL     1      26.702  -1.141  53.139  1.00  0.00     0.023 A 
HETATM    5  C5  UNL     1      25.340  -0.963  53.001  1.00  0.00     0.035 A 
HETATM    6  C6  UNL     1      24.852   0.349  53.023  1.00  0.00     0.084 A 
HETATM    7  C7  UNL     1      25.713   1.442  53.179  1.00  0.00     0.058 A 
HETATM    8  C8  UNL     1      27.092   1.233  53.318  1.00  0.00     0.052 A 
HETATM    9  N1  UNL     1      25.480   2.853  53.235  1.00  0.00    -0.382 N 
HETATM   10  C9  UNL     1      24.294   3.688  53.441  1.00  0.00     0.179 C 
HETATM   11  C10 UNL     1      23.256   3.454  52.409  1.00  0.00     0.053 C 
HETATM   12  N2  UNL     1      22.572   2.418  52.066  1.00  0.00    -0.245 NA
HETATM   13  C17 UNL     1      22.477   1.062  52.484  1.00  0.00     0.234 C 
HETATM   14  N3  UNL     1      23.420   0.263  52.861  1.00  0.00    -0.240 NA
HETATM   15  H5  UNL     1      26.381   3.365  53.092  1.00  0.00     0.160 HD
ENDROOT
BRANCH  11  16
HETATM   16  C11 UNL     1      22.925   4.605  51.609  1.00  0.00     0.027 C 
HETATM   17  C12 UNL     1      22.047   4.817  50.658  1.00  0.00     0.001 C 
BRANCH  17  18
HETATM   18  C13 UNL     1      21.706   5.999  49.835  1.00  0.00     0.195 C 
BRANCH  18  19
HETATM   19  O1  UNL     1      22.027   7.192  50.482  1.00  0.00    -0.385 OA
BRANCH  19  20
HETATM   20  C14 UNL     1      22.964   7.886  49.767  1.00  0.00     0.194 C 
BRANCH  20  21
HETATM   21  C15 UNL     1      24.220   8.182  50.500  1.00  0.00     0.193 C 
BRANCH  21  22
HETATM   22  O2  UNL     1      24.998   7.120  50.826  1.00  0.00    -0.394 OA
HETATM   23  C16 UNL     1      25.688   6.564  49.792  1.00  0.00     0.201 C 
ENDBRANCH  21  22
ENDBRANCH  20  21
ENDBRANCH  19  20
ENDBRANCH  18  19
ENDBRANCH  17  18
ENDBRANCH  11  16
TORSDOF 6
ENDMDL
MODEL 7
REMARK VINA RESULT:      -6.3      5.648      9.571
REMARK  6 active torsions:
REMARK  status: ('A' for Active; 'I' for Inactive)
REMARK    1  A    between atoms: C10_11  and  C11_12 
REMARK    2  A    between atoms: C12_13  and  C13_14 
REMARK    3  A    between atoms: C13_14  and  O1_15 
REMARK    4  A    between atoms: O1_15  and  C14_16 
REMARK    5  A    between atoms: C14_16  and  C15_17 
REMARK    6  A    between atoms: C15_17  and  O2_18 
ROOT
HETATM    1  C1  UNL     1      29.735  -0.869  53.615  1.00  0.00     0.018 C 
HETATM    2  C2  UNL     1      28.596  -0.550  53.372  1.00  0.00    -0.078 C 
HETATM    3  C3  UNL     1      27.242  -0.146  53.079  1.00  0.00     0.019 A 
HETATM    4  C4  UNL     1      26.201  -0.829  53.676  1.00  0.00     0.023 A 
HETATM    5  C5  UNL     1      24.885  -0.491  53.436  1.00  0.00     0.035 A 
HETATM    6  C6  UNL     1      24.638   0.574  52.562  1.00  0.00     0.084 A 
HETATM    7  C7  UNL     1      25.687   1.272  51.952  1.00  0.00     0.058 A 
HETATM    8  C8  UNL     1      27.015   0.908  52.213  1.00  0.00     0.052 A 
HETATM    9  N1  UNL     1      25.710   2.374  51.038  1.00  0.00    -0.382 N 
HETATM   10  C9  UNL     1      24.726   3.372  50.612  1.00  0.00     0.179 C 
HETATM   11  C10 UNL     1      23.530   2.753  49.994  1.00  0.00     0.053 C 
HETATM   12  N2  UNL     1      22.636   1.934  50.431  1.00  0.00    -0.245 NA
HETATM   13  C17 UNL     1      22.369   1.256  51.652  1.00  0.00     0.234 C 
HETATM   14  N3  UNL     1      23.204   0.723  52.481  1.00  0.00    -0.240 NA
HETATM   15  H5  UNL     1      26.657   2.448  50.599  1.00  0.00     0.160 HD
ENDROOT
BRANCH  11  16
HETATM   16  C11 UNL     1      23.293   3.125  48.623  1.00  0.00     0.027 C 
HETATM   17  C12 UNL     1      22.227   3.117  47.860  1.00  0.00     0.001 C 
BRANCH  17  18
HETATM   18  C13 UNL     1      21.982   3.499  46.451  1.00  0.00     0.195 C 
BRANCH  18  19
HETATM   19  O1  UNL     1      20.935   4.412  46.335  1.00  0.00    -0.385 OA
BRANCH  19  20
HETATM   20  C14 UNL     1      20.744   4.755  45.025  1.00  0.00     0.194 C 
BRANCH  20  21
HETATM   21  C15 UNL     1      20.084   3.717  44.194  1.00  0.00     0.193 C 
BRANCH  21  22
HETATM   22  O2  UNL     1      20.656   3.444  42.996  1.00  0.00    -0.394 OA
HETATM   23  C16 UNL     1      20.131   4.115  41.933  1.00  0.00     0.201 C 
ENDBRANCH  21  22
ENDBRANCH  20  21
ENDBRANCH  19  20
ENDBRANCH  18  19
ENDBRANCH  17  18
ENDBRANCH  11  16
TORSDOF 6
ENDMDL
MODEL 8
REMARK VINA RESULT:      -6.2      6.472      9.869
REMARK  6 active torsions:
REMARK  status: ('A' for Active; 'I' for Inactive)
REMARK    1  A    between atoms: C10_11  and  C11_12 
REMARK    2  A    between atoms: C12_13  and  C13_14 
REMARK    3  A    between atoms: C13_14  and  O1_15 
REMARK    4  A    between atoms: O1_15  and  C14_16 
REMARK    5  A    between atoms: C14_16  and  C15_17 
REMARK    6  A    between atoms: C15_17  and  O2_18 
ROOT
HETATM    1  C1  UNL     1      30.780   7.936  46.865  1.00  0.00     0.018 C 
HETATM    2  C2  UNL     1      29.688   7.560  47.217  1.00  0.00    -0.078 C 
HETATM    3  C3  UNL     1      28.390   7.088  47.635  1.00  0.00     0.019 A 
HETATM    4  C4  UNL     1      27.276   7.841  47.317  1.00  0.00     0.023 A 
HETATM    5  C5  UNL     1      26.007   7.443  47.688  1.00  0.00     0.035 A 
HETATM    6  C6  UNL     1      25.886   6.246  48.403  1.00  0.00     0.084 A 
HETATM    7  C7  UNL     1      27.010   5.478  48.731  1.00  0.00     0.058 A 
HETATM    8  C8  UNL     1      28.287   5.904  48.341  1.00  0.00     0.052 A 
HETATM    9  N1  UNL     1      27.161   4.243  49.438  1.00  0.00    -0.382 N 
HETATM   10  C9  UNL     1      26.245   3.170  49.835  1.00  0.00     0.179 C 
HETATM   11  C10 UNL     1      25.157   3.658  50.714  1.00  0.00     0.053 C 
HETATM   12  N2  UNL     1      24.213   4.520  50.553  1.00  0.00    -0.245 NA
HETATM   13  C17 UNL     1      23.773   5.383  49.511  1.00  0.00     0.234 C 
HETATM   14  N3  UNL     1      24.479   6.059  48.667  1.00  0.00    -0.240 NA
HETATM   15  H5  UNL     1      28.162   4.115  49.716  1.00  0.00     0.160 HD
ENDROOT
BRANCH  11  16
HETATM   16  C11 UNL     1      25.123   3.063  52.026  1.00  0.00     0.027 C 
HETATM   17  C12 UNL     1      25.975   2.334  52.705  1.00  0.00     0.001 C 
BRANCH  17  18
HETATM   18  C13 UNL     1      25.940   1.722  54.053  1.00  0.00     0.195 C 
BRANCH  18  19
HETATM   19  O1  UNL     1      26.085   0.337  53.997  1.00  0.00    -0.385 OA
BRANCH  19  20
HETATM   20  C14 UNL     1      27.013  -0.083  54.909  1.00  0.00     0.194 C 
BRANCH  20  21
HETATM   21  C15 UNL     1      28.377   0.468  54.716  1.00  0.00     0.193 C 
BRANCH  21  22
HETATM   22  O2  UNL     1      29.017   0.121  53.573  1.00  0.00    -0.394 OA
HETATM   23  C16 UNL     1      29.955  -0.858  53.704  1.00  0.00     0.201 C 
ENDBRANCH  21  22
ENDBRANCH  20  21
ENDBRANCH  19  20
ENDBRANCH  18  19
ENDBRANCH  17  18
ENDBRANCH  11  16
TORSDOF 6
ENDMDL
MODEL 9
REMARK VINA RESULT:      -6.2      1.550      2.214
REMARK  6 active torsions:
REMARK  status: ('A' for Active; 'I' for Inactive)
REMARK    1  A    between atoms: C10_11  and  C11_12 
REMARK    2  A    between atoms: C12_13  and  C13_14 
REMARK    3  A    between atoms: C13_14  and  O1_15 
REMARK    4  A    between atoms: O1_15  and  C14_16 
REMARK    5  A    between atoms: C14_16  and  C15_17 
REMARK    6  A    between atoms: C15_17  and  O2_18 
ROOT
HETATM    1  C1  UNL     1      17.048  -3.958  53.929  1.00  0.00     0.018 C 
HETATM    2  C2  UNL     1      17.468  -2.914  53.494  1.00  0.00    -0.078 C 
HETATM    3  C3  UNL     1      17.983  -1.662  52.992  1.00  0.00     0.019 A 
HETATM    4  C4  UNL     1      17.150  -0.853  52.244  1.00  0.00     0.023 A 
HETATM    5  C5  UNL     1      17.584   0.355  51.737  1.00  0.00     0.035 A 
HETATM    6  C6  UNL     1      18.904   0.735  52.006  1.00  0.00     0.084 A 
HETATM    7  C7  UNL     1      19.755  -0.079  52.762  1.00  0.00     0.058 A 
HETATM    8  C8  UNL     1      19.289  -1.301  53.266  1.00  0.00     0.052 A 
HETATM    9  N1  UNL     1      21.118   0.069  53.174  1.00  0.00    -0.382 N 
HETATM   10  C9  UNL     1      22.053   1.196  53.235  1.00  0.00     0.179 C 
HETATM   11  C10 UNL     1      22.281   1.808  51.905  1.00  0.00     0.053 C 
HETATM   12  N2  UNL     1      21.505   2.388  51.056  1.00  0.00    -0.245 NA
HETATM   13  C17 UNL     1      20.122   2.710  50.979  1.00  0.00     0.234 C 
HETATM   14  N3  UNL     1      19.106   2.017  51.373  1.00  0.00    -0.240 NA
HETATM   15  H5  UNL     1      21.492  -0.853  53.496  1.00  0.00     0.160 HD
ENDROOT
BRANCH  11  16
HETATM   16  C11 UNL     1      23.644   1.758  51.439  1.00  0.00     0.027 C 
HETATM   17  C12 UNL     1      24.784   1.473  52.021  1.00  0.00     0.001 C 
BRANCH  17  18
HETATM   18  C13 UNL     1      26.184   1.422  51.544  1.00  0.00     0.195 C 
BRANCH  18  19
HETATM   19  O1  UNL     1      27.093   1.466  52.600  1.00  0.00    -0.385 OA
BRANCH  19  20
HETATM   20  C14 UNL     1      27.161   0.250  53.222  1.00  0.00     0.194 C 
BRANCH  20  21
HETATM   21  C15 UNL     1      27.079   0.298  54.704  1.00  0.00     0.193 C 
BRANCH  21  22
HETATM   22  O2  UNL     1      26.301  -0.639  55.300  1.00  0.00    -0.394 OA
HETATM   23  C16 UNL     1      25.057  -0.790  54.765  1.00  0.00     0.201 C 
ENDBRANCH  21  22
ENDBRANCH  20  21
ENDBRANCH  19  20
ENDBRANCH  18  19
ENDBRANCH  17  18
ENDBRANCH  11  16
TORSDOF 6
ENDMDL
