MODEL 1
REMARK VINA RESULT:      -6.3      0.000      0.000
REMARK  10 active torsions:
REMARK  status: ('A' for Active; 'I' for Inactive)
REMARK    1  A    between atoms: O1_1  and  C1_2 
REMARK    2  A    between atoms: C1_2  and  C2_3 
REMARK    3  A    between atoms: C2_3  and  C3_4 
REMARK    4  A    between atoms: C3_4  and  N1_5 
REMARK    5  A    between atoms: N1_5  and  C4_6 
REMARK    6  A    between atoms: C4_6  and  C5_7 
REMARK    7  A    between atoms: C5_7  and  C6_8 
REMARK    8  A    between atoms: C6_8  and  C7_10 
REMARK    9  A    between atoms: C10_14  and  N3_15 
REMARK   10  A    between atoms: N3_15  and  C11_16 
ROOT
HETATM    1  C7  UNL     1      23.385   0.842  52.641  1.00  0.00     0.098 A 
HETATM    2  C8  UNL     1      22.257   0.822  51.857  1.00  0.00     0.149 A 
HETATM    3  N2  UNL     1      21.890   1.769  50.976  1.00  0.00    -0.267 NA
HETATM    4  C9  UNL     1      22.675   2.857  50.818  1.00  0.00     0.166 A 
HETATM    5  C10 UNL     1      23.813   2.914  51.585  1.00  0.00     0.146 A 
HETATM    6  N4  UNL     1      24.126   1.938  52.447  1.00  0.00    -0.227 NA
ENDROOT
BRANCH   1   7
HETATM    7  C6  UNL     1      23.719  -0.236  53.584  1.00  0.00     0.062 C 
HETATM    8 CL1  UNL     1      22.250  -1.047  54.179  1.00  0.00    -0.082 Cl
BRANCH   7   9
HETATM    9  C5  UNL     1      24.993  -0.531  53.924  1.00  0.00     0.029 C 
BRANCH   9  10
HETATM   10  C4  UNL     1      26.425  -0.828  53.887  1.00  0.00     0.298 C 
BRANCH  10  11
HETATM   11  N1  UNL     1      27.221  -0.131  54.876  1.00  0.00     0.086 N 
HETATM   12  H8  UNL     1      26.732   0.662  55.334  1.00  0.00     0.316 HD
BRANCH  11  13
HETATM   13  C3  UNL     1      28.539   0.196  54.383  1.00  0.00     0.272 C 
BRANCH  13  14
HETATM   14  C2  UNL     1      28.334   1.013  53.109  1.00  0.00     0.056 C 
BRANCH  14  15
HETATM   15  C1  UNL     1      28.131   2.454  53.567  1.00  0.00     0.165 C 
BRANCH  15  16
HETATM   16  O1  UNL     1      26.787   2.713  53.793  1.00  0.00    -0.401 OA
HETATM   17  H1  UNL     1      26.196   2.295  53.129  1.00  0.00     0.209 HD
ENDBRANCH  15  16
ENDBRANCH  14  15
ENDBRANCH  13  14
ENDBRANCH  11  13
ENDBRANCH  10  11
ENDBRANCH   9  10
ENDBRANCH   7   9
ENDBRANCH   1   7
BRANCH   5  18
HETATM   18  N3  UNL     1      24.766   3.979  51.561  1.00  0.00    -0.340 N 
HETATM   19  H14 UNL     1      24.765   4.316  52.546  1.00  0.00     0.167 HD
BRANCH  18  20
HETATM   20  C11 UNL     1      25.557   4.522  50.539  1.00  0.00     0.033 A 
HETATM   21  C12 UNL     1      25.346   5.817  50.166  1.00  0.00     0.029 A 
HETATM   22  C13 UNL     1      26.122   6.344  49.166  1.00  0.00     0.002 A 
HETATM   23  C14 UNL     1      27.101   5.612  48.533  1.00  0.00     0.000 A 
HETATM   24  C15 UNL     1      27.282   4.295  48.946  1.00  0.00     0.002 A 
HETATM   25  C16 UNL     1      26.523   3.715  49.954  1.00  0.00     0.029 A 
ENDBRANCH  18  20
ENDBRANCH   5  18
TORSDOF 10
ENDMDL
MODEL 2
REMARK VINA RESULT:      -6.2      1.987      5.605
REMARK  10 active torsions:
REMARK  status: ('A' for Active; 'I' for Inactive)
REMARK    1  A    between atoms: O1_1  and  C1_2 
REMARK    2  A    between atoms: C1_2  and  C2_3 
REMARK    3  A    between atoms: C2_3  and  C3_4 
REMARK    4  A    between atoms: C3_4  and  N1_5 
REMARK    5  A    between atoms: N1_5  and  C4_6 
REMARK    6  A    between atoms: C4_6  and  C5_7 
REMARK    7  A    between atoms: C5_7  and  C6_8 
REMARK    8  A    between atoms: C6_8  and  C7_10 
REMARK    9  A    between atoms: C10_14  and  N3_15 
REMARK   10  A    between atoms: N3_15  and  C11_16 
ROOT
HETATM    1  C7  UNL     1      23.058   2.573  51.782  1.00  0.00     0.098 A 
HETATM    2  C8  UNL     1      22.362   1.799  52.679  1.00  0.00     0.149 A 
HETATM    3  N2  UNL     1      22.839   0.724  53.332  1.00  0.00    -0.267 NA
HETATM    4  C9  UNL     1      24.115   0.339  53.115  1.00  0.00     0.166 A 
HETATM    5  C10 UNL     1      24.844   1.088  52.224  1.00  0.00     0.146 A 
HETATM    6  N4  UNL     1      24.314   2.149  51.603  1.00  0.00    -0.227 NA
ENDROOT
BRANCH   1   7
HETATM    7  C6  UNL     1      22.466   3.737  51.106  1.00  0.00     0.062 C 
HETATM    8 CL1  UNL     1      20.943   3.300  50.293  1.00  0.00    -0.082 Cl
BRANCH   7   9
HETATM    9  C5  UNL     1      23.043   4.958  51.126  1.00  0.00     0.029 C 
BRANCH   9  10
HETATM   10  C4  UNL     1      24.000   6.058  51.244  1.00  0.00     0.298 C 
BRANCH  10  11
HETATM   11  N1  UNL     1      25.335   5.763  50.764  1.00  0.00     0.086 N 
HETATM   12  H8  UNL     1      26.083   6.327  51.209  1.00  0.00     0.316 HD
BRANCH  11  13
HETATM   13  C3  UNL     1      25.401   5.730  49.321  1.00  0.00     0.272 C 
BRANCH  13  14
HETATM   14  C2  UNL     1      26.736   5.078  48.964  1.00  0.00     0.056 C 
BRANCH  14  15
HETATM   15  C1  UNL     1      26.634   3.633  49.445  1.00  0.00     0.165 C 
BRANCH  15  16
HETATM   16  O1  UNL     1      27.128   3.509  50.735  1.00  0.00    -0.401 OA
HETATM   17  H1  UNL     1      27.376   2.587  50.968  1.00  0.00     0.209 HD
ENDBRANCH  15  16
ENDBRANCH  14  15
ENDBRANCH  13  14
ENDBRANCH  11  13
ENDBRANCH  10  11
ENDBRANCH   9  10
ENDBRANCH   7   9
ENDBRANCH   1   7
BRANCH   5  18
HETATM   18  N3  UNL     1      26.205   0.838  51.864  1.00  0.00    -0.340 N 
HETATM   19  H14 UNL     1      26.225   1.070  50.849  1.00  0.00     0.167 HD
BRANCH  18  20
HETATM   20  C11 UNL     1      27.315   0.394  52.596  1.00  0.00     0.033 A 
HETATM   21  C12 UNL     1      27.553  -0.946  52.675  1.00  0.00     0.029 A 
HETATM   22  C13 UNL     1      28.639  -1.376  53.392  1.00  0.00     0.002 A 
HETATM   23  C14 UNL     1      29.491  -0.502  54.030  1.00  0.00     0.000 A 
HETATM   24  C15 UNL     1      29.210   0.858  53.921  1.00  0.00     0.002 A 
HETATM   25  C16 UNL     1      28.124   1.344  53.207  1.00  0.00     0.029 A 
ENDBRANCH  18  20
ENDBRANCH   5  18
TORSDOF 10
ENDMDL
MODEL 3
REMARK VINA RESULT:      -6.2      3.401      6.430
REMARK  10 active torsions:
REMARK  status: ('A' for Active; 'I' for Inactive)
REMARK    1  A    between atoms: O1_1  and  C1_2 
REMARK    2  A    between atoms: C1_2  and  C2_3 
REMARK    3  A    between atoms: C2_3  and  C3_4 
REMARK    4  A    between atoms: C3_4  and  N1_5 
REMARK    5  A    between atoms: N1_5  and  C4_6 
REMARK    6  A    between atoms: C4_6  and  C5_7 
REMARK    7  A    between atoms: C5_7  and  C6_8 
REMARK    8  A    between atoms: C6_8  and  C7_10 
REMARK    9  A    between atoms: C10_14  and  N3_15 
REMARK   10  A    between atoms: N3_15  and  C11_16 
ROOT
HETATM    1  C7  UNL     1      25.302   4.176  49.781  1.00  0.00     0.098 A 
HETATM    2  C8  UNL     1      24.126   3.569  49.412  1.00  0.00     0.149 A 
HETATM    3  N2  UNL     1      23.490   2.600  50.092  1.00  0.00    -0.267 NA
HETATM    4  C9  UNL     1      24.023   2.155  51.251  1.00  0.00     0.166 A 
HETATM    5  C10 UNL     1      25.200   2.737  51.654  1.00  0.00     0.146 A 
HETATM    6  N4  UNL     1      25.788   3.700  50.932  1.00  0.00    -0.227 NA
ENDROOT
BRANCH   1   7
HETATM    7  C6  UNL     1      25.939   5.234  48.981  1.00  0.00     0.062 C 
HETATM    8 CL1  UNL     1      24.787   6.539  48.608  1.00  0.00    -0.082 Cl
BRANCH   7   9
HETATM    9  C5  UNL     1      27.234   5.174  48.601  1.00  0.00     0.029 C 
BRANCH   9  10
HETATM   10  C4  UNL     1      28.649   5.472  48.380  1.00  0.00     0.298 C 
BRANCH  10  11
HETATM   11  N1  UNL     1      29.108   6.721  48.952  1.00  0.00     0.086 N 
HETATM   12  H8  UNL     1      28.390   7.470  48.971  1.00  0.00     0.316 HD
BRANCH  11  13
HETATM   13  C3  UNL     1      30.379   7.137  48.405  1.00  0.00     0.272 C 
BRANCH  13  14
HETATM   14  C2  UNL     1      31.232   5.875  48.285  1.00  0.00     0.056 C 
BRANCH  14  15
HETATM   15  C1  UNL     1      32.140   5.870  49.512  1.00  0.00     0.165 C 
BRANCH  15  16
HETATM   16  O1  UNL     1      31.440   5.467  50.640  1.00  0.00    -0.401 OA
HETATM   17  H1  UNL     1      31.915   5.656  51.478  1.00  0.00     0.209 HD
ENDBRANCH  15  16
ENDBRANCH  14  15
ENDBRANCH  13  14
ENDBRANCH  11  13
ENDBRANCH  10  11
ENDBRANCH   9  10
ENDBRANCH   7   9
ENDBRANCH   1   7
BRANCH   5  18
HETATM   18  N3  UNL     1      25.915   2.401  52.845  1.00  0.00    -0.340 N 
HETATM   19  H14 UNL     1      25.439   2.975  53.573  1.00  0.00     0.167 HD
BRANCH  18  20
HETATM   20  C11 UNL     1      26.992   1.541  53.096  1.00  0.00     0.033 A 
HETATM   21  C12 UNL     1      26.837   0.209  52.851  1.00  0.00     0.029 A 
HETATM   22  C13 UNL     1      27.892  -0.630  53.098  1.00  0.00     0.002 A 
HETATM   23  C14 UNL     1      29.097  -0.171  53.583  1.00  0.00     0.000 A 
HETATM   24  C15 UNL     1      29.211   1.196  53.819  1.00  0.00     0.002 A 
HETATM   25  C16 UNL     1      28.172   2.087  53.584  1.00  0.00     0.029 A 
ENDBRANCH  18  20
ENDBRANCH   5  18
TORSDOF 10
ENDMDL
MODEL 4
REMARK VINA RESULT:      -6.2      2.497      5.634
REMARK  10 active torsions:
REMARK  status: ('A' for Active; 'I' for Inactive)
REMARK    1  A    between atoms: O1_1  and  C1_2 
REMARK    2  A    between atoms: C1_2  and  C2_3 
REMARK    3  A    between atoms: C2_3  and  C3_4 
REMARK    4  A    between atoms: C3_4  and  N1_5 
REMARK    5  A    between atoms: N1_5  and  C4_6 
REMARK    6  A    between atoms: C4_6  and  C5_7 
REMARK    7  A    between atoms: C5_7  and  C6_8 
REMARK    8  A    between atoms: C6_8  and  C7_10 
REMARK    9  A    between atoms: C10_14  and  N3_15 
REMARK   10  A    between atoms: N3_15  and  C11_16 
ROOT
HETATM    1  C7  UNL     1      21.459  -0.377  53.548  1.00  0.00     0.098 A 
HETATM    2  C8  UNL     1      21.415  -1.256  54.602  1.00  0.00     0.149 A 
HETATM    3  N2  UNL     1      22.467  -1.671  55.329  1.00  0.00    -0.267 NA
HETATM    4  C9  UNL     1      23.698  -1.203  55.026  1.00  0.00     0.166 A 
HETATM    5  C10 UNL     1      23.783  -0.321  53.977  1.00  0.00     0.146 A 
HETATM    6  N4  UNL     1      22.698   0.055  53.289  1.00  0.00    -0.227 NA
ENDROOT
BRANCH   1   7
HETATM    7  C6  UNL     1      20.260   0.031  52.799  1.00  0.00     0.062 C 
HETATM    8 CL1  UNL     1      18.856  -0.971  53.240  1.00  0.00    -0.082 Cl
BRANCH   7   9
HETATM    9  C5  UNL     1      20.275   1.040  51.902  1.00  0.00     0.029 C 
BRANCH   9  10
HETATM   10  C4  UNL     1      20.665   2.193  51.089  1.00  0.00     0.298 C 
BRANCH  10  11
HETATM   11  N1  UNL     1      22.008   2.681  51.324  1.00  0.00     0.086 N 
HETATM   12  H8  UNL     1      22.070   3.707  51.468  1.00  0.00     0.316 HD
BRANCH  11  13
HETATM   13  C3  UNL     1      22.952   2.164  50.360  1.00  0.00     0.272 C 
BRANCH  13  14
HETATM   14  C2  UNL     1      24.343   2.510  50.890  1.00  0.00     0.056 C 
BRANCH  14  15
HETATM   15  C1  UNL     1      24.134   3.629  51.906  1.00  0.00     0.165 C 
BRANCH  15  16
HETATM   16  O1  UNL     1      24.622   3.259  53.151  1.00  0.00    -0.401 OA
HETATM   17  H1  UNL     1      24.058   2.598  53.608  1.00  0.00     0.209 HD
ENDBRANCH  15  16
ENDBRANCH  14  15
ENDBRANCH  13  14
ENDBRANCH  11  13
ENDBRANCH  10  11
ENDBRANCH   9  10
ENDBRANCH   7   9
ENDBRANCH   1   7
BRANCH   5  18
HETATM   18  N3  UNL     1      24.992   0.280  53.507  1.00  0.00    -0.340 N 
HETATM   19  H14 UNL     1      24.653   1.129  53.009  1.00  0.00     0.167 HD
BRANCH  18  20
HETATM   20  C11 UNL     1      26.341  -0.084  53.623  1.00  0.00     0.033 A 
HETATM   21  C12 UNL     1      26.807  -1.118  52.867  1.00  0.00     0.029 A 
HETATM   22  C13 UNL     1      28.127  -1.470  52.983  1.00  0.00     0.002 A 
HETATM   23  C14 UNL     1      28.989  -0.817  53.835  1.00  0.00     0.000 A 
HETATM   24  C15 UNL     1      28.470   0.233  54.588  1.00  0.00     0.002 A 
HETATM   25  C16 UNL     1      27.142   0.629  54.506  1.00  0.00     0.029 A 
ENDBRANCH  18  20
ENDBRANCH   5  18
TORSDOF 10
ENDMDL
MODEL 5
REMARK VINA RESULT:      -6.1      2.173      5.730
REMARK  10 active torsions:
REMARK  status: ('A' for Active; 'I' for Inactive)
REMARK    1  A    between atoms: O1_1  and  C1_2 
REMARK    2  A    between atoms: C1_2  and  C2_3 
REMARK    3  A    between atoms: C2_3  and  C3_4 
REMARK    4  A    between atoms: C3_4  and  N1_5 
REMARK    5  A    between atoms: N1_5  and  C4_6 
REMARK    6  A    between atoms: C4_6  and  C5_7 
REMARK    7  A    between atoms: C5_7  and  C6_8 
REMARK    8  A    between atoms: C6_8  and  C7_10 
REMARK    9  A    between atoms: C10_14  and  N3_15 
REMARK   10  A    between atoms: N3_15  and  C11_16 
ROOT
HETATM    1  C7  UNL     1      22.945   1.127  51.655  1.00  0.00     0.098 A 
HETATM    2  C8  UNL     1      21.726   0.512  51.807  1.00  0.00     0.149 A 
HETATM    3  N2  UNL     1      21.418  -0.413  52.733  1.00  0.00    -0.267 NA
HETATM    4  C9  UNL     1      22.366  -0.800  53.613  1.00  0.00     0.166 A 
HETATM    5  C10 UNL     1      23.600  -0.208  53.493  1.00  0.00     0.146 A 
HETATM    6  N4  UNL     1      23.848   0.708  52.548  1.00  0.00    -0.227 NA
ENDROOT
BRANCH   1   7
HETATM    7  C6  UNL     1      23.206   2.134  50.614  1.00  0.00     0.062 C 
HETATM    8 CL1  UNL     1      22.293   1.773  49.129  1.00  0.00    -0.082 Cl
BRANCH   7   9
HETATM    9  C5  UNL     1      24.042   3.177  50.809  1.00  0.00     0.029 C 
BRANCH   9  10
HETATM   10  C4  UNL     1      24.688   4.488  50.760  1.00  0.00     0.298 C 
BRANCH  10  11
HETATM   11  N1  UNL     1      26.124   4.456  50.571  1.00  0.00     0.086 N 
HETATM   12  H8  UNL     1      26.637   5.209  51.068  1.00  0.00     0.316 HD
BRANCH  11  13
HETATM   13  C3  UNL     1      26.488   4.313  49.180  1.00  0.00     0.272 C 
BRANCH  13  14
HETATM   14  C2  UNL     1      26.577   5.727  48.609  1.00  0.00     0.056 C 
BRANCH  14  15
HETATM   15  C1  UNL     1      28.062   5.983  48.363  1.00  0.00     0.165 C 
BRANCH  15  16
HETATM   16  O1  UNL     1      28.841   5.170  49.172  1.00  0.00    -0.401 OA
HETATM   17  H1  UNL     1      28.509   4.248  49.230  1.00  0.00     0.209 HD
ENDBRANCH  15  16
ENDBRANCH  14  15
ENDBRANCH  13  14
ENDBRANCH  11  13
ENDBRANCH  10  11
ENDBRANCH   9  10
ENDBRANCH   7   9
ENDBRANCH   1   7
BRANCH   5  18
HETATM   18  N3  UNL     1      24.727  -0.486  54.327  1.00  0.00    -0.340 N 
HETATM   19  H14 UNL     1      24.292  -0.665  55.256  1.00  0.00     0.167 HD
BRANCH  18  20
HETATM   20  C11 UNL     1      26.105  -0.534  54.076  1.00  0.00     0.033 A 
HETATM   21  C12 UNL     1      26.562  -1.350  53.083  1.00  0.00     0.029 A 
HETATM   22  C13 UNL     1      27.910  -1.395  52.842  1.00  0.00     0.002 A 
HETATM   23  C14 UNL     1      28.812  -0.647  53.566  1.00  0.00     0.000 A 
HETATM   24  C15 UNL     1      28.301   0.172  54.570  1.00  0.00     0.002 A 
HETATM   25  C16 UNL     1      26.945   0.254  54.853  1.00  0.00     0.029 A 
ENDBRANCH  18  20
ENDBRANCH   5  18
TORSDOF 10
ENDMDL
MODEL 6
REMARK VINA RESULT:      -6.1      2.740      6.319
REMARK  10 active torsions:
REMARK  status: ('A' for Active; 'I' for Inactive)
REMARK    1  A    between atoms: O1_1  and  C1_2 
REMARK    2  A    between atoms: C1_2  and  C2_3 
REMARK    3  A    between atoms: C2_3  and  C3_4 
REMARK    4  A    between atoms: C3_4  and  N1_5 
REMARK    5  A    between atoms: N1_5  and  C4_6 
REMARK    6  A    between atoms: C4_6  and  C5_7 
REMARK    7  A    between atoms: C5_7  and  C6_8 
REMARK    8  A    between atoms: C6_8  and  C7_10 
REMARK    9  A    between atoms: C10_14  and  N3_15 
REMARK   10  A    between atoms: N3_15  and  C11_16 
ROOT
HETATM    1  C7  UNL     1      23.965   2.626  51.800  1.00  0.00     0.098 A 
HETATM    2  C8  UNL     1      22.612   2.602  52.034  1.00  0.00     0.149 A 
HETATM    3  N2  UNL     1      21.945   1.655  52.718  1.00  0.00    -0.267 NA
HETATM    4  C9  UNL     1      22.634   0.617  53.239  1.00  0.00     0.166 A 
HETATM    5  C10 UNL     1      23.991   0.605  53.027  1.00  0.00     0.146 A 
HETATM    6  N4  UNL     1      24.599   1.578  52.336  1.00  0.00    -0.227 NA
ENDROOT
BRANCH   1   7
HETATM    7  C6  UNL     1      24.624   3.700  51.040  1.00  0.00     0.062 C 
HETATM    8 CL1  UNL     1      26.124   3.119  50.278  1.00  0.00    -0.082 Cl
BRANCH   7   9
HETATM    9  C5  UNL     1      24.116   4.949  50.964  1.00  0.00     0.029 C 
BRANCH   9  10
HETATM   10  C4  UNL     1      23.863   6.378  51.152  1.00  0.00     0.298 C 
BRANCH  10  11
HETATM   11  N1  UNL     1      25.050   7.194  51.308  1.00  0.00     0.086 N 
HETATM   12  H8  UNL     1      25.149   7.628  52.246  1.00  0.00     0.316 HD
BRANCH  11  13
HETATM   13  C3  UNL     1      25.225   8.117  50.210  1.00  0.00     0.272 C 
BRANCH  13  14
HETATM   14  C2  UNL     1      26.622   7.860  49.649  1.00  0.00     0.056 C 
BRANCH  14  15
HETATM   15  C1  UNL     1      27.413   9.142  49.899  1.00  0.00     0.165 C 
BRANCH  15  16
HETATM   16  O1  UNL     1      27.509   9.402  51.258  1.00  0.00    -0.401 OA
HETATM   17  H1  UNL     1      28.089  10.167  51.466  1.00  0.00     0.209 HD
ENDBRANCH  15  16
ENDBRANCH  14  15
ENDBRANCH  13  14
ENDBRANCH  11  13
ENDBRANCH  10  11
ENDBRANCH   9  10
ENDBRANCH   7   9
ENDBRANCH   1   7
BRANCH   5  18
HETATM   18  N3  UNL     1      24.886  -0.405  53.497  1.00  0.00    -0.340 N 
HETATM   19  H14 UNL     1      24.255  -1.216  53.666  1.00  0.00     0.167 HD
BRANCH  18  20
HETATM   20  C11 UNL     1      26.270  -0.420  53.717  1.00  0.00     0.033 A 
HETATM   21  C12 UNL     1      26.777   0.314  54.748  1.00  0.00     0.029 A 
HETATM   22  C13 UNL     1      28.131   0.297  54.960  1.00  0.00     0.002 A 
HETATM   23  C14 UNL     1      28.989  -0.434  54.169  1.00  0.00     0.000 A 
HETATM   24  C15 UNL     1      28.428  -1.169  53.128  1.00  0.00     0.002 A 
HETATM   25  C16 UNL     1      27.063  -1.185  52.873  1.00  0.00     0.029 A 
ENDBRANCH  18  20
ENDBRANCH   5  18
TORSDOF 10
ENDMDL
MODEL 7
REMARK VINA RESULT:      -6.0      1.428      2.149
REMARK  10 active torsions:
REMARK  status: ('A' for Active; 'I' for Inactive)
REMARK    1  A    between atoms: O1_1  and  C1_2 
REMARK    2  A    between atoms: C1_2  and  C2_3 
REMARK    3  A    between atoms: C2_3  and  C3_4 
REMARK    4  A    between atoms: C3_4  and  N1_5 
REMARK    5  A    between atoms: N1_5  and  C4_6 
REMARK    6  A    between atoms: C4_6  and  C5_7 
REMARK    7  A    between atoms: C5_7  and  C6_8 
REMARK    8  A    between atoms: C6_8  and  C7_10 
REMARK    9  A    between atoms: C10_14  and  N3_15 
REMARK   10  A    between atoms: N3_15  and  C11_16 
ROOT
HETATM    1  C7  UNL     1      23.989   2.404  52.268  1.00  0.00     0.098 A 
HETATM    2  C8  UNL     1      23.511   3.453  53.014  1.00  0.00     0.149 A 
HETATM    3  N2  UNL     1      23.531   4.750  52.657  1.00  0.00    -0.267 NA
HETATM    4  C9  UNL     1      24.060   5.092  51.463  1.00  0.00     0.166 A 
HETATM    5  C10 UNL     1      24.549   4.070  50.687  1.00  0.00     0.146 A 
HETATM    6  N4  UNL     1      24.502   2.796  51.097  1.00  0.00    -0.227 NA
ENDROOT
BRANCH   1   7
HETATM    7  C6  UNL     1      23.932   1.007  52.728  1.00  0.00     0.062 C 
HETATM    8 CL1  UNL     1      22.401   0.236  52.249  1.00  0.00    -0.082 Cl
BRANCH   7   9
HETATM    9  C5  UNL     1      24.937   0.432  53.422  1.00  0.00     0.029 C 
BRANCH   9  10
HETATM   10  C4  UNL     1      25.713  -0.360  54.376  1.00  0.00     0.298 C 
BRANCH  10  11
HETATM   11  N1  UNL     1      27.046  -0.716  53.935  1.00  0.00     0.086 N 
HETATM   12  H8  UNL     1      27.736  -0.819  54.704  1.00  0.00     0.316 HD
BRANCH  11  13
HETATM   13  C3  UNL     1      27.499   0.114  52.843  1.00  0.00     0.272 C 
BRANCH  13  14
HETATM   14  C2  UNL     1      28.665   0.941  53.384  1.00  0.00     0.056 C 
BRANCH  14  15
HETATM   15  C1  UNL     1      28.174   2.386  53.408  1.00  0.00     0.165 C 
BRANCH  15  16
HETATM   16  O1  UNL     1      27.597   2.729  52.194  1.00  0.00    -0.401 OA
HETATM   17  H1  UNL     1      28.258   2.928  51.494  1.00  0.00     0.209 HD
ENDBRANCH  15  16
ENDBRANCH  14  15
ENDBRANCH  13  14
ENDBRANCH  11  13
ENDBRANCH  10  11
ENDBRANCH   9  10
ENDBRANCH   7   9
ENDBRANCH   1   7
BRANCH   5  18
HETATM   18  N3  UNL     1      25.145   4.232  49.398  1.00  0.00    -0.340 N 
HETATM   19  H14 UNL     1      24.596   3.577  48.803  1.00  0.00     0.167 HD
BRANCH  18  20
HETATM   20  C11 UNL     1      26.197   5.032  48.931  1.00  0.00     0.033 A 
HETATM   21  C12 UNL     1      27.446   4.490  48.854  1.00  0.00     0.029 A 
HETATM   22  C13 UNL     1      28.473   5.275  48.398  1.00  0.00     0.002 A 
HETATM   23  C14 UNL     1      28.283   6.585  48.018  1.00  0.00     0.000 A 
HETATM   24  C15 UNL     1      26.991   7.097  48.113  1.00  0.00     0.002 A 
HETATM   25  C16 UNL     1      25.918   6.342  48.568  1.00  0.00     0.029 A 
ENDBRANCH  18  20
ENDBRANCH   5  18
TORSDOF 10
ENDMDL
MODEL 8
REMARK VINA RESULT:      -5.9      2.619      6.016
REMARK  10 active torsions:
REMARK  status: ('A' for Active; 'I' for Inactive)
REMARK    1  A    between atoms: O1_1  and  C1_2 
REMARK    2  A    between atoms: C1_2  and  C2_3 
REMARK    3  A    between atoms: C2_3  and  C3_4 
REMARK    4  A    between atoms: C3_4  and  N1_5 
REMARK    5  A    between atoms: N1_5  and  C4_6 
REMARK    6  A    between atoms: C4_6  and  C5_7 
REMARK    7  A    between atoms: C5_7  and  C6_8 
REMARK    8  A    between atoms: C6_8  and  C7_10 
REMARK    9  A    between atoms: C10_14  and  N3_15 
REMARK   10  A    between atoms: N3_15  and  C11_16 
ROOT
HETATM    1  C7  UNL     1      24.074   3.152  51.512  1.00  0.00     0.098 A 
HETATM    2  C8  UNL     1      24.967   3.680  50.611  1.00  0.00     0.149 A 
HETATM    3  N2  UNL     1      26.267   3.355  50.504  1.00  0.00    -0.267 NA
HETATM    4  C9  UNL     1      26.781   2.427  51.340  1.00  0.00     0.166 A 
HETATM    5  C10 UNL     1      25.920   1.875  52.257  1.00  0.00     0.146 A 
HETATM    6  N4  UNL     1      24.633   2.241  52.316  1.00  0.00    -0.227 NA
ENDROOT
BRANCH   1   7
HETATM    7  C6  UNL     1      22.662   3.561  51.569  1.00  0.00     0.062 C 
HETATM    8 CL1  UNL     1      22.375   5.014  50.582  1.00  0.00    -0.082 Cl
BRANCH   7   9
HETATM    9  C5  UNL     1      21.743   2.887  52.293  1.00  0.00     0.029 C 
BRANCH   9  10
HETATM   10  C4  UNL     1      20.599   2.073  52.705  1.00  0.00     0.298 C 
BRANCH  10  11
HETATM   11  N1  UNL     1      20.889   0.668  52.907  1.00  0.00     0.086 N 
HETATM   12  H8  UNL     1      20.442   0.037  52.214  1.00  0.00     0.316 HD
BRANCH  11  13
HETATM   13  C3  UNL     1      20.700   0.264  54.281  1.00  0.00     0.272 C 
BRANCH  13  14
HETATM   14  C2  UNL     1      21.409  -1.081  54.437  1.00  0.00     0.056 C 
BRANCH  14  15
HETATM   15  C1  UNL     1      22.578  -1.050  53.456  1.00  0.00     0.165 C 
BRANCH  15  16
HETATM   16  O1  UNL     1      23.564  -0.177  53.894  1.00  0.00    -0.401 OA
HETATM   17  H1  UNL     1      24.205  -0.595  54.510  1.00  0.00     0.209 HD
ENDBRANCH  15  16
ENDBRANCH  14  15
ENDBRANCH  13  14
ENDBRANCH  11  13
ENDBRANCH  10  11
ENDBRANCH   9  10
ENDBRANCH   7   9
ENDBRANCH   1   7
BRANCH   5  18
HETATM   18  N3  UNL     1      26.276   0.883  53.222  1.00  0.00    -0.340 N 
HETATM   19  H14 UNL     1      25.669   1.120  54.035  1.00  0.00     0.167 HD
BRANCH  18  20
HETATM   20  C11 UNL     1      27.188  -0.181  53.199  1.00  0.00     0.033 A 
HETATM   21  C12 UNL     1      28.453   0.031  53.662  1.00  0.00     0.029 A 
HETATM   22  C13 UNL     1      29.342  -1.012  53.637  1.00  0.00     0.002 A 
HETATM   23  C14 UNL     1      28.999  -2.258  53.162  1.00  0.00     0.000 A 
HETATM   24  C15 UNL     1      27.696  -2.429  52.700  1.00  0.00     0.002 A 
HETATM   25  C16 UNL     1      26.759  -1.406  52.705  1.00  0.00     0.029 A 
ENDBRANCH  18  20
ENDBRANCH   5  18
TORSDOF 10
ENDMDL
MODEL 9
REMARK VINA RESULT:      -5.7      3.305      7.067
REMARK  10 active torsions:
REMARK  status: ('A' for Active; 'I' for Inactive)
REMARK    1  A    between atoms: O1_1  and  C1_2 
REMARK    2  A    between atoms: C1_2  and  C2_3 
REMARK    3  A    between atoms: C2_3  and  C3_4 
REMARK    4  A    between atoms: C3_4  and  N1_5 
REMARK    5  A    between atoms: N1_5  and  C4_6 
REMARK    6  A    between atoms: C4_6  and  C5_7 
REMARK    7  A    between atoms: C5_7  and  C6_8 
REMARK    8  A    between atoms: C6_8  and  C7_10 
REMARK    9  A    between atoms: C10_14  and  N3_15 
REMARK   10  A    between atoms: N3_15  and  C11_16 
ROOT
HETATM    1  C7  UNL     1      24.472   4.146  50.712  1.00  0.00     0.098 A 
HETATM    2  C8  UNL     1      23.844   5.325  51.033  1.00  0.00     0.149 A 
HETATM    3  N2  UNL     1      22.622   5.446  51.580  1.00  0.00    -0.267 NA
HETATM    4  C9  UNL     1      21.914   4.330  51.855  1.00  0.00     0.166 A 
HETATM    5  C10 UNL     1      22.508   3.129  51.549  1.00  0.00     0.146 A 
HETATM    6  N4  UNL     1      23.729   3.072  51.003  1.00  0.00    -0.227 NA
ENDROOT
BRANCH   1   7
HETATM    7  C6  UNL     1      25.815   4.094  50.114  1.00  0.00     0.062 C 
HETATM    8 CL1  UNL     1      26.590   2.520  50.413  1.00  0.00    -0.082 Cl
BRANCH   7   9
HETATM    9  C5  UNL     1      26.346   5.135  49.437  1.00  0.00     0.029 C 
BRANCH   9  10
HETATM   10  C4  UNL     1      27.159   5.966  48.549  1.00  0.00     0.298 C 
BRANCH  10  11
HETATM   11  N1  UNL     1      27.392   7.317  49.020  1.00  0.00     0.086 N 
HETATM   12  H8  UNL     1      27.236   7.447  50.037  1.00  0.00     0.316 HD
BRANCH  11  13
HETATM   13  C3  UNL     1      26.738   8.303  48.192  1.00  0.00     0.272 C 
BRANCH  13  14
HETATM   14  C2  UNL     1      26.880   9.640  48.918  1.00  0.00     0.056 C 
BRANCH  14  15
HETATM   15  C1  UNL     1      28.066   9.474  49.864  1.00  0.00     0.165 C 
BRANCH  15  16
HETATM   16  O1  UNL     1      27.652   9.536  51.186  1.00  0.00    -0.401 OA
HETATM   17  H1  UNL     1      27.863  10.393  51.619  1.00  0.00     0.209 HD
ENDBRANCH  15  16
ENDBRANCH  14  15
ENDBRANCH  13  14
ENDBRANCH  11  13
ENDBRANCH  10  11
ENDBRANCH   9  10
ENDBRANCH   7   9
ENDBRANCH   1   7
BRANCH   5  18
HETATM   18  N3  UNL     1      21.919   1.845  51.764  1.00  0.00    -0.340 N 
HETATM   19  H14 UNL     1      21.321   1.717  50.921  1.00  0.00     0.167 HD
BRANCH  18  20
HETATM   20  C11 UNL     1      22.037   0.908  52.800  1.00  0.00     0.033 A 
HETATM   21  C12 UNL     1      23.202   0.211  52.922  1.00  0.00     0.029 A 
HETATM   22  C13 UNL     1      23.313  -0.706  53.935  1.00  0.00     0.002 A 
HETATM   23  C14 UNL     1      22.291  -0.942  54.827  1.00  0.00     0.000 A 
HETATM   24  C15 UNL     1      21.120  -0.207  54.665  1.00  0.00     0.002 A 
HETATM   25  C16 UNL     1      20.958   0.733  53.656  1.00  0.00     0.029 A 
ENDBRANCH  18  20
ENDBRANCH   5  18
TORSDOF 10
ENDMDL
