MODEL 1
REMARK VINA RESULT:      -8.5      0.000      0.000
REMARK  8 active torsions:
REMARK  status: ('A' for Active; 'I' for Inactive)
REMARK    1  A    between atoms: C5_5  and  O1_6 
REMARK    2  A    between atoms: O1_6  and  C6_7 
REMARK    3  A    between atoms: C15_19  and  C16_20 
REMARK    4  A    between atoms: C16_20  and  C17_21 
REMARK    5  A    between atoms: C17_21  and  C18_22 
REMARK    6  A    between atoms: C18_22  and  C19_23 
REMARK    7  A    between atoms: C19_23  and  C20_24 
REMARK    8  A    between atoms: C20_24  and  C21_25 
ROOT
HETATM    1  C6  UNL     1      23.528   2.715  50.900  1.00  0.00     0.084 C 
HETATM    2  C7  UNL     1      22.662   1.888  50.219  1.00  0.00     0.016 C 
HETATM    3  C8  UNL     1      21.725   1.433  49.141  1.00  0.00     0.095 C 
HETATM    4  C9  UNL     1      21.358   2.151  48.038  1.00  0.00     0.072 C 
HETATM    5  N1  UNL     1      21.292   3.272  47.088  1.00  0.00    -0.373 N 
HETATM    6  C10 UNL     1      21.927   4.519  47.296  1.00  0.00     0.137 A 
HETATM    7  N2  UNL     1      22.030   5.254  46.204  1.00  0.00    -0.224 NA
HETATM    8  C11 UNL     1      22.596   6.466  46.100  1.00  0.00     0.235 A 
HETATM    9  N3  UNL     1      23.123   6.999  47.235  1.00  0.00    -0.241 NA
HETATM   10  C12 UNL     1      23.053   6.297  48.397  1.00  0.00     0.073 A 
HETATM   11  C13 UNL     1      22.447   5.027  48.462  1.00  0.00     0.037 A 
HETATM   12  C14 UNL     1      22.434   4.432  49.677  1.00  0.00     0.031 C 
HETATM   13  C15 UNL     1      23.750   3.986  50.244  1.00  0.00     0.121 C 
HETATM   14  N4  UNL     1      24.196   5.098  51.050  1.00  0.00    -0.280 NA
HETATM   15  C22 UNL     1      24.175   6.332  50.577  1.00  0.00     0.114 C 
HETATM   16  C23 UNL     1      23.667   7.026  49.359  1.00  0.00     0.051 C 
HETATM   17  H10 UNL     1      20.732   3.055  46.249  1.00  0.00     0.161 HD
ENDROOT
BRANCH   1  18
HETATM   18  O1  UNL     1      24.153   2.440  52.071  1.00  0.00    -0.316 OA
BRANCH  18  19
HETATM   19  C5  UNL     1      24.938   1.379  52.416  1.00  0.00     0.059 C 
HETATM   20  C4  UNL     1      26.394   1.381  52.050  1.00  0.00     0.092 C 
HETATM   21  C3  UNL     1      26.973   0.010  52.045  1.00  0.00    -0.018 C 
HETATM   22  C2  UNL     1      26.537  -1.057  52.666  1.00  0.00    -0.083 C 
HETATM   23  C1  UNL     1      27.227  -2.362  52.565  1.00  0.00     0.043 C 
HETATM   24  C26 UNL     1      25.307  -0.874  53.476  1.00  0.00     0.069 C 
HETATM   25  C24 UNL     1      24.517   0.303  53.072  1.00  0.00    -0.050 C 
HETATM   26  C25 UNL     1      23.093   0.226  53.468  1.00  0.00     0.046 C 
ENDBRANCH  18  19
ENDBRANCH   1  18
BRANCH  13  27
HETATM   27  C16 UNL     1      24.781   3.733  49.134  1.00  0.00     0.063 C 
BRANCH  27  28
HETATM   28  C17 UNL     1      26.158   3.861  49.676  1.00  0.00     0.084 C 
BRANCH  28  29
HETATM   29  C18 UNL     1      27.082   4.505  49.021  1.00  0.00    -0.100 C 
BRANCH  29  30
HETATM   30  C19 UNL     1      28.000   5.273  48.530  1.00  0.00    -0.098 C 
BRANCH  30  31
HETATM   31  C20 UNL     1      28.917   6.034  47.979  1.00  0.00     0.111 C 
BRANCH  31  32
HETATM   32  C21 UNL     1      30.353   5.661  48.018  1.00  0.00     0.240 C 
HETATM   33  F1  UNL     1      30.533   4.383  47.486  1.00  0.00    -0.254 F 
ENDBRANCH  31  32
ENDBRANCH  30  31
ENDBRANCH  29  30
ENDBRANCH  28  29
ENDBRANCH  27  28
ENDBRANCH  13  27
TORSDOF 8
ENDMDL
MODEL 2
REMARK VINA RESULT:      -8.3      2.168      2.837
REMARK  8 active torsions:
REMARK  status: ('A' for Active; 'I' for Inactive)
REMARK    1  A    between atoms: C5_5  and  O1_6 
REMARK    2  A    between atoms: O1_6  and  C6_7 
REMARK    3  A    between atoms: C15_19  and  C16_20 
REMARK    4  A    between atoms: C16_20  and  C17_21 
REMARK    5  A    between atoms: C17_21  and  C18_22 
REMARK    6  A    between atoms: C18_22  and  C19_23 
REMARK    7  A    between atoms: C19_23  and  C20_24 
REMARK    8  A    between atoms: C20_24  and  C21_25 
ROOT
HETATM    1  C6  UNL     1      23.559   1.427  52.655  1.00  0.00     0.084 C 
HETATM    2  C7  UNL     1      22.600   0.496  52.318  1.00  0.00     0.016 C 
HETATM    3  C8  UNL     1      21.369  -0.067  51.675  1.00  0.00     0.095 C 
HETATM    4  C9  UNL     1      20.499   0.611  50.870  1.00  0.00     0.072 C 
HETATM    5  N1  UNL     1      19.913   1.729  50.115  1.00  0.00    -0.373 N 
HETATM    6  C10 UNL     1      20.418   3.050  50.144  1.00  0.00     0.137 A 
HETATM    7  N2  UNL     1      19.975   3.813  49.161  1.00  0.00    -0.224 NA
HETATM    8  C11 UNL     1      20.295   5.096  48.932  1.00  0.00     0.235 A 
HETATM    9  N3  UNL     1      21.169   5.677  49.797  1.00  0.00    -0.241 NA
HETATM   10  C12 UNL     1      21.666   4.950  50.832  1.00  0.00     0.073 A 
HETATM   11  C13 UNL     1      21.301   3.605  51.038  1.00  0.00     0.037 A 
HETATM   12  C14 UNL     1      21.859   2.991  52.107  1.00  0.00     0.031 C 
HETATM   13  C15 UNL     1      23.335   2.728  52.064  1.00  0.00     0.121 C 
HETATM   14  N4  UNL     1      23.930   3.877  52.705  1.00  0.00    -0.280 NA
HETATM   15  C22 UNL     1      23.566   5.105  52.376  1.00  0.00     0.114 C 
HETATM   16  C23 UNL     1      22.524   5.742  51.520  1.00  0.00     0.051 C 
HETATM   17  H10 UNL     1      19.091   1.450  49.557  1.00  0.00     0.161 HD
ENDROOT
BRANCH   1  18
HETATM   18  O1  UNL     1      24.636   1.222  53.453  1.00  0.00    -0.316 OA
BRANCH  18  19
HETATM   19  C5  UNL     1      25.801   0.561  53.198  1.00  0.00     0.059 C 
HETATM   20  C4  UNL     1      25.759  -0.856  52.700  1.00  0.00     0.092 C 
HETATM   21  C3  UNL     1      27.041  -1.573  52.939  1.00  0.00    -0.018 C 
HETATM   22  C2  UNL     1      28.232  -1.064  53.127  1.00  0.00    -0.083 C 
HETATM   23  C1  UNL     1      29.423  -1.913  53.353  1.00  0.00     0.043 C 
HETATM   24  C26 UNL     1      28.313   0.418  53.098  1.00  0.00     0.069 C 
HETATM   25  C24 UNL     1      27.017   1.072  53.354  1.00  0.00    -0.050 C 
HETATM   26  C25 UNL     1      27.142   2.464  53.842  1.00  0.00     0.046 C 
ENDBRANCH  18  19
ENDBRANCH   1  18
BRANCH  13  27
HETATM   27  C16 UNL     1      23.847   2.647  50.618  1.00  0.00     0.063 C 
BRANCH  27  28
HETATM   28  C17 UNL     1      25.331   2.679  50.598  1.00  0.00     0.084 C 
BRANCH  28  29
HETATM   29  C18 UNL     1      25.977   3.533  49.856  1.00  0.00    -0.100 C 
BRANCH  29  30
HETATM   30  C19 UNL     1      26.787   4.301  49.203  1.00  0.00    -0.098 C 
BRANCH  30  31
HETATM   31  C20 UNL     1      27.654   5.048  48.559  1.00  0.00     0.111 C 
BRANCH  31  32
HETATM   32  C21 UNL     1      27.552   6.529  48.569  1.00  0.00     0.240 C 
HETATM   33  F1  UNL     1      26.816   6.968  47.466  1.00  0.00    -0.254 F 
ENDBRANCH  31  32
ENDBRANCH  30  31
ENDBRANCH  29  30
ENDBRANCH  28  29
ENDBRANCH  27  28
ENDBRANCH  13  27
TORSDOF 8
ENDMDL
MODEL 3
REMARK VINA RESULT:      -8.3      3.640      6.949
REMARK  8 active torsions:
REMARK  status: ('A' for Active; 'I' for Inactive)
REMARK    1  A    between atoms: C5_5  and  O1_6 
REMARK    2  A    between atoms: O1_6  and  C6_7 
REMARK    3  A    between atoms: C15_19  and  C16_20 
REMARK    4  A    between atoms: C16_20  and  C17_21 
REMARK    5  A    between atoms: C17_21  and  C18_22 
REMARK    6  A    between atoms: C18_22  and  C19_23 
REMARK    7  A    between atoms: C19_23  and  C20_24 
REMARK    8  A    between atoms: C20_24  and  C21_25 
ROOT
HETATM    1  C6  UNL     1      22.844   0.688  52.395  1.00  0.00     0.084 C 
HETATM    2  C7  UNL     1      23.006  -0.208  53.428  1.00  0.00     0.016 C 
HETATM    3  C8  UNL     1      23.693  -0.956  54.531  1.00  0.00     0.095 C 
HETATM    4  C9  UNL     1      24.991  -0.799  54.924  1.00  0.00     0.072 C 
HETATM    5  N1  UNL     1      26.364  -0.271  54.949  1.00  0.00    -0.373 N 
HETATM    6  C10 UNL     1      26.868   0.662  54.012  1.00  0.00     0.137 A 
HETATM    7  N2  UNL     1      27.985   1.253  54.396  1.00  0.00    -0.224 NA
HETATM    8  C11 UNL     1      28.673   2.186  53.720  1.00  0.00     0.235 A 
HETATM    9  N3  UNL     1      28.172   2.569  52.515  1.00  0.00    -0.241 NA
HETATM   10  C12 UNL     1      27.025   2.002  52.058  1.00  0.00     0.073 A 
HETATM   11  C13 UNL     1      26.334   1.023  52.799  1.00  0.00     0.037 A 
HETATM   12  C14 UNL     1      25.208   0.530  52.234  1.00  0.00     0.031 C 
HETATM   13  C15 UNL     1      24.035   1.457  52.104  1.00  0.00     0.121 C 
HETATM   14  N4  UNL     1      24.168   2.031  50.786  1.00  0.00    -0.280 NA
HETATM   15  C22 UNL     1      25.324   2.521  50.370  1.00  0.00     0.114 C 
HETATM   16  C23 UNL     1      26.730   2.570  50.865  1.00  0.00     0.051 C 
HETATM   17  H10 UNL     1      26.927  -0.655  55.725  1.00  0.00     0.161 HD
ENDROOT
BRANCH   1  18
HETATM   18  O1  UNL     1      21.714   0.893  51.675  1.00  0.00    -0.316 OA
BRANCH  18  19
HETATM   19  C5  UNL     1      20.429   0.520  51.938  1.00  0.00     0.059 C 
HETATM   20  C4  UNL     1      20.083  -0.065  53.277  1.00  0.00     0.092 C 
HETATM   21  C3  UNL     1      18.819  -0.851  53.237  1.00  0.00    -0.018 C 
HETATM   22  C2  UNL     1      17.837  -0.763  52.376  1.00  0.00    -0.083 C 
HETATM   23  C1  UNL     1      16.633  -1.619  52.469  1.00  0.00     0.043 C 
HETATM   24  C26 UNL     1      18.008   0.248  51.303  1.00  0.00     0.069 C 
HETATM   25  C24 UNL     1      19.415   0.629  51.086  1.00  0.00    -0.050 C 
HETATM   26  C25 UNL     1      19.675   1.197  49.744  1.00  0.00     0.046 C 
ENDBRANCH  18  19
ENDBRANCH   1  18
BRANCH  13  27
HETATM   27  C16 UNL     1      24.095   2.586  53.144  1.00  0.00     0.063 C 
BRANCH  27  28
HETATM   28  C17 UNL     1      23.110   3.645  52.808  1.00  0.00     0.084 C 
BRANCH  28  29
HETATM   29  C18 UNL     1      23.495   4.795  52.333  1.00  0.00    -0.100 C 
BRANCH  29  30
HETATM   30  C19 UNL     1      23.787   5.877  51.687  1.00  0.00    -0.098 C 
BRANCH  30  31
HETATM   31  C20 UNL     1      24.060   6.952  50.984  1.00  0.00     0.111 C 
BRANCH  31  32
HETATM   32  C21 UNL     1      22.990   7.893  50.569  1.00  0.00     0.240 C 
HETATM   33  F1  UNL     1      21.737   7.379  50.911  1.00  0.00    -0.254 F 
ENDBRANCH  31  32
ENDBRANCH  30  31
ENDBRANCH  29  30
ENDBRANCH  28  29
ENDBRANCH  27  28
ENDBRANCH  13  27
TORSDOF 8
ENDMDL
MODEL 4
REMARK VINA RESULT:      -7.9      3.015      6.369
REMARK  8 active torsions:
REMARK  status: ('A' for Active; 'I' for Inactive)
REMARK    1  A    between atoms: C5_5  and  O1_6 
REMARK    2  A    between atoms: O1_6  and  C6_7 
REMARK    3  A    between atoms: C15_19  and  C16_20 
REMARK    4  A    between atoms: C16_20  and  C17_21 
REMARK    5  A    between atoms: C17_21  and  C18_22 
REMARK    6  A    between atoms: C18_22  and  C19_23 
REMARK    7  A    between atoms: C19_23  and  C20_24 
REMARK    8  A    between atoms: C20_24  and  C21_25 
ROOT
HETATM    1  C6  UNL     1      23.912   3.832  50.063  1.00  0.00     0.084 C 
HETATM    2  C7  UNL     1      23.273   3.695  48.850  1.00  0.00     0.016 C 
HETATM    3  C8  UNL     1      22.273   3.203  47.848  1.00  0.00     0.095 C 
HETATM    4  C9  UNL     1      21.267   2.312  48.087  1.00  0.00     0.072 C 
HETATM    5  N1  UNL     1      20.406   1.379  48.830  1.00  0.00    -0.373 N 
HETATM    6  C10 UNL     1      20.627   1.004  50.176  1.00  0.00     0.137 A 
HETATM    7  N2  UNL     1      19.582   0.439  50.752  1.00  0.00    -0.224 NA
HETATM    8  C11 UNL     1      19.500   0.000  52.018  1.00  0.00     0.235 A 
HETATM    9  N3  UNL     1      20.605   0.152  52.795  1.00  0.00    -0.241 NA
HETATM   10  C12 UNL     1      21.718   0.726  52.267  1.00  0.00     0.073 A 
HETATM   11  C13 UNL     1      21.763   1.171  50.932  1.00  0.00     0.037 A 
HETATM   12  C14 UNL     1      22.930   1.720  50.522  1.00  0.00     0.031 C 
HETATM   13  C15 UNL     1      23.323   3.039  51.120  1.00  0.00     0.121 C 
HETATM   14  N4  UNL     1      24.149   2.694  52.252  1.00  0.00    -0.280 NA
HETATM   15  C22 UNL     1      23.765   1.774  53.121  1.00  0.00     0.114 C 
HETATM   16  C23 UNL     1      22.656   0.784  53.243  1.00  0.00     0.051 C 
HETATM   17  H10 UNL     1      19.618   1.022  48.266  1.00  0.00     0.161 HD
ENDROOT
BRANCH   1  18
HETATM   18  O1  UNL     1      24.989   4.613  50.324  1.00  0.00    -0.316 OA
BRANCH  18  19
HETATM   19  C5  UNL     1      25.938   5.107  49.477  1.00  0.00     0.059 C 
HETATM   20  C4  UNL     1      27.061   4.221  49.021  1.00  0.00     0.092 C 
HETATM   21  C3  UNL     1      28.231   5.003  48.534  1.00  0.00    -0.018 C 
HETATM   22  C2  UNL     1      28.257   6.236  48.097  1.00  0.00    -0.083 C 
HETATM   23  C1  UNL     1      29.508   6.883  47.642  1.00  0.00     0.043 C 
HETATM   24  C26 UNL     1      26.952   6.944  48.087  1.00  0.00     0.069 C 
HETATM   25  C24 UNL     1      25.963   6.347  49.001  1.00  0.00    -0.050 C 
HETATM   26  C25 UNL     1      24.889   7.282  49.405  1.00  0.00     0.046 C 
ENDBRANCH  18  19
ENDBRANCH   1  18
BRANCH  13  27
HETATM   27  C16 UNL     1      22.095   3.815  51.619  1.00  0.00     0.063 C 
BRANCH  27  28
HETATM   28  C17 UNL     1      22.494   5.178  52.055  1.00  0.00     0.084 C 
BRANCH  28  29
HETATM   29  C18 UNL     1      22.043   6.238  51.447  1.00  0.00    -0.100 C 
BRANCH  29  30
HETATM   30  C19 UNL     1      21.512   7.159  50.710  1.00  0.00    -0.098 C 
BRANCH  30  31
HETATM   31  C20 UNL     1      20.994   8.067  49.916  1.00  0.00     0.111 C 
BRANCH  31  32
HETATM   32  C21 UNL     1      20.853   7.825  48.458  1.00  0.00     0.240 C 
HETATM   33  F1  UNL     1      21.762   6.849  48.042  1.00  0.00    -0.254 F 
ENDBRANCH  31  32
ENDBRANCH  30  31
ENDBRANCH  29  30
ENDBRANCH  28  29
ENDBRANCH  27  28
ENDBRANCH  13  27
TORSDOF 8
ENDMDL
MODEL 5
REMARK VINA RESULT:      -7.9      1.336      2.286
REMARK  8 active torsions:
REMARK  status: ('A' for Active; 'I' for Inactive)
REMARK    1  A    between atoms: C5_5  and  O1_6 
REMARK    2  A    between atoms: O1_6  and  C6_7 
REMARK    3  A    between atoms: C15_19  and  C16_20 
REMARK    4  A    between atoms: C16_20  and  C17_21 
REMARK    5  A    between atoms: C17_21  and  C18_22 
REMARK    6  A    between atoms: C18_22  and  C19_23 
REMARK    7  A    between atoms: C19_23  and  C20_24 
REMARK    8  A    between atoms: C20_24  and  C21_25 
ROOT
HETATM    1  C6  UNL     1      23.784   3.149  49.933  1.00  0.00     0.084 C 
HETATM    2  C7  UNL     1      23.087   2.642  48.859  1.00  0.00     0.016 C 
HETATM    3  C8  UNL     1      22.286   2.640  47.591  1.00  0.00     0.095 C 
HETATM    4  C9  UNL     1      21.881   3.741  46.893  1.00  0.00     0.072 C 
HETATM    5  N1  UNL     1      21.706   5.160  46.546  1.00  0.00    -0.373 N 
HETATM    6  C10 UNL     1      22.142   6.230  47.362  1.00  0.00     0.137 A 
HETATM    7  N2  UNL     1      22.198   7.391  46.735  1.00  0.00    -0.224 NA
HETATM    8  C11 UNL     1      22.587   8.567  47.252  1.00  0.00     0.235 A 
HETATM    9  N3  UNL     1      22.968   8.569  48.557  1.00  0.00    -0.241 NA
HETATM   10  C12 UNL     1      22.936   7.409  49.264  1.00  0.00     0.073 A 
HETATM   11  C13 UNL     1      22.517   6.196  48.683  1.00  0.00     0.037 A 
HETATM   12  C14 UNL     1      22.524   5.112  49.492  1.00  0.00     0.031 C 
HETATM   13  C15 UNL     1      23.856   4.594  49.947  1.00  0.00     0.121 C 
HETATM   14  N4  UNL     1      24.091   5.250  51.211  1.00  0.00    -0.280 NA
HETATM   15  C22 UNL     1      23.918   6.555  51.343  1.00  0.00     0.114 C 
HETATM   16  C23 UNL     1      23.384   7.674  50.515  1.00  0.00     0.051 C 
HETATM   17  H10 UNL     1      21.230   5.296  45.640  1.00  0.00     0.161 HD
ENDROOT
BRANCH   1  18
HETATM   18  O1  UNL     1      24.377   2.433  50.920  1.00  0.00    -0.316 OA
BRANCH  18  19
HETATM   19  C5  UNL     1      23.865   1.453  51.720  1.00  0.00     0.059 C 
HETATM   20  C4  UNL     1      22.377   1.324  51.877  1.00  0.00     0.092 C 
HETATM   21  C3  UNL     1      22.005   0.577  53.110  1.00  0.00    -0.018 C 
HETATM   22  C2  UNL     1      22.733  -0.269  53.795  1.00  0.00    -0.083 C 
HETATM   23  C1  UNL     1      22.221  -0.940  55.011  1.00  0.00     0.043 C 
HETATM   24  C26 UNL     1      24.102  -0.511  53.276  1.00  0.00     0.069 C 
HETATM   25  C24 UNL     1      24.588   0.569  52.399  1.00  0.00    -0.050 C 
HETATM   26  C25 UNL     1      26.063   0.631  52.296  1.00  0.00     0.046 C 
ENDBRANCH  18  19
ENDBRANCH   1  18
BRANCH  13  27
HETATM   27  C16 UNL     1      24.973   4.987  48.968  1.00  0.00     0.063 C 
BRANCH  27  28
HETATM   28  C17 UNL     1      26.268   4.411  49.411  1.00  0.00     0.084 C 
BRANCH  28  29
HETATM   29  C18 UNL     1      27.389   4.759  48.846  1.00  0.00    -0.100 C 
BRANCH  29  30
HETATM   30  C19 UNL     1      28.483   5.280  48.392  1.00  0.00    -0.098 C 
BRANCH  30  31
HETATM   31  C20 UNL     1      29.570   5.861  47.940  1.00  0.00     0.111 C 
BRANCH  31  32
HETATM   32  C21 UNL     1      29.588   7.306  47.603  1.00  0.00     0.240 C 
HETATM   33  F1  UNL     1      29.343   7.485  46.240  1.00  0.00    -0.254 F 
ENDBRANCH  31  32
ENDBRANCH  30  31
ENDBRANCH  29  30
ENDBRANCH  28  29
ENDBRANCH  27  28
ENDBRANCH  13  27
TORSDOF 8
ENDMDL
MODEL 6
REMARK VINA RESULT:      -7.8      3.034      6.850
REMARK  8 active torsions:
REMARK  status: ('A' for Active; 'I' for Inactive)
REMARK    1  A    between atoms: C5_5  and  O1_6 
REMARK    2  A    between atoms: O1_6  and  C6_7 
REMARK    3  A    between atoms: C15_19  and  C16_20 
REMARK    4  A    between atoms: C16_20  and  C17_21 
REMARK    5  A    between atoms: C17_21  and  C18_22 
REMARK    6  A    between atoms: C18_22  and  C19_23 
REMARK    7  A    between atoms: C19_23  and  C20_24 
REMARK    8  A    between atoms: C20_24  and  C21_25 
ROOT
HETATM    1  C6  UNL     1      24.721   3.638  51.146  1.00  0.00     0.084 C 
HETATM    2  C7  UNL     1      25.713   2.767  51.541  1.00  0.00     0.016 C 
HETATM    3  C8  UNL     1      26.337   1.535  52.124  1.00  0.00     0.095 C 
HETATM    4  C9  UNL     1      25.669   0.476  52.668  1.00  0.00     0.072 C 
HETATM    5  N1  UNL     1      24.538  -0.352  53.116  1.00  0.00    -0.373 N 
HETATM    6  C10 UNL     1      23.188   0.066  53.068  1.00  0.00     0.137 A 
HETATM    7  N2  UNL     1      22.319  -0.921  53.193  1.00  0.00    -0.224 NA
HETATM    8  C11 UNL     1      20.981  -0.822  53.169  1.00  0.00     0.235 A 
HETATM    9  N3  UNL     1      20.458   0.421  52.995  1.00  0.00    -0.241 NA
HETATM   10  C12 UNL     1      21.294   1.483  52.859  1.00  0.00     0.073 A 
HETATM   11  C13 UNL     1      22.694   1.336  52.892  1.00  0.00     0.037 A 
HETATM   12  C14 UNL     1      23.419   2.470  52.752  1.00  0.00     0.031 C 
HETATM   13  C15 UNL     1      23.385   3.154  51.416  1.00  0.00     0.121 C 
HETATM   14  N4  UNL     1      22.321   4.122  51.529  1.00  0.00    -0.280 NA
HETATM   15  C22 UNL     1      21.140   3.783  52.019  1.00  0.00     0.114 C 
HETATM   16  C23 UNL     1      20.532   2.588  52.673  1.00  0.00     0.051 C 
HETATM   17  H10 UNL     1      24.833  -1.275  53.473  1.00  0.00     0.161 HD
ENDROOT
BRANCH   1  18
HETATM   18  O1  UNL     1      24.896   4.845  50.554  1.00  0.00    -0.316 OA
BRANCH  18  19
HETATM   19  C5  UNL     1      25.854   5.258  49.675  1.00  0.00     0.059 C 
HETATM   20  C4  UNL     1      26.793   4.254  49.071  1.00  0.00     0.092 C 
HETATM   21  C3  UNL     1      28.037   4.887  48.554  1.00  0.00    -0.018 C 
HETATM   22  C2  UNL     1      28.227   6.135  48.207  1.00  0.00    -0.083 C 
HETATM   23  C1  UNL     1      29.532   6.621  47.705  1.00  0.00     0.043 C 
HETATM   24  C26 UNL     1      27.051   7.030  48.347  1.00  0.00     0.069 C 
HETATM   25  C24 UNL     1      26.041   6.516  49.289  1.00  0.00    -0.050 C 
HETATM   26  C25 UNL     1      25.156   7.566  49.841  1.00  0.00     0.046 C 
ENDBRANCH  18  19
ENDBRANCH   1  18
BRANCH  13  27
HETATM   27  C16 UNL     1      23.040   2.166  50.291  1.00  0.00     0.063 C 
BRANCH  27  28
HETATM   28  C17 UNL     1      23.307   2.785  48.968  1.00  0.00     0.084 C 
BRANCH  28  29
HETATM   29  C18 UNL     1      22.332   3.114  48.169  1.00  0.00    -0.100 C 
BRANCH  29  30
HETATM   30  C19 UNL     1      21.257   3.293  47.472  1.00  0.00    -0.098 C 
BRANCH  30  31
HETATM   31  C20 UNL     1      20.199   3.496  46.721  1.00  0.00     0.111 C 
BRANCH  31  32
HETATM   32  C21 UNL     1      20.329   3.928  45.308  1.00  0.00     0.240 C 
HETATM   33  F1  UNL     1      21.565   3.529  44.794  1.00  0.00    -0.254 F 
ENDBRANCH  31  32
ENDBRANCH  30  31
ENDBRANCH  29  30
ENDBRANCH  28  29
ENDBRANCH  27  28
ENDBRANCH  13  27
TORSDOF 8
ENDMDL
MODEL 7
REMARK VINA RESULT:      -7.6      6.213     10.461
REMARK  8 active torsions:
REMARK  status: ('A' for Active; 'I' for Inactive)
REMARK    1  A    between atoms: C5_5  and  O1_6 
REMARK    2  A    between atoms: O1_6  and  C6_7 
REMARK    3  A    between atoms: C15_19  and  C16_20 
REMARK    4  A    between atoms: C16_20  and  C17_21 
REMARK    5  A    between atoms: C17_21  and  C18_22 
REMARK    6  A    between atoms: C18_22  and  C19_23 
REMARK    7  A    between atoms: C19_23  and  C20_24 
REMARK    8  A    between atoms: C20_24  and  C21_25 
ROOT
HETATM    1  C6  UNL     1      31.494   8.088  46.085  1.00  0.00     0.084 C 
HETATM    2  C7  UNL     1      31.598   7.818  44.739  1.00  0.00     0.016 C 
HETATM    3  C8  UNL     1      32.045   7.128  43.485  1.00  0.00     0.095 C 
HETATM    4  C9  UNL     1      32.896   6.063  43.412  1.00  0.00     0.072 C 
HETATM    5  N1  UNL     1      33.797   4.991  43.863  1.00  0.00    -0.373 N 
HETATM    6  C10 UNL     1      34.188   4.804  45.209  1.00  0.00     0.137 A 
HETATM    7  N2  UNL     1      34.712   3.618  45.453  1.00  0.00    -0.224 NA
HETATM    8  C11 UNL     1      35.154   3.161  46.635  1.00  0.00     0.235 A 
HETATM    9  N3  UNL     1      35.051   4.003  47.698  1.00  0.00    -0.241 NA
HETATM   10  C12 UNL     1      34.520   5.241  47.520  1.00  0.00     0.073 A 
HETATM   11  C13 UNL     1      34.070   5.682  46.260  1.00  0.00     0.037 A 
HETATM   12  C14 UNL     1      33.567   6.937  46.210  1.00  0.00     0.031 C 
HETATM   13  C15 UNL     1      32.268   7.192  46.917  1.00  0.00     0.121 C 
HETATM   14  N4  UNL     1      32.651   7.646  48.232  1.00  0.00    -0.280 NA
HETATM   15  C22 UNL     1      33.560   6.995  48.939  1.00  0.00     0.114 C 
HETATM   16  C23 UNL     1      34.505   5.862  48.723  1.00  0.00     0.051 C 
HETATM   17  H10 UNL     1      34.118   4.385  43.091  1.00  0.00     0.161 HD
ENDROOT
BRANCH   1  18
HETATM   18  O1  UNL     1      30.758   9.074  46.656  1.00  0.00    -0.316 OA
BRANCH  18  19
HETATM   19  C5  UNL     1      29.510   9.029  47.204  1.00  0.00     0.059 C 
HETATM   20  C4  UNL     1      28.357   8.520  46.388  1.00  0.00     0.092 C 
HETATM   21  C3  UNL     1      27.046   8.983  46.920  1.00  0.00    -0.018 C 
HETATM   22  C2  UNL     1      26.760   9.389  48.132  1.00  0.00    -0.083 C 
HETATM   23  C1  UNL     1      25.397   9.821  48.514  1.00  0.00     0.043 C 
HETATM   24  C26 UNL     1      27.888   9.387  49.096  1.00  0.00     0.069 C 
HETATM   25  C24 UNL     1      29.208   9.409  48.441  1.00  0.00    -0.050 C 
HETATM   26  C25 UNL     1      30.292   9.923  49.309  1.00  0.00     0.046 C 
ENDBRANCH  18  19
ENDBRANCH   1  18
BRANCH  13  27
HETATM   27  C16 UNL     1      31.445   5.902  47.057  1.00  0.00     0.063 C 
BRANCH  27  28
HETATM   28  C17 UNL     1      30.665   5.928  48.321  1.00  0.00     0.084 C 
BRANCH  28  29
HETATM   29  C18 UNL     1      29.412   5.573  48.346  1.00  0.00    -0.100 C 
BRANCH  29  30
HETATM   30  C19 UNL     1      28.157   5.332  48.544  1.00  0.00    -0.098 C 
BRANCH  30  31
HETATM   31  C20 UNL     1      26.873   5.100  48.688  1.00  0.00     0.111 C 
BRANCH  31  32
HETATM   32  C21 UNL     1      25.974   6.104  49.310  1.00  0.00     0.240 C 
HETATM   33  F1  UNL     1      24.994   6.503  48.398  1.00  0.00    -0.254 F 
ENDBRANCH  31  32
ENDBRANCH  30  31
ENDBRANCH  29  30
ENDBRANCH  28  29
ENDBRANCH  27  28
ENDBRANCH  13  27
TORSDOF 8
ENDMDL
MODEL 8
REMARK VINA RESULT:      -7.6      3.333      5.611
REMARK  8 active torsions:
REMARK  status: ('A' for Active; 'I' for Inactive)
REMARK    1  A    between atoms: C5_5  and  O1_6 
REMARK    2  A    between atoms: O1_6  and  C6_7 
REMARK    3  A    between atoms: C15_19  and  C16_20 
REMARK    4  A    between atoms: C16_20  and  C17_21 
REMARK    5  A    between atoms: C17_21  and  C18_22 
REMARK    6  A    between atoms: C18_22  and  C19_23 
REMARK    7  A    between atoms: C19_23  and  C20_24 
REMARK    8  A    between atoms: C20_24  and  C21_25 
ROOT
HETATM    1  C6  UNL     1      23.432   2.333  51.351  1.00  0.00     0.084 C 
HETATM    2  C7  UNL     1      23.632   3.404  52.194  1.00  0.00     0.016 C 
HETATM    3  C8  UNL     1      23.478   4.785  52.755  1.00  0.00     0.095 C 
HETATM    4  C9  UNL     1      22.674   5.770  52.259  1.00  0.00     0.072 C 
HETATM    5  N1  UNL     1      21.706   6.438  51.375  1.00  0.00    -0.373 N 
HETATM    6  C10 UNL     1      21.175   5.853  50.202  1.00  0.00     0.137 A 
HETATM    7  N2  UNL     1      20.095   6.459  49.745  1.00  0.00    -0.224 NA
HETATM    8  C11 UNL     1      19.376   6.116  48.664  1.00  0.00     0.235 A 
HETATM    9  N3  UNL     1      19.798   5.029  47.964  1.00  0.00    -0.241 NA
HETATM   10  C12 UNL     1      20.904   4.356  48.378  1.00  0.00     0.073 A 
HETATM   11  C13 UNL     1      21.631   4.752  49.518  1.00  0.00     0.037 A 
HETATM   12  C14 UNL     1      22.716   4.005  49.824  1.00  0.00     0.031 C 
HETATM   13  C15 UNL     1      22.481   2.599  50.294  1.00  0.00     0.121 C 
HETATM   14  N4  UNL     1      22.554   1.798  49.095  1.00  0.00    -0.280 NA
HETATM   15  C22 UNL     1      21.896   2.145  48.002  1.00  0.00     0.114 C 
HETATM   16  C23 UNL     1      21.092   3.312  47.537  1.00  0.00     0.051 C 
HETATM   17  H10 UNL     1      21.451   7.384  51.701  1.00  0.00     0.161 HD
ENDROOT
BRANCH   1  18
HETATM   18  O1  UNL     1      24.025   1.117  51.436  1.00  0.00    -0.316 OA
BRANCH  18  19
HETATM   19  C5  UNL     1      25.131   0.729  52.135  1.00  0.00     0.059 C 
HETATM   20  C4  UNL     1      24.992  -0.260  53.257  1.00  0.00     0.092 C 
HETATM   21  C3  UNL     1      26.141  -0.202  54.202  1.00  0.00    -0.018 C 
HETATM   22  C2  UNL     1      27.348   0.257  53.984  1.00  0.00    -0.083 C 
HETATM   23  C1  UNL     1      28.393   0.247  55.031  1.00  0.00     0.043 C 
HETATM   24  C26 UNL     1      27.600   0.786  52.620  1.00  0.00     0.069 C 
HETATM   25  C24 UNL     1      26.366   1.162  51.908  1.00  0.00    -0.050 C 
HETATM   26  C25 UNL     1      26.585   2.140  50.818  1.00  0.00     0.046 C 
ENDBRANCH  18  19
ENDBRANCH   1  18
BRANCH  13  27
HETATM   27  C16 UNL     1      21.083   2.443  50.911  1.00  0.00     0.063 C 
BRANCH  27  28
HETATM   28  C17 UNL     1      20.772   1.005  51.115  1.00  0.00     0.084 C 
BRANCH  28  29
HETATM   29  C18 UNL     1      20.827   0.466  52.300  1.00  0.00    -0.100 C 
BRANCH  29  30
HETATM   30  C19 UNL     1      21.042   0.057  53.508  1.00  0.00    -0.098 C 
BRANCH  30  31
HETATM   31  C20 UNL     1      21.305  -0.390  54.715  1.00  0.00     0.111 C 
BRANCH  31  32
HETATM   32  C21 UNL     1      22.082  -1.637  54.922  1.00  0.00     0.240 C 
HETATM   33  F1  UNL     1      23.128  -1.408  55.819  1.00  0.00    -0.254 F 
ENDBRANCH  31  32
ENDBRANCH  30  31
ENDBRANCH  29  30
ENDBRANCH  28  29
ENDBRANCH  27  28
ENDBRANCH  13  27
TORSDOF 8
ENDMDL
MODEL 9
REMARK VINA RESULT:      -7.4      3.828      5.856
REMARK  8 active torsions:
REMARK  status: ('A' for Active; 'I' for Inactive)
REMARK    1  A    between atoms: C5_5  and  O1_6 
REMARK    2  A    between atoms: O1_6  and  C6_7 
REMARK    3  A    between atoms: C15_19  and  C16_20 
REMARK    4  A    between atoms: C16_20  and  C17_21 
REMARK    5  A    between atoms: C17_21  and  C18_22 
REMARK    6  A    between atoms: C18_22  and  C19_23 
REMARK    7  A    between atoms: C19_23  and  C20_24 
REMARK    8  A    between atoms: C20_24  and  C21_25 
ROOT
HETATM    1  C6  UNL     1      23.000   2.602  50.864  1.00  0.00     0.084 C 
HETATM    2  C7  UNL     1      22.935   3.675  51.725  1.00  0.00     0.016 C 
HETATM    3  C8  UNL     1      22.578   5.042  52.226  1.00  0.00     0.095 C 
HETATM    4  C9  UNL     1      21.862   5.986  51.547  1.00  0.00     0.072 C 
HETATM    5  N1  UNL     1      21.096   6.607  50.456  1.00  0.00    -0.373 N 
HETATM    6  C10 UNL     1      20.892   6.003  49.193  1.00  0.00     0.137 A 
HETATM    7  N2  UNL     1      19.920   6.554  48.489  1.00  0.00    -0.224 NA
HETATM    8  C11 UNL     1      19.498   6.180  47.271  1.00  0.00     0.235 A 
HETATM    9  N3  UNL     1      20.132   5.123  46.697  1.00  0.00    -0.241 NA
HETATM   10  C12 UNL     1      21.142   4.508  47.365  1.00  0.00     0.073 A 
HETATM   11  C13 UNL     1      21.556   4.934  48.643  1.00  0.00     0.037 A 
HETATM   12  C14 UNL     1      22.577   4.244  49.202  1.00  0.00     0.031 C 
HETATM   13  C15 UNL     1      22.314   2.824  49.610  1.00  0.00     0.121 C 
HETATM   14  N4  UNL     1      22.712   2.037  48.467  1.00  0.00    -0.280 NA
HETATM   15  C22 UNL     1      22.315   2.357  47.247  1.00  0.00     0.114 C 
HETATM   16  C23 UNL     1      21.582   3.482  46.598  1.00  0.00     0.051 C 
HETATM   17  H10 UNL     1      20.721   7.535  50.707  1.00  0.00     0.161 HD
ENDROOT
BRANCH   1  18
HETATM   18  O1  UNL     1      23.621   1.419  51.094  1.00  0.00    -0.316 OA
BRANCH  18  19
HETATM   19  C5  UNL     1      24.684   1.130  51.899  1.00  0.00     0.059 C 
HETATM   20  C4  UNL     1      26.031   1.719  51.591  1.00  0.00     0.092 C 
HETATM   21  C3  UNL     1      27.138   0.951  52.224  1.00  0.00    -0.018 C 
HETATM   22  C2  UNL     1      27.081   0.152  53.260  1.00  0.00    -0.083 C 
HETATM   23  C1  UNL     1      28.278  -0.547  53.779  1.00  0.00     0.043 C 
HETATM   24  C26 UNL     1      25.742  -0.006  53.880  1.00  0.00     0.069 C 
HETATM   25  C24 UNL     1      24.638   0.346  52.970  1.00  0.00    -0.050 C 
HETATM   26  C25 UNL     1      23.345  -0.273  53.339  1.00  0.00     0.046 C 
ENDBRANCH  18  19
ENDBRANCH   1  18
BRANCH  13  27
HETATM   27  C16 UNL     1      20.819   2.587  49.878  1.00  0.00     0.063 C 
BRANCH  27  28
HETATM   28  C17 UNL     1      20.544   1.132  49.986  1.00  0.00     0.084 C 
BRANCH  28  29
HETATM   29  C18 UNL     1      20.000   0.628  51.057  1.00  0.00    -0.100 C 
BRANCH  29  30
HETATM   30  C19 UNL     1      19.631   0.012  52.133  1.00  0.00    -0.098 C 
BRANCH  30  31
HETATM   31  C20 UNL     1      19.206  -0.584  53.223  1.00  0.00     0.111 C 
BRANCH  31  32
HETATM   32  C21 UNL     1      17.955  -1.382  53.226  1.00  0.00     0.240 C 
HETATM   33  F1  UNL     1      18.120  -2.533  54.000  1.00  0.00    -0.254 F 
ENDBRANCH  31  32
ENDBRANCH  30  31
ENDBRANCH  29  30
ENDBRANCH  28  29
ENDBRANCH  27  28
ENDBRANCH  13  27
TORSDOF 8
ENDMDL
