MODEL 1
REMARK VINA RESULT:      -8.5      0.000      0.000
REMARK  5 active torsions:
REMARK  status: ('A' for Active; 'I' for Inactive)
REMARK    1  A    between atoms: N1_1  and  C1_2 
REMARK    2  A    between atoms: N2_5  and  C4_6 
REMARK    3  A    between atoms: C4_6  and  C5_7 
REMARK    4  A    between atoms: C9_14  and  N6_15 
REMARK    5  A    between atoms: N6_15  and  C10_16 
ROOT
HETATM    1  C5  UNL     1      27.257   1.161  53.732  1.00  0.00    -0.006 A 
HETATM    2  C6  UNL     1      28.501   1.584  54.239  1.00  0.00     0.030 A 
HETATM    3  C7  UNL     1      29.399   0.523  54.157  1.00  0.00     0.119 A 
HETATM    4  N3  UNL     1      28.765  -0.560  53.619  1.00  0.00    -0.240 N 
HETATM    5  N4  UNL     1      29.064  -1.831  53.365  1.00  0.00    -0.161 NA
HETATM    6  C8  UNL     1      28.153  -2.688  52.896  1.00  0.00     0.258 A 
HETATM    7  N5  UNL     1      26.905  -2.247  52.668  1.00  0.00    -0.220 NA
HETATM    8  C9  UNL     1      26.548  -0.979  52.898  1.00  0.00     0.159 A 
HETATM    9  C16 UNL     1      27.512  -0.145  53.385  1.00  0.00     0.112 A 
ENDROOT
BRANCH   1  10
HETATM   10  C4  UNL     1      26.367   2.306  53.683  1.00  0.00     0.163 C 
BRANCH  10  11
HETATM   11  N2  UNL     1      25.802   2.513  52.314  1.00  0.00    -0.386 N 
HETATM   12  C3  UNL     1      24.480   2.747  51.914  1.00  0.00     0.084 C 
HETATM   13  C2  UNL     1      24.233   3.494  50.835  1.00  0.00     0.025 C 
HETATM   14  C1  UNL     1      25.350   4.085  50.051  1.00  0.00     0.243 C 
HETATM   15  C18 UNL     1      26.632   3.336  50.119  1.00  0.00     0.059 C 
HETATM   16  C17 UNL     1      26.826   2.444  51.287  1.00  0.00     0.125 C 
BRANCH  14  17
HETATM   17  N1  UNL     1      25.546   5.480  50.414  1.00  0.00     0.086 N 
HETATM   18  H1  UNL     1      26.379   5.628  50.993  1.00  0.00     0.313 HD
HETATM   19  H2  UNL     1      25.484   6.044  49.553  1.00  0.00     0.313 HD
ENDBRANCH  14  17
ENDBRANCH  10  11
ENDBRANCH   1  10
BRANCH   8  20
HETATM   20  N6  UNL     1      25.211  -0.581  52.695  1.00  0.00    -0.339 N 
HETATM   21  H11 UNL     1      24.781  -0.126  51.891  1.00  0.00     0.167 HD
BRANCH  20  22
HETATM   22  C10 UNL     1      24.004  -0.706  53.424  1.00  0.00     0.035 A 
HETATM   23  C11 UNL     1      24.080  -1.107  54.719  1.00  0.00     0.029 A 
HETATM   24  C12 UNL     1      22.914  -1.211  55.477  1.00  0.00     0.004 A 
HETATM   25  C13 UNL     1      21.671  -0.915  54.930  1.00  0.00     0.024 A 
HETATM   26  C14 UNL     1      21.545  -0.505  53.630  1.00  0.00     0.036 A 
HETATM   27 CL1  UNL     1      20.148  -0.072  52.685  1.00  0.00    -0.084 Cl
HETATM   28  C15 UNL     1      22.742  -0.414  52.912  1.00  0.00     0.053 A 
ENDBRANCH  20  22
ENDBRANCH   8  20
TORSDOF 5
ENDMDL
MODEL 2
REMARK VINA RESULT:      -8.5      2.749      5.461
REMARK  5 active torsions:
REMARK  status: ('A' for Active; 'I' for Inactive)
REMARK    1  A    between atoms: N1_1  and  C1_2 
REMARK    2  A    between atoms: N2_5  and  C4_6 
REMARK    3  A    between atoms: C4_6  and  C5_7 
REMARK    4  A    between atoms: C9_14  and  N6_15 
REMARK    5  A    between atoms: N6_15  and  C10_16 
ROOT
HETATM    1  C5  UNL     1      22.053   0.532  51.919  1.00  0.00    -0.006 A 
HETATM    2  C6  UNL     1      20.651   0.401  51.934  1.00  0.00     0.030 A 
HETATM    3  C7  UNL     1      20.276  -0.241  53.111  1.00  0.00     0.119 A 
HETATM    4  N3  UNL     1      21.394  -0.526  53.841  1.00  0.00    -0.240 N 
HETATM    5  N4  UNL     1      21.675  -1.163  54.975  1.00  0.00    -0.161 NA
HETATM    6  C8  UNL     1      22.933  -1.349  55.383  1.00  0.00     0.258 A 
HETATM    7  N5  UNL     1      23.937  -0.870  54.631  1.00  0.00    -0.220 NA
HETATM    8  C9  UNL     1      23.715  -0.213  53.487  1.00  0.00     0.159 A 
HETATM    9  C16 UNL     1      22.414  -0.057  53.108  1.00  0.00     0.112 A 
ENDROOT
BRANCH   1  10
HETATM   10  C4  UNL     1      22.429   1.328  50.766  1.00  0.00     0.163 C 
BRANCH  10  11
HETATM   11  N2  UNL     1      22.620   2.768  51.121  1.00  0.00    -0.386 N 
HETATM   12  C3  UNL     1      22.990   3.351  52.340  1.00  0.00     0.084 C 
HETATM   13  C2  UNL     1      23.693   4.486  52.349  1.00  0.00     0.025 C 
HETATM   14  C1  UNL     1      24.092   5.140  51.075  1.00  0.00     0.243 C 
HETATM   15  C18 UNL     1      23.195   4.869  49.921  1.00  0.00     0.059 C 
HETATM   16  C17 UNL     1      22.361   3.646  49.994  1.00  0.00     0.125 C 
BRANCH  14  17
HETATM   17  N1  UNL     1      25.471   4.819  50.745  1.00  0.00     0.086 N 
HETATM   18  H1  UNL     1      25.639   3.810  50.673  1.00  0.00     0.313 HD
HETATM   19  H2  UNL     1      25.743   5.385  49.928  1.00  0.00     0.313 HD
ENDBRANCH  14  17
ENDBRANCH  10  11
ENDBRANCH   1  10
BRANCH   8  20
HETATM   20  N6  UNL     1      24.806   0.222  52.708  1.00  0.00    -0.339 N 
HETATM   21  H11 UNL     1      24.840   0.486  51.724  1.00  0.00     0.167 HD
BRANCH  20  22
HETATM   22  C10 UNL     1      26.166   0.519  52.961  1.00  0.00     0.035 A 
HETATM   23  C11 UNL     1      26.515   1.821  53.123  1.00  0.00     0.029 A 
HETATM   24  C12 UNL     1      27.841   2.149  53.405  1.00  0.00     0.004 A 
HETATM   25  C13 UNL     1      28.817   1.166  53.519  1.00  0.00     0.024 A 
HETATM   26  C14 UNL     1      28.513  -0.160  53.365  1.00  0.00     0.036 A 
HETATM   27 CL1  UNL     1      29.503  -1.590  53.448  1.00  0.00    -0.084 Cl
HETATM   28  C15 UNL     1      27.170  -0.438  53.086  1.00  0.00     0.053 A 
ENDBRANCH  20  22
ENDBRANCH   8  20
TORSDOF 5
ENDMDL
MODEL 3
REMARK VINA RESULT:      -8.3      2.776      5.409
REMARK  5 active torsions:
REMARK  status: ('A' for Active; 'I' for Inactive)
REMARK    1  A    between atoms: N1_1  and  C1_2 
REMARK    2  A    between atoms: N2_5  and  C4_6 
REMARK    3  A    between atoms: C4_6  and  C5_7 
REMARK    4  A    between atoms: C9_14  and  N6_15 
REMARK    5  A    between atoms: N6_15  and  C10_16 
ROOT
HETATM    1  C5  UNL     1      22.344   0.619  51.938  1.00  0.00    -0.006 A 
HETATM    2  C6  UNL     1      20.943   0.549  51.819  1.00  0.00     0.030 A 
HETATM    3  C7  UNL     1      20.434  -0.122  52.928  1.00  0.00     0.119 A 
HETATM    4  N3  UNL     1      21.468  -0.485  53.744  1.00  0.00    -0.240 N 
HETATM    5  N4  UNL     1      21.617  -1.179  54.869  1.00  0.00    -0.161 NA
HETATM    6  C8  UNL     1      22.822  -1.436  55.382  1.00  0.00     0.258 A 
HETATM    7  N5  UNL     1      23.911  -0.972  54.746  1.00  0.00    -0.220 NA
HETATM    8  C9  UNL     1      23.822  -0.261  53.617  1.00  0.00     0.159 A 
HETATM    9  C16 UNL     1      22.570  -0.033  53.128  1.00  0.00     0.112 A 
ENDROOT
BRANCH   1  10
HETATM   10  C4  UNL     1      22.857   1.442  50.859  1.00  0.00     0.163 C 
BRANCH  10  11
HETATM   11  N2  UNL     1      22.826   2.896  51.206  1.00  0.00    -0.386 N 
HETATM   12  C3  UNL     1      23.127   3.539  52.414  1.00  0.00     0.084 C 
HETATM   13  C2  UNL     1      23.641   4.770  52.403  1.00  0.00     0.025 C 
HETATM   14  C1  UNL     1      23.902   5.471  51.117  1.00  0.00     0.243 C 
HETATM   15  C18 UNL     1      23.033   5.054  49.986  1.00  0.00     0.059 C 
HETATM   16  C17 UNL     1      22.405   3.715  50.082  1.00  0.00     0.125 C 
BRANCH  14  17
HETATM   17  N1  UNL     1      25.307   5.370  50.756  1.00  0.00     0.086 N 
HETATM   18  H1  UNL     1      25.909   5.978  51.321  1.00  0.00     0.313 HD
HETATM   19  H2  UNL     1      25.559   4.370  50.737  1.00  0.00     0.313 HD
ENDBRANCH  14  17
ENDBRANCH  10  11
ENDBRANCH   1  10
BRANCH   8  20
HETATM   20  N6  UNL     1      24.997   0.156  52.959  1.00  0.00    -0.339 N 
HETATM   21  H11 UNL     1      25.112   0.777  52.160  1.00  0.00     0.167 HD
BRANCH  20  22
HETATM   22  C10 UNL     1      26.385  -0.036  53.164  1.00  0.00     0.035 A 
HETATM   23  C11 UNL     1      26.911  -1.251  52.863  1.00  0.00     0.029 A 
HETATM   24  C12 UNL     1      28.280  -1.466  53.023  1.00  0.00     0.004 A 
HETATM   25  C13 UNL     1      29.118  -0.460  53.488  1.00  0.00     0.024 A 
HETATM   26  C14 UNL     1      28.633   0.781  53.802  1.00  0.00     0.036 A 
HETATM   27 CL1  UNL     1      29.424   2.215  54.395  1.00  0.00    -0.084 Cl
HETATM   28  C15 UNL     1      27.256   0.949  53.623  1.00  0.00     0.053 A 
ENDBRANCH  20  22
ENDBRANCH   8  20
TORSDOF 5
ENDMDL
MODEL 4
REMARK VINA RESULT:      -8.2      2.880      6.876
REMARK  5 active torsions:
REMARK  status: ('A' for Active; 'I' for Inactive)
REMARK    1  A    between atoms: N1_1  and  C1_2 
REMARK    2  A    between atoms: N2_5  and  C4_6 
REMARK    3  A    between atoms: C4_6  and  C5_7 
REMARK    4  A    between atoms: C9_14  and  N6_15 
REMARK    5  A    between atoms: N6_15  and  C10_16 
ROOT
HETATM    1  C5  UNL     1      24.407   0.979  52.446  1.00  0.00    -0.006 A 
HETATM    2  C6  UNL     1      23.635  -0.029  53.055  1.00  0.00     0.030 A 
HETATM    3  C7  UNL     1      22.317   0.412  53.146  1.00  0.00     0.119 A 
HETATM    4  N3  UNL     1      22.230   1.669  52.619  1.00  0.00    -0.240 N 
HETATM    5  N4  UNL     1      21.290   2.602  52.487  1.00  0.00    -0.161 NA
HETATM    6  C8  UNL     1      21.561   3.808  51.982  1.00  0.00     0.258 A 
HETATM    7  N5  UNL     1      22.817   4.079  51.590  1.00  0.00    -0.220 NA
HETATM    8  C9  UNL     1      23.801   3.178  51.690  1.00  0.00     0.159 A 
HETATM    9  C16 UNL     1      23.475   1.965  52.221  1.00  0.00     0.112 A 
ENDROOT
BRANCH   1  10
HETATM   10  C4  UNL     1      25.744   0.462  52.221  1.00  0.00     0.163 C 
BRANCH  10  11
HETATM   11  N2  UNL     1      26.674   0.820  53.336  1.00  0.00    -0.386 N 
HETATM   12  C3  UNL     1      27.076   0.067  54.447  1.00  0.00     0.084 C 
HETATM   13  C2  UNL     1      28.295   0.241  54.963  1.00  0.00     0.025 C 
HETATM   14  C1  UNL     1      29.236   1.227  54.368  1.00  0.00     0.243 C 
HETATM   15  C18 UNL     1      28.591   2.369  53.667  1.00  0.00     0.059 C 
HETATM   16  C17 UNL     1      27.202   2.165  53.193  1.00  0.00     0.125 C 
BRANCH  14  17
HETATM   17  N1  UNL     1      30.193   0.561  53.499  1.00  0.00     0.086 N 
HETATM   18  H1  UNL     1      30.134   0.875  52.525  1.00  0.00     0.313 HD
HETATM   19  H2  UNL     1      31.122   0.623  53.942  1.00  0.00     0.313 HD
ENDBRANCH  14  17
ENDBRANCH  10  11
ENDBRANCH   1  10
BRANCH   8  20
HETATM   20  N6  UNL     1      25.113   3.532  51.315  1.00  0.00    -0.339 N 
HETATM   21  H11 UNL     1      26.006   3.152  51.627  1.00  0.00     0.167 HD
BRANCH  20  22
HETATM   22  C10 UNL     1      25.683   4.427  50.378  1.00  0.00     0.035 A 
HETATM   23  C11 UNL     1      26.734   3.990  49.637  1.00  0.00     0.029 A 
HETATM   24  C12 UNL     1      27.301   4.833  48.682  1.00  0.00     0.004 A 
HETATM   25  C13 UNL     1      26.814   6.118  48.476  1.00  0.00     0.024 A 
HETATM   26  C14 UNL     1      25.756   6.602  49.198  1.00  0.00     0.036 A 
HETATM   27 CL1  UNL     1      24.941   8.141  49.164  1.00  0.00    -0.084 Cl
HETATM   28  C15 UNL     1      25.220   5.718  50.141  1.00  0.00     0.053 A 
ENDBRANCH  20  22
ENDBRANCH   8  20
TORSDOF 5
ENDMDL
MODEL 5
REMARK VINA RESULT:      -8.1      2.714      5.505
REMARK  5 active torsions:
REMARK  status: ('A' for Active; 'I' for Inactive)
REMARK    1  A    between atoms: N1_1  and  C1_2 
REMARK    2  A    between atoms: N2_5  and  C4_6 
REMARK    3  A    between atoms: C4_6  and  C5_7 
REMARK    4  A    between atoms: C9_14  and  N6_15 
REMARK    5  A    between atoms: N6_15  and  C10_16 
ROOT
HETATM    1  C5  UNL     1      23.829   2.290  50.408  1.00  0.00    -0.006 A 
HETATM    2  C6  UNL     1      22.628   2.221  49.676  1.00  0.00     0.030 A 
HETATM    3  C7  UNL     1      21.728   1.416  50.370  1.00  0.00     0.119 A 
HETATM    4  N3  UNL     1      22.321   0.969  51.516  1.00  0.00    -0.240 N 
HETATM    5  N4  UNL     1      22.006   0.146  52.513  1.00  0.00    -0.161 NA
HETATM    6  C8  UNL     1      22.879  -0.159  53.476  1.00  0.00     0.258 A 
HETATM    7  N5  UNL     1      24.105   0.390  53.439  1.00  0.00    -0.220 NA
HETATM    8  C9  UNL     1      24.475   1.230  52.466  1.00  0.00     0.159 A 
HETATM    9  C16 UNL     1      23.551   1.502  51.500  1.00  0.00     0.112 A 
ENDROOT
BRANCH   1  10
HETATM   10  C4  UNL     1      24.710   3.242  49.759  1.00  0.00     0.163 C 
BRANCH  10  11
HETATM   11  N2  UNL     1      24.273   4.654  49.992  1.00  0.00    -0.386 N 
HETATM   12  C3  UNL     1      23.853   5.280  51.173  1.00  0.00     0.084 C 
HETATM   13  C2  UNL     1      24.095   6.579  51.360  1.00  0.00     0.025 C 
HETATM   14  C1  UNL     1      24.812   7.373  50.326  1.00  0.00     0.243 C 
HETATM   15  C18 UNL     1      24.667   6.870  48.935  1.00  0.00     0.059 C 
HETATM   16  C17 UNL     1      24.304   5.442  48.773  1.00  0.00     0.125 C 
BRANCH  14  17
HETATM   17  N1  UNL     1      26.214   7.524  50.679  1.00  0.00     0.086 N 
HETATM   18  H1  UNL     1      26.459   7.047  51.553  1.00  0.00     0.313 HD
HETATM   19  H2  UNL     1      26.779   7.277  49.852  1.00  0.00     0.313 HD
ENDBRANCH  14  17
ENDBRANCH  10  11
ENDBRANCH   1  10
BRANCH   8  20
HETATM   20  N6  UNL     1      25.791   1.735  52.442  1.00  0.00    -0.339 N 
HETATM   21  H11 UNL     1      26.142   2.624  52.089  1.00  0.00     0.167 HD
BRANCH  20  22
HETATM   22  C10 UNL     1      27.046   1.292  52.925  1.00  0.00     0.035 A 
HETATM   23  C11 UNL     1      27.860   2.204  53.514  1.00  0.00     0.029 A 
HETATM   24  C12 UNL     1      29.091   1.798  54.029  1.00  0.00     0.004 A 
HETATM   25  C13 UNL     1      29.503   0.473  53.947  1.00  0.00     0.024 A 
HETATM   26  C14 UNL     1      28.716  -0.483  53.364  1.00  0.00     0.036 A 
HETATM   27 CL1  UNL     1      28.959  -2.190  53.120  1.00  0.00    -0.084 Cl
HETATM   28  C15 UNL     1      27.491  -0.027  52.865  1.00  0.00     0.053 A 
ENDBRANCH  20  22
ENDBRANCH   8  20
TORSDOF 5
ENDMDL
MODEL 6
REMARK VINA RESULT:      -8.1      1.507      4.977
REMARK  5 active torsions:
REMARK  status: ('A' for Active; 'I' for Inactive)
REMARK    1  A    between atoms: N1_1  and  C1_2 
REMARK    2  A    between atoms: N2_5  and  C4_6 
REMARK    3  A    between atoms: C4_6  and  C5_7 
REMARK    4  A    between atoms: C9_14  and  N6_15 
REMARK    5  A    between atoms: N6_15  and  C10_16 
ROOT
HETATM    1  C5  UNL     1      25.660   2.653  50.869  1.00  0.00    -0.006 A 
HETATM    2  C6  UNL     1      26.295   3.658  50.116  1.00  0.00     0.030 A 
HETATM    3  C7  UNL     1      25.519   4.813  50.169  1.00  0.00     0.119 A 
HETATM    4  N3  UNL     1      24.409   4.570  50.928  1.00  0.00    -0.240 N 
HETATM    5  N4  UNL     1      23.309   5.233  51.275  1.00  0.00    -0.161 NA
HETATM    6  C8  UNL     1      22.336   4.657  51.986  1.00  0.00     0.258 A 
HETATM    7  N5  UNL     1      22.481   3.377  52.366  1.00  0.00    -0.220 NA
HETATM    8  C9  UNL     1      23.569   2.664  52.053  1.00  0.00     0.159 A 
HETATM    9  C16 UNL     1      24.530   3.294  51.318  1.00  0.00     0.112 A 
ENDROOT
BRANCH   1  10
HETATM   10  C4  UNL     1      26.540   1.501  50.932  1.00  0.00     0.163 C 
BRANCH  10  11
HETATM   11  N2  UNL     1      27.025   1.246  52.324  1.00  0.00    -0.386 N 
HETATM   12  C3  UNL     1      26.952   0.084  53.102  1.00  0.00     0.084 C 
HETATM   13  C2  UNL     1      27.910  -0.183  53.992  1.00  0.00     0.025 C 
HETATM   14  C1  UNL     1      29.061   0.743  54.166  1.00  0.00     0.243 C 
HETATM   15  C18 UNL     1      28.784   2.163  53.824  1.00  0.00     0.059 C 
HETATM   16  C17 UNL     1      27.650   2.421  52.905  1.00  0.00     0.125 C 
BRANCH  14  17
HETATM   17  N1  UNL     1      30.225   0.253  53.443  1.00  0.00     0.086 N 
HETATM   18  H1  UNL     1      30.045  -0.626  52.946  1.00  0.00     0.313 HD
HETATM   19  H2  UNL     1      30.596   1.030  52.875  1.00  0.00     0.313 HD
ENDBRANCH  14  17
ENDBRANCH  10  11
ENDBRANCH   1  10
BRANCH   8  20
HETATM   20  N6  UNL     1      23.647   1.308  52.429  1.00  0.00    -0.339 N 
HETATM   21  H11 UNL     1      24.424   0.652  52.349  1.00  0.00     0.167 HD
BRANCH  20  22
HETATM   22  C10 UNL     1      22.786   0.395  53.084  1.00  0.00     0.035 A 
HETATM   23  C11 UNL     1      23.307  -0.378  54.070  1.00  0.00     0.029 A 
HETATM   24  C12 UNL     1      22.481  -1.266  54.759  1.00  0.00     0.004 A 
HETATM   25  C13 UNL     1      21.130  -1.379  54.451  1.00  0.00     0.024 A 
HETATM   26  C14 UNL     1      20.559  -0.619  53.466  1.00  0.00     0.036 A 
HETATM   27 CL1  UNL     1      18.926  -0.541  52.867  1.00  0.00    -0.084 Cl
HETATM   28  C15 UNL     1      21.428   0.258  52.807  1.00  0.00     0.053 A 
ENDBRANCH  20  22
ENDBRANCH   8  20
TORSDOF 5
ENDMDL
MODEL 7
REMARK VINA RESULT:      -8.0      3.130      7.090
REMARK  5 active torsions:
REMARK  status: ('A' for Active; 'I' for Inactive)
REMARK    1  A    between atoms: N1_1  and  C1_2 
REMARK    2  A    between atoms: N2_5  and  C4_6 
REMARK    3  A    between atoms: C4_6  and  C5_7 
REMARK    4  A    between atoms: C9_14  and  N6_15 
REMARK    5  A    between atoms: N6_15  and  C10_16 
ROOT
HETATM    1  C5  UNL     1      23.711   1.890  52.222  1.00  0.00    -0.006 A 
HETATM    2  C6  UNL     1      22.733   1.034  52.761  1.00  0.00     0.030 A 
HETATM    3  C7  UNL     1      21.848   0.674  51.747  1.00  0.00     0.119 A 
HETATM    4  N3  UNL     1      22.231   1.278  50.584  1.00  0.00    -0.240 N 
HETATM    5  N4  UNL     1      21.766   1.369  49.341  1.00  0.00    -0.161 NA
HETATM    6  C8  UNL     1      22.355   2.143  48.425  1.00  0.00     0.258 A 
HETATM    7  N5  UNL     1      23.452   2.838  48.771  1.00  0.00    -0.220 NA
HETATM    8  C9  UNL     1      23.969   2.778  50.003  1.00  0.00     0.159 A 
HETATM    9  C16 UNL     1      23.326   1.982  50.904  1.00  0.00     0.112 A 
ENDROOT
BRANCH   1  10
HETATM   10  C4  UNL     1      24.711   2.147  53.241  1.00  0.00     0.163 C 
BRANCH  10  11
HETATM   11  N2  UNL     1      26.042   1.574  52.872  1.00  0.00    -0.386 N 
HETATM   12  C3  UNL     1      27.315   2.160  52.914  1.00  0.00     0.084 C 
HETATM   13  C2  UNL     1      28.387   1.403  53.157  1.00  0.00     0.025 C 
HETATM   14  C1  UNL     1      28.247  -0.059  53.387  1.00  0.00     0.243 C 
HETATM   15  C18 UNL     1      27.066  -0.688  52.738  1.00  0.00     0.059 C 
HETATM   16  C17 UNL     1      25.934   0.206  52.398  1.00  0.00     0.125 C 
BRANCH  14  17
HETATM   17  N1  UNL     1      28.276  -0.358  54.810  1.00  0.00     0.086 N 
HETATM   18  H1  UNL     1      27.434  -0.848  55.132  1.00  0.00     0.313 HD
HETATM   19  H2  UNL     1      29.176  -0.813  55.021  1.00  0.00     0.313 HD
ENDBRANCH  14  17
ENDBRANCH  10  11
ENDBRANCH   1  10
BRANCH   8  20
HETATM   20  N6  UNL     1      25.088   3.570  50.330  1.00  0.00    -0.339 N 
HETATM   21  H11 UNL     1      25.657   3.579  51.176  1.00  0.00     0.167 HD
BRANCH  20  22
HETATM   22  C10 UNL     1      25.865   4.540  49.652  1.00  0.00     0.035 A 
HETATM   23  C11 UNL     1      27.096   4.175  49.209  1.00  0.00     0.029 A 
HETATM   24  C12 UNL     1      27.876   5.095  48.510  1.00  0.00     0.004 A 
HETATM   25  C13 UNL     1      27.420   6.384  48.260  1.00  0.00     0.024 A 
HETATM   26  C14 UNL     1      26.186   6.797  48.685  1.00  0.00     0.036 A 
HETATM   27 CL1  UNL     1      25.358   8.320  48.524  1.00  0.00    -0.084 Cl
HETATM   28  C15 UNL     1      25.440   5.838  49.379  1.00  0.00     0.053 A 
ENDBRANCH  20  22
ENDBRANCH   8  20
TORSDOF 5
ENDMDL
MODEL 8
REMARK VINA RESULT:      -7.8      2.933      6.220
REMARK  5 active torsions:
REMARK  status: ('A' for Active; 'I' for Inactive)
REMARK    1  A    between atoms: N1_1  and  C1_2 
REMARK    2  A    between atoms: N2_5  and  C4_6 
REMARK    3  A    between atoms: C4_6  and  C5_7 
REMARK    4  A    between atoms: C9_14  and  N6_15 
REMARK    5  A    between atoms: N6_15  and  C10_16 
ROOT
HETATM    1  C5  UNL     1      23.900   4.602  51.368  1.00  0.00    -0.006 A 
HETATM    2  C6  UNL     1      23.172   5.616  50.717  1.00  0.00     0.030 A 
HETATM    3  C7  UNL     1      23.867   5.999  49.573  1.00  0.00     0.119 A 
HETATM    4  N3  UNL     1      25.015   5.265  49.480  1.00  0.00    -0.240 N 
HETATM    5  N4  UNL     1      26.077   5.224  48.679  1.00  0.00    -0.161 NA
HETATM    6  C8  UNL     1      27.110   4.414  48.924  1.00  0.00     0.258 A 
HETATM    7  N5  UNL     1      27.068   3.615  50.003  1.00  0.00    -0.220 NA
HETATM    8  C9  UNL     1      26.023   3.608  50.838  1.00  0.00     0.159 A 
HETATM    9  C16 UNL     1      24.997   4.459  50.551  1.00  0.00     0.112 A 
ENDROOT
BRANCH   1  10
HETATM   10  C4  UNL     1      23.107   4.104  52.476  1.00  0.00     0.163 C 
BRANCH  10  11
HETATM   11  N2  UNL     1      22.310   2.898  52.092  1.00  0.00    -0.386 N 
HETATM   12  C3  UNL     1      22.736   1.666  51.579  1.00  0.00     0.084 C 
HETATM   13  C2  UNL     1      22.057   0.554  51.867  1.00  0.00     0.025 C 
HETATM   14  C1  UNL     1      20.849   0.607  52.734  1.00  0.00     0.243 C 
HETATM   15  C18 UNL     1      20.119   1.902  52.716  1.00  0.00     0.059 C 
HETATM   16  C17 UNL     1      20.886   3.098  52.298  1.00  0.00     0.125 C 
BRANCH  14  17
HETATM   17  N1  UNL     1      21.180   0.218  54.096  1.00  0.00     0.086 N 
HETATM   18  H1  UNL     1      20.375  -0.154  54.611  1.00  0.00     0.313 HD
HETATM   19  H2  UNL     1      22.016  -0.385  54.060  1.00  0.00     0.313 HD
ENDBRANCH  14  17
ENDBRANCH  10  11
ENDBRANCH   1  10
BRANCH   8  20
HETATM   20  N6  UNL     1      26.053   2.791  51.987  1.00  0.00    -0.339 N 
HETATM   21  H11 UNL     1      25.398   2.738  52.766  1.00  0.00     0.167 HD
BRANCH  20  22
HETATM   22  C10 UNL     1      26.885   1.746  52.455  1.00  0.00     0.035 A 
HETATM   23  C11 UNL     1      27.981   2.082  53.183  1.00  0.00     0.029 A 
HETATM   24  C12 UNL     1      28.806   1.078  53.688  1.00  0.00     0.004 A 
HETATM   25  C13 UNL     1      28.531  -0.265  53.456  1.00  0.00     0.024 A 
HETATM   26  C14 UNL     1      27.437  -0.652  52.730  1.00  0.00     0.036 A 
HETATM   27 CL1  UNL     1      26.844  -2.227  52.283  1.00  0.00    -0.084 Cl
HETATM   28  C15 UNL     1      26.639   0.391  52.248  1.00  0.00     0.053 A 
ENDBRANCH  20  22
ENDBRANCH   8  20
TORSDOF 5
ENDMDL
MODEL 9
REMARK VINA RESULT:      -7.8      3.165      5.629
REMARK  5 active torsions:
REMARK  status: ('A' for Active; 'I' for Inactive)
REMARK    1  A    between atoms: N1_1  and  C1_2 
REMARK    2  A    between atoms: N2_5  and  C4_6 
REMARK    3  A    between atoms: C4_6  and  C5_7 
REMARK    4  A    between atoms: C9_14  and  N6_15 
REMARK    5  A    between atoms: N6_15  and  C10_16 
ROOT
HETATM    1  C5  UNL     1      22.616   3.727  51.699  1.00  0.00    -0.006 A 
HETATM    2  C6  UNL     1      21.562   4.655  51.602  1.00  0.00     0.030 A 
HETATM    3  C7  UNL     1      20.354   3.965  51.671  1.00  0.00     0.119 A 
HETATM    4  N3  UNL     1      20.608   2.630  51.804  1.00  0.00    -0.240 N 
HETATM    5  N4  UNL     1      19.895   1.508  51.850  1.00  0.00    -0.161 NA
HETATM    6  C8  UNL     1      20.477   0.307  51.899  1.00  0.00     0.258 A 
HETATM    7  N5  UNL     1      21.818   0.235  51.910  1.00  0.00    -0.220 NA
HETATM    8  C9  UNL     1      22.586   1.330  51.874  1.00  0.00     0.159 A 
HETATM    9  C16 UNL     1      21.945   2.532  51.815  1.00  0.00     0.112 A 
ENDROOT
BRANCH   1  10
HETATM   10  C4  UNL     1      23.867   4.458  51.773  1.00  0.00     0.163 C 
BRANCH  10  11
HETATM   11  N2  UNL     1      24.427   4.742  50.416  1.00  0.00    -0.386 N 
HETATM   12  C3  UNL     1      24.042   5.698  49.467  1.00  0.00     0.084 C 
HETATM   13  C2  UNL     1      24.952   6.230  48.649  1.00  0.00     0.025 C 
HETATM   14  C1  UNL     1      26.379   5.820  48.735  1.00  0.00     0.243 C 
HETATM   15  C18 UNL     1      26.609   4.447  49.259  1.00  0.00     0.059 C 
HETATM   16  C17 UNL     1      25.530   3.857  50.085  1.00  0.00     0.125 C 
BRANCH  14  17
HETATM   17  N1  UNL     1      27.148   6.797  49.490  1.00  0.00     0.086 N 
HETATM   18  H1  UNL     1      26.612   7.644  49.707  1.00  0.00     0.313 HD
HETATM   19  H2  UNL     1      27.578   6.312  50.292  1.00  0.00     0.313 HD
ENDBRANCH  14  17
ENDBRANCH  10  11
ENDBRANCH   1  10
BRANCH   8  20
HETATM   20  N6  UNL     1      23.989   1.198  51.832  1.00  0.00    -0.339 N 
HETATM   21  H11 UNL     1      24.632   1.308  51.048  1.00  0.00     0.167 HD
BRANCH  20  22
HETATM   22  C10 UNL     1      25.004   0.956  52.788  1.00  0.00     0.035 A 
HETATM   23  C11 UNL     1      24.822  -0.061  53.668  1.00  0.00     0.029 A 
HETATM   24  C12 UNL     1      25.815  -0.349  54.604  1.00  0.00     0.004 A 
HETATM   25  C13 UNL     1      26.991   0.391  54.656  1.00  0.00     0.024 A 
HETATM   26  C14 UNL     1      27.220   1.425  53.789  1.00  0.00     0.036 A 
HETATM   27 CL1  UNL     1      28.570   2.511  53.616  1.00  0.00    -0.084 Cl
HETATM   28  C15 UNL     1      26.196   1.672  52.868  1.00  0.00     0.053 A 
ENDBRANCH  20  22
ENDBRANCH   8  20
TORSDOF 5
ENDMDL
