MODEL 1
REMARK VINA RESULT:      -8.5      0.000      0.000
REMARK  3 active torsions:
REMARK  status: ('A' for Active; 'I' for Inactive)
REMARK    1  A    between atoms: C2_2  and  C3_3 
REMARK       I    between atoms: C3_3  and  N1_5 
REMARK    2  A    between atoms: N1_5  and  C4_6 
REMARK    3  A    between atoms: C9_11  and  O2_12 
ROOT
HETATM    1  C4  UNL     1      25.667   3.216  51.274  1.00  0.00     0.070 A 
HETATM    2  C5  UNL     1      24.304   3.078  51.199  1.00  0.00     0.066 A 
HETATM    3  C6  UNL     1      23.599   2.109  51.878  1.00  0.00     0.082 A 
HETATM    4  C7  UNL     1      24.333   1.222  52.688  1.00  0.00     0.088 A 
HETATM    5  C8  UNL     1      25.706   1.344  52.777  1.00  0.00     0.073 A 
HETATM    6  C9  UNL     1      26.351   2.328  52.078  1.00  0.00     0.097 A 
HETATM    7  N2  UNL     1      23.834   0.270  53.384  1.00  0.00    -0.245 N 
HETATM    8  C11 UNL     1      24.463  -0.664  54.216  1.00  0.00     0.227 A 
HETATM    9  N3  UNL     1      23.212  -0.750  53.959  1.00  0.00    -0.278 N 
HETATM   10  C12 UNL     1      22.246  -1.688  54.388  1.00  0.00     0.152 C 
HETATM   11  C13 UNL     1      20.856  -1.048  54.572  1.00  0.00     0.047 C 
HETATM   12  C14 UNL     1      20.486  -0.455  53.258  1.00  0.00     0.103 C 
HETATM   13  C15 UNL     1      20.401   1.048  53.410  1.00  0.00     0.022 C 
HETATM   14  C16 UNL     1      20.106   1.158  52.091  1.00  0.00     0.040 C 
HETATM   15  C17 UNL     1      21.148   2.123  51.540  1.00  0.00     0.207 C 
HETATM   16  N4  UNL     1      22.431   1.753  52.007  1.00  0.00    -0.281 NA
HETATM   17  N5  UNL     1      18.963   0.311  51.826  1.00  0.00    -0.319 N 
HETATM   18  C18 UNL     1      18.178   0.767  50.691  1.00  0.00     0.171 C 
HETATM   19  N6  UNL     1      19.100  -0.678  52.851  1.00  0.00    -0.230 NA
HETATM   20  H24 UNL     1      18.532  -0.421  53.694  1.00  0.00     0.147 HD
ENDROOT
BRANCH   1  21
HETATM   21  N1  UNL     1      26.187   4.280  50.494  1.00  0.00    -0.325 N 
HETATM   22  C3  UNL     1      26.905   4.089  49.292  1.00  0.00     0.221 C 
HETATM   23  O1  UNL     1      27.084   2.919  48.905  1.00  0.00    -0.273 OA
HETATM   24  H6  UNL     1      25.937   5.161  50.975  1.00  0.00     0.169 HD
BRANCH  22  25
HETATM   25  C2  UNL     1      27.340   5.386  48.673  1.00  0.00     0.098 C 
HETATM   26  C1  UNL     1      28.800   5.318  48.279  1.00  0.00     0.014 C 
ENDBRANCH  22  25
ENDBRANCH   1  21
BRANCH   6  27
HETATM   27  O2  UNL     1      27.742   2.530  52.105  1.00  0.00    -0.354 OA
HETATM   28  C10 UNL     1      28.367   2.370  53.376  1.00  0.00     0.210 C 
ENDBRANCH   6  27
TORSDOF 3
ENDMDL
MODEL 2
REMARK VINA RESULT:      -8.4      2.542      5.033
REMARK  3 active torsions:
REMARK  status: ('A' for Active; 'I' for Inactive)
REMARK    1  A    between atoms: C2_2  and  C3_3 
REMARK       I    between atoms: C3_3  and  N1_5 
REMARK    2  A    between atoms: N1_5  and  C4_6 
REMARK    3  A    between atoms: C9_11  and  O2_12 
ROOT
HETATM    1  C4  UNL     1      25.515   4.812  49.296  1.00  0.00     0.070 A 
HETATM    2  C5  UNL     1      26.223   3.936  50.079  1.00  0.00     0.066 A 
HETATM    3  C6  UNL     1      25.633   2.994  50.893  1.00  0.00     0.082 A 
HETATM    4  C7  UNL     1      24.227   2.943  50.910  1.00  0.00     0.088 A 
HETATM    5  C8  UNL     1      23.496   3.818  50.130  1.00  0.00     0.073 A 
HETATM    6  C9  UNL     1      24.139   4.731  49.341  1.00  0.00     0.097 A 
HETATM    7  N2  UNL     1      23.524   2.130  51.607  1.00  0.00    -0.245 N 
HETATM    8  C11 UNL     1      22.133   1.993  51.701  1.00  0.00     0.227 A 
HETATM    9  N3  UNL     1      22.914   1.323  52.463  1.00  0.00    -0.278 N 
HETATM   10  C12 UNL     1      22.625   0.383  53.477  1.00  0.00     0.152 C 
HETATM   11  C13 UNL     1      23.689  -0.729  53.559  1.00  0.00     0.047 C 
HETATM   12  C14 UNL     1      24.991  -0.051  53.805  1.00  0.00     0.103 C 
HETATM   13  C15 UNL     1      25.890  -0.276  52.609  1.00  0.00     0.022 C 
HETATM   14  C16 UNL     1      26.852   0.475  53.199  1.00  0.00     0.040 C 
HETATM   15  C17 UNL     1      27.183   1.555  52.177  1.00  0.00     0.207 C 
HETATM   16  N4  UNL     1      25.985   2.111  51.670  1.00  0.00    -0.281 NA
HETATM   17  N5  UNL     1      27.103  -0.087  54.509  1.00  0.00    -0.319 N 
HETATM   18  C18 UNL     1      28.450   0.181  54.986  1.00  0.00     0.171 C 
HETATM   19  N6  UNL     1      25.844  -0.700  54.800  1.00  0.00    -0.230 NA
HETATM   20  H24 UNL     1      25.850  -1.711  54.524  1.00  0.00     0.147 HD
ENDROOT
BRANCH   1  21
HETATM   21  N1  UNL     1      26.323   5.697  48.537  1.00  0.00    -0.325 N 
HETATM   22  C3  UNL     1      26.660   7.003  48.957  1.00  0.00     0.221 C 
HETATM   23  O1  UNL     1      26.219   7.388  50.057  1.00  0.00    -0.273 OA
HETATM   24  H6  UNL     1      26.587   5.199  47.670  1.00  0.00     0.169 HD
BRANCH  22  25
HETATM   25  C2  UNL     1      27.524   7.719  47.961  1.00  0.00     0.098 C 
HETATM   26  C1  UNL     1      28.694   6.848  47.557  1.00  0.00     0.014 C 
ENDBRANCH  22  25
ENDBRANCH   1  21
BRANCH   6  27
HETATM   27  O2  UNL     1      23.481   5.660  48.515  1.00  0.00    -0.354 OA
HETATM   28  C10 UNL     1      22.761   6.688  49.188  1.00  0.00     0.210 C 
ENDBRANCH   6  27
TORSDOF 3
ENDMDL
MODEL 3
REMARK VINA RESULT:      -8.2      2.617      4.894
REMARK  3 active torsions:
REMARK  status: ('A' for Active; 'I' for Inactive)
REMARK    1  A    between atoms: C2_2  and  C3_3 
REMARK       I    between atoms: C3_3  and  N1_5 
REMARK    2  A    between atoms: N1_5  and  C4_6 
REMARK    3  A    between atoms: C9_11  and  O2_12 
ROOT
HETATM    1  C4  UNL     1      25.936   0.374  52.873  1.00  0.00     0.070 A 
HETATM    2  C5  UNL     1      25.561   1.361  51.998  1.00  0.00     0.066 A 
HETATM    3  C6  UNL     1      24.261   1.793  51.849  1.00  0.00     0.082 A 
HETATM    4  C7  UNL     1      23.279   1.176  52.646  1.00  0.00     0.088 A 
HETATM    5  C8  UNL     1      23.636   0.180  53.533  1.00  0.00     0.073 A 
HETATM    6  C9  UNL     1      24.944  -0.206  53.636  1.00  0.00     0.097 A 
HETATM    7  N2  UNL     1      22.030   1.459  52.632  1.00  0.00    -0.245 N 
HETATM    8  C11 UNL     1      20.974   0.914  53.374  1.00  0.00     0.227 A 
HETATM    9  N3  UNL     1      20.753   1.758  52.437  1.00  0.00    -0.278 N 
HETATM   10  C12 UNL     1      19.541   2.301  51.955  1.00  0.00     0.152 C 
HETATM   11  C13 UNL     1      19.706   3.759  51.480  1.00  0.00     0.047 C 
HETATM   12  C14 UNL     1      20.751   3.743  50.420  1.00  0.00     0.103 C 
HETATM   13  C15 UNL     1      21.949   4.526  50.908  1.00  0.00     0.022 C 
HETATM   14  C16 UNL     1      22.598   4.240  49.752  1.00  0.00     0.040 C 
HETATM   15  C17 UNL     1      23.907   3.595  50.191  1.00  0.00     0.207 C 
HETATM   16  N4  UNL     1      23.645   2.620  51.181  1.00  0.00    -0.281 NA
HETATM   17  N5  UNL     1      21.751   4.665  48.658  1.00  0.00    -0.319 N 
HETATM   18  C18 UNL     1      22.505   4.996  47.460  1.00  0.00     0.171 C 
HETATM   19  N6  UNL     1      20.453   4.569  49.251  1.00  0.00    -0.230 NA
HETATM   20  H24 UNL     1      20.157   5.493  49.649  1.00  0.00     0.147 HD
ENDROOT
BRANCH   1  21
HETATM   21  N1  UNL     1      27.325   0.087  52.864  1.00  0.00    -0.325 N 
HETATM   22  C3  UNL     1      28.236   0.606  53.811  1.00  0.00     0.221 C 
HETATM   23  O1  UNL     1      27.784   1.355  54.698  1.00  0.00    -0.273 OA
HETATM   24  H6  UNL     1      27.500  -0.544  52.063  1.00  0.00     0.169 HD
BRANCH  22  25
HETATM   25  C2  UNL     1      29.642   0.141  53.566  1.00  0.00     0.098 C 
HETATM   26  C1  UNL     1      29.695  -1.371  53.512  1.00  0.00     0.014 C 
ENDBRANCH  22  25
ENDBRANCH   1  21
BRANCH   6  27
HETATM   27  O2  UNL     1      25.403  -1.209  54.509  1.00  0.00    -0.354 OA
HETATM   28  C10 UNL     1      24.836  -1.200  55.817  1.00  0.00     0.210 C 
ENDBRANCH   6  27
TORSDOF 3
ENDMDL
MODEL 4
REMARK VINA RESULT:      -8.0      2.838      5.927
REMARK  3 active torsions:
REMARK  status: ('A' for Active; 'I' for Inactive)
REMARK    1  A    between atoms: C2_2  and  C3_3 
REMARK       I    between atoms: C3_3  and  N1_5 
REMARK    2  A    between atoms: N1_5  and  C4_6 
REMARK    3  A    between atoms: C9_11  and  O2_12 
ROOT
HETATM    1  C4  UNL     1      26.282   0.830  52.446  1.00  0.00     0.070 A 
HETATM    2  C5  UNL     1      26.297   2.029  51.780  1.00  0.00     0.066 A 
HETATM    3  C6  UNL     1      25.166   2.774  51.529  1.00  0.00     0.082 A 
HETATM    4  C7  UNL     1      23.938   2.262  51.988  1.00  0.00     0.088 A 
HETATM    5  C8  UNL     1      23.901   1.056  52.659  1.00  0.00     0.073 A 
HETATM    6  C9  UNL     1      25.059   0.361  52.879  1.00  0.00     0.097 A 
HETATM    7  N2  UNL     1      22.798   2.827  51.839  1.00  0.00    -0.245 N 
HETATM    8  C11 UNL     1      21.525   2.412  52.249  1.00  0.00     0.227 A 
HETATM    9  N3  UNL     1      21.674   3.450  51.516  1.00  0.00    -0.278 N 
HETATM   10  C12 UNL     1      20.719   4.347  50.986  1.00  0.00     0.152 C 
HETATM   11  C13 UNL     1      21.258   5.789  50.903  1.00  0.00     0.047 C 
HETATM   12  C14 UNL     1      22.479   5.735  50.053  1.00  0.00     0.103 C 
HETATM   13  C15 UNL     1      23.677   6.104  50.900  1.00  0.00     0.022 C 
HETATM   14  C16 UNL     1      24.486   5.905  49.830  1.00  0.00     0.040 C 
HETATM   15  C17 UNL     1      25.523   4.898  50.310  1.00  0.00     0.207 C 
HETATM   16  N4  UNL     1      24.876   3.837  50.986  1.00  0.00    -0.281 NA
HETATM   17  N5  UNL     1      23.986   6.722  48.745  1.00  0.00    -0.319 N 
HETATM   18  C18 UNL     1      25.024   7.095  47.798  1.00  0.00     0.171 C 
HETATM   19  N6  UNL     1      22.599   6.820  49.081  1.00  0.00    -0.230 NA
HETATM   20  H24 UNL     1      22.410   7.692  49.633  1.00  0.00     0.147 HD
ENDROOT
BRANCH   1  21
HETATM   21  N1  UNL     1      27.559   0.231  52.595  1.00  0.00    -0.325 N 
HETATM   22  C3  UNL     1      28.366   0.386  53.745  1.00  0.00     0.221 C 
HETATM   23  O1  UNL     1      27.920   1.088  54.673  1.00  0.00    -0.273 OA
HETATM   24  H6  UNL     1      27.747  -0.304  51.730  1.00  0.00     0.169 HD
BRANCH  22  25
HETATM   25  C2  UNL     1      29.667  -0.354  53.635  1.00  0.00     0.098 C 
HETATM   26  C1  UNL     1      29.417  -1.815  53.328  1.00  0.00     0.014 C 
ENDBRANCH  22  25
ENDBRANCH   1  21
BRANCH   6  27
HETATM   27  O2  UNL     1      25.121  -0.872  53.552  1.00  0.00    -0.354 OA
HETATM   28  C10 UNL     1      24.710  -0.856  54.917  1.00  0.00     0.210 C 
ENDBRANCH   6  27
TORSDOF 3
ENDMDL
MODEL 5
REMARK VINA RESULT:      -7.9      2.802      4.153
REMARK  3 active torsions:
REMARK  status: ('A' for Active; 'I' for Inactive)
REMARK    1  A    between atoms: C2_2  and  C3_3 
REMARK       I    between atoms: C3_3  and  N1_5 
REMARK    2  A    between atoms: N1_5  and  C4_6 
REMARK    3  A    between atoms: C9_11  and  O2_12 
ROOT
HETATM    1  C4  UNL     1      25.159   0.463  52.802  1.00  0.00     0.070 A 
HETATM    2  C5  UNL     1      24.431   1.162  51.873  1.00  0.00     0.066 A 
HETATM    3  C6  UNL     1      23.062   1.070  51.752  1.00  0.00     0.082 A 
HETATM    4  C7  UNL     1      22.391   0.205  52.637  1.00  0.00     0.088 A 
HETATM    5  C8  UNL     1      23.106  -0.508  53.579  1.00  0.00     0.073 A 
HETATM    6  C9  UNL     1      24.465  -0.374  53.651  1.00  0.00     0.097 A 
HETATM    7  N2  UNL     1      21.126   0.005  52.659  1.00  0.00    -0.245 N 
HETATM    8  C11 UNL     1      20.359  -0.824  53.488  1.00  0.00     0.227 A 
HETATM    9  N3  UNL     1      19.827  -0.206  52.501  1.00  0.00    -0.278 N 
HETATM   10  C12 UNL     1      18.493  -0.191  52.036  1.00  0.00     0.152 C 
HETATM   11  C13 UNL     1      18.097   1.177  51.447  1.00  0.00     0.047 C 
HETATM   12  C14 UNL     1      19.058   1.456  50.344  1.00  0.00     0.103 C 
HETATM   13  C15 UNL     1      19.887   2.665  50.715  1.00  0.00     0.022 C 
HETATM   14  C16 UNL     1      20.578   2.539  49.556  1.00  0.00     0.040 C 
HETATM   15  C17 UNL     1      22.039   2.463  49.982  1.00  0.00     0.207 C 
HETATM   16  N4  UNL     1      22.173   1.550  51.053  1.00  0.00    -0.281 NA
HETATM   17  N5  UNL     1      19.618   2.525  48.473  1.00  0.00    -0.319 N 
HETATM   18  C18 UNL     1      20.178   3.006  47.220  1.00  0.00     0.171 C 
HETATM   19  N6  UNL     1      18.457   2.010  49.131  1.00  0.00    -0.230 NA
HETATM   20  H24 UNL     1      17.845   2.790  49.472  1.00  0.00     0.147 HD
ENDROOT
BRANCH   1  21
HETATM   21  N1  UNL     1      26.555   0.708  52.751  1.00  0.00    -0.325 N 
HETATM   22  C3  UNL     1      27.219   1.625  53.597  1.00  0.00     0.221 C 
HETATM   23  O1  UNL     1      26.530   2.246  54.430  1.00  0.00    -0.273 OA
HETATM   24  H6  UNL     1      26.943   0.105  52.005  1.00  0.00     0.169 HD
BRANCH  22  25
HETATM   25  C2  UNL     1      28.694   1.688  53.327  1.00  0.00     0.098 C 
HETATM   26  C1  UNL     1      29.383   0.460  53.883  1.00  0.00     0.014 C 
ENDBRANCH  22  25
ENDBRANCH   1  21
BRANCH   6  27
HETATM   27  O2  UNL     1      25.276  -1.057  54.574  1.00  0.00    -0.354 OA
HETATM   28  C10 UNL     1      24.722  -1.234  55.875  1.00  0.00     0.210 C 
ENDBRANCH   6  27
TORSDOF 3
ENDMDL
MODEL 6
REMARK VINA RESULT:      -7.9      5.419      9.246
REMARK  3 active torsions:
REMARK  status: ('A' for Active; 'I' for Inactive)
REMARK    1  A    between atoms: C2_2  and  C3_3 
REMARK       I    between atoms: C3_3  and  N1_5 
REMARK    2  A    between atoms: N1_5  and  C4_6 
REMARK    3  A    between atoms: C9_11  and  O2_12 
ROOT
HETATM    1  C4  UNL     1      31.988   5.831  47.147  1.00  0.00     0.070 A 
HETATM    2  C5  UNL     1      30.776   5.296  47.501  1.00  0.00     0.066 A 
HETATM    3  C6  UNL     1      29.756   6.029  48.068  1.00  0.00     0.082 A 
HETATM    4  C7  UNL     1      29.991   7.399  48.289  1.00  0.00     0.088 A 
HETATM    5  C8  UNL     1      31.205   7.956  47.941  1.00  0.00     0.073 A 
HETATM    6  C9  UNL     1      32.179   7.177  47.380  1.00  0.00     0.097 A 
HETATM    7  N2  UNL     1      29.152   8.219  48.804  1.00  0.00    -0.245 N 
HETATM    8  C11 UNL     1      29.277   9.588  49.069  1.00  0.00     0.227 A 
HETATM    9  N3  UNL     1      28.246   8.935  49.456  1.00  0.00    -0.278 N 
HETATM   10  C12 UNL     1      27.100   9.359  50.164  1.00  0.00     0.152 C 
HETATM   11  C13 UNL     1      25.833   8.595  49.732  1.00  0.00     0.047 C 
HETATM   12  C14 UNL     1      26.110   7.151  49.966  1.00  0.00     0.103 C 
HETATM   13  C15 UNL     1      26.121   6.436  48.633  1.00  0.00     0.022 C 
HETATM   14  C16 UNL     1      26.419   5.275  49.267  1.00  0.00     0.040 C 
HETATM   15  C17 UNL     1      27.687   4.775  48.587  1.00  0.00     0.207 C 
HETATM   16  N4  UNL     1      28.612   5.839  48.471  1.00  0.00    -0.281 NA
HETATM   17  N5  UNL     1      25.411   5.061  50.285  1.00  0.00    -0.319 N 
HETATM   18  C18 UNL     1      25.224   3.655  50.602  1.00  0.00     0.171 C 
HETATM   19  N6  UNL     1      25.006   6.404  50.567  1.00  0.00    -0.230 NA
HETATM   20  H24 UNL     1      24.167   6.667  49.996  1.00  0.00     0.147 HD
ENDROOT
BRANCH   1  21
HETATM   21  N1  UNL     1      32.892   4.897  46.579  1.00  0.00    -0.325 N 
HETATM   22  C3  UNL     1      33.956   4.303  47.295  1.00  0.00     0.221 C 
HETATM   23  O1  UNL     1      34.097   4.624  48.491  1.00  0.00    -0.273 OA
HETATM   24  H6  UNL     1      32.612   4.764  45.592  1.00  0.00     0.169 HD
BRANCH  22  25
HETATM   25  C2  UNL     1      34.755   3.354  46.451  1.00  0.00     0.098 C 
HETATM   26  C1  UNL     1      35.064   3.978  45.107  1.00  0.00     0.014 C 
ENDBRANCH  22  25
ENDBRANCH   1  21
BRANCH   6  27
HETATM   27  O2  UNL     1      33.444   7.654  46.993  1.00  0.00    -0.354 OA
HETATM   28  C10 UNL     1      34.312   8.041  48.055  1.00  0.00     0.210 C 
ENDBRANCH   6  27
TORSDOF 3
ENDMDL
MODEL 7
REMARK VINA RESULT:      -7.5      2.880      5.584
REMARK  3 active torsions:
REMARK  status: ('A' for Active; 'I' for Inactive)
REMARK    1  A    between atoms: C2_2  and  C3_3 
REMARK       I    between atoms: C3_3  and  N1_5 
REMARK    2  A    between atoms: N1_5  and  C4_6 
REMARK    3  A    between atoms: C9_11  and  O2_12 
ROOT
HETATM    1  C4  UNL     1      23.301   3.869  49.182  1.00  0.00     0.070 A 
HETATM    2  C5  UNL     1      24.480   3.540  49.802  1.00  0.00     0.066 A 
HETATM    3  C6  UNL     1      24.583   2.576  50.781  1.00  0.00     0.082 A 
HETATM    4  C7  UNL     1      23.403   1.904  51.153  1.00  0.00     0.088 A 
HETATM    5  C8  UNL     1      22.206   2.221  50.541  1.00  0.00     0.073 A 
HETATM    6  C9  UNL     1      22.168   3.188  49.575  1.00  0.00     0.097 A 
HETATM    7  N2  UNL     1      23.325   0.985  52.041  1.00  0.00    -0.245 N 
HETATM    8  C11 UNL     1      22.216   0.255  52.487  1.00  0.00     0.227 A 
HETATM    9  N3  UNL     1      23.355   0.137  53.059  1.00  0.00    -0.278 N 
HETATM   10  C12 UNL     1      23.756  -0.658  54.156  1.00  0.00     0.152 C 
HETATM   11  C13 UNL     1      25.212  -1.147  54.020  1.00  0.00     0.047 C 
HETATM   12  C14 UNL     1      26.057   0.073  53.899  1.00  0.00     0.103 C 
HETATM   13  C15 UNL     1      26.694   0.088  52.527  1.00  0.00     0.022 C 
HETATM   14  C16 UNL     1      27.282   1.274  52.821  1.00  0.00     0.040 C 
HETATM   15  C17 UNL     1      26.850   2.210  51.699  1.00  0.00     0.207 C 
HETATM   16  N4  UNL     1      25.458   2.082  51.485  1.00  0.00    -0.281 NA
HETATM   17  N5  UNL     1      28.026   1.101  54.051  1.00  0.00    -0.319 N 
HETATM   18  C18 UNL     1      29.150   2.016  54.161  1.00  0.00     0.171 C 
HETATM   19  N6  UNL     1      27.294   0.043  54.677  1.00  0.00    -0.230 NA
HETATM   20  H24 UNL     1      27.723  -0.888  54.455  1.00  0.00     0.147 HD
ENDROOT
BRANCH   1  21
HETATM   21  N1  UNL     1      23.423   4.889  48.204  1.00  0.00    -0.325 N 
HETATM   22  C3  UNL     1      23.260   6.265  48.484  1.00  0.00     0.221 C 
HETATM   23  O1  UNL     1      22.996   6.588  49.658  1.00  0.00    -0.273 OA
HETATM   24  H6  UNL     1      23.642   4.425  47.306  1.00  0.00     0.169 HD
BRANCH  22  25
HETATM   25  C2  UNL     1      23.443   7.122  47.266  1.00  0.00     0.098 C 
HETATM   26  C1  UNL     1      24.828   7.734  47.255  1.00  0.00     0.014 C 
ENDBRANCH  22  25
ENDBRANCH   1  21
BRANCH   6  27
HETATM   27  O2  UNL     1      20.999   3.579  48.898  1.00  0.00    -0.354 OA
HETATM   28  C10 UNL     1      20.048   2.545  48.655  1.00  0.00     0.210 C 
ENDBRANCH   6  27
TORSDOF 3
ENDMDL
MODEL 8
REMARK VINA RESULT:      -7.5      3.614      6.691
REMARK  3 active torsions:
REMARK  status: ('A' for Active; 'I' for Inactive)
REMARK    1  A    between atoms: C2_2  and  C3_3 
REMARK       I    between atoms: C3_3  and  N1_5 
REMARK    2  A    between atoms: N1_5  and  C4_6 
REMARK    3  A    between atoms: C9_11  and  O2_12 
ROOT
HETATM    1  C4  UNL     1      29.117   6.006  48.134  1.00  0.00     0.070 A 
HETATM    2  C5  UNL     1      28.167   5.072  48.463  1.00  0.00     0.066 A 
HETATM    3  C6  UNL     1      26.915   5.395  48.938  1.00  0.00     0.082 A 
HETATM    4  C7  UNL     1      26.611   6.761  49.086  1.00  0.00     0.088 A 
HETATM    5  C8  UNL     1      27.554   7.716  48.761  1.00  0.00     0.073 A 
HETATM    6  C9  UNL     1      28.781   7.334  48.294  1.00  0.00     0.097 A 
HETATM    7  N2  UNL     1      25.498   7.229  49.512  1.00  0.00    -0.245 N 
HETATM    8  C11 UNL     1      25.090   8.556  49.698  1.00  0.00     0.227 A 
HETATM    9  N3  UNL     1      24.351   7.582  50.076  1.00  0.00    -0.278 N 
HETATM   10  C12 UNL     1      23.086   7.577  50.705  1.00  0.00     0.152 C 
HETATM   11  C13 UNL     1      22.221   6.380  50.261  1.00  0.00     0.047 C 
HETATM   12  C14 UNL     1      22.996   5.153  50.595  1.00  0.00     0.103 C 
HETATM   13  C15 UNL     1      23.357   4.442  49.310  1.00  0.00     0.022 C 
HETATM   14  C16 UNL     1      24.021   3.500  50.026  1.00  0.00     0.040 C 
HETATM   15  C17 UNL     1      25.425   3.483  49.436  1.00  0.00     0.207 C 
HETATM   16  N4  UNL     1      25.897   4.809  49.299  1.00  0.00    -0.281 NA
HETATM   17  N5  UNL     1      23.100   2.967  51.007  1.00  0.00    -0.319 N 
HETATM   18  C18 UNL     1      23.424   1.606  51.400  1.00  0.00     0.171 C 
HETATM   19  N6  UNL     1      22.210   4.072  51.189  1.00  0.00    -0.230 NA
HETATM   20  H24 UNL     1      21.372   3.982  50.565  1.00  0.00     0.147 HD
ENDROOT
BRANCH   1  21
HETATM   21  N1  UNL     1      30.337   5.454  47.665  1.00  0.00    -0.325 N 
HETATM   22  C3  UNL     1      31.463   5.235  48.490  1.00  0.00     0.221 C 
HETATM   23  O1  UNL     1      31.368   5.546  49.693  1.00  0.00    -0.273 OA
HETATM   24  H6  UNL     1      30.217   5.265  46.655  1.00  0.00     0.169 HD
BRANCH  22  25
HETATM   25  C2  UNL     1      32.617   4.642  47.736  1.00  0.00     0.098 C 
HETATM   26  C1  UNL     1      32.132   3.559  46.797  1.00  0.00     0.014 C 
ENDBRANCH  22  25
ENDBRANCH   1  21
BRANCH   6  27
HETATM   27  O2  UNL     1      29.803   8.232  47.937  1.00  0.00    -0.354 OA
HETATM   28  C10 UNL     1      30.431   8.917  49.017  1.00  0.00     0.210 C 
ENDBRANCH   6  27
TORSDOF 3
ENDMDL
MODEL 9
REMARK VINA RESULT:      -7.5      8.498     10.953
REMARK  3 active torsions:
REMARK  status: ('A' for Active; 'I' for Inactive)
REMARK    1  A    between atoms: C2_2  and  C3_3 
REMARK       I    between atoms: C3_3  and  N1_5 
REMARK    2  A    between atoms: N1_5  and  C4_6 
REMARK    3  A    between atoms: C9_11  and  O2_12 
ROOT
HETATM    1  C4  UNL     1      32.347   5.291  48.113  1.00  0.00     0.070 A 
HETATM    2  C5  UNL     1      31.026   5.622  48.278  1.00  0.00     0.066 A 
HETATM    3  C6  UNL     1      30.555   6.917  48.247  1.00  0.00     0.082 A 
HETATM    4  C7  UNL     1      31.496   7.942  48.034  1.00  0.00     0.088 A 
HETATM    5  C8  UNL     1      32.830   7.630  47.867  1.00  0.00     0.073 A 
HETATM    6  C9  UNL     1      33.238   6.325  47.907  1.00  0.00     0.097 A 
HETATM    7  N2  UNL     1      31.226   9.193  47.977  1.00  0.00    -0.245 N 
HETATM    8  C11 UNL     1      32.073  10.289  47.772  1.00  0.00     0.227 A 
HETATM    9  N3  UNL     1      30.837  10.457  48.058  1.00  0.00    -0.278 N 
HETATM   10  C12 UNL     1      30.084  11.641  48.226  1.00  0.00     0.152 C 
HETATM   11  C13 UNL     1      28.627  11.475  47.751  1.00  0.00     0.047 C 
HETATM   12  C14 UNL     1      28.050  10.352  48.540  1.00  0.00     0.103 C 
HETATM   13  C15 UNL     1      27.726   9.214  47.599  1.00  0.00     0.022 C 
HETATM   14  C16 UNL     1      27.305   8.471  48.653  1.00  0.00     0.040 C 
HETATM   15  C17 UNL     1      28.117   7.185  48.571  1.00  0.00     0.207 C 
HETATM   16  N4  UNL     1      29.479   7.499  48.355  1.00  0.00    -0.281 NA
HETATM   17  N5  UNL     1      26.302   9.242  49.357  1.00  0.00    -0.319 N 
HETATM   18  C18 UNL     1      25.356   8.406  50.078  1.00  0.00     0.171 C 
HETATM   19  N6  UNL     1      26.692  10.579  49.030  1.00  0.00    -0.230 NA
HETATM   20  H24 UNL     1      26.164  10.926  48.194  1.00  0.00     0.147 HD
ENDROOT
BRANCH   1  21
HETATM   21  N1  UNL     1      32.611   3.900  48.181  1.00  0.00    -0.325 N 
HETATM   22  C3  UNL     1      32.632   3.052  47.051  1.00  0.00     0.221 C 
HETATM   23  O1  UNL     1      32.406   3.566  45.938  1.00  0.00    -0.273 OA
HETATM   24  H6  UNL     1      32.772   3.669  49.177  1.00  0.00     0.169 HD
BRANCH  22  25
HETATM   25  C2  UNL     1      32.936   1.627  47.410  1.00  0.00     0.098 C 
HETATM   26  C1  UNL     1      32.010   0.688  46.667  1.00  0.00     0.014 C 
ENDBRANCH  22  25
ENDBRANCH   1  21
BRANCH   6  27
HETATM   27  O2  UNL     1      34.572   5.910  47.747  1.00  0.00    -0.354 OA
HETATM   28  C10 UNL     1      35.397   6.015  48.905  1.00  0.00     0.210 C 
ENDBRANCH   6  27
TORSDOF 3
ENDMDL
