MODEL 1
REMARK VINA RESULT:      -7.2      0.000      0.000
REMARK  6 active torsions:
REMARK  status: ('A' for Active; 'I' for Inactive)
REMARK    1  A    between atoms: C2_3  and  C3_4 
REMARK       I    between atoms: C3_4  and  N2_6 
REMARK    2  A    between atoms: N2_6  and  C4_7 
REMARK    3  A    between atoms: C8_11  and  C9_12 
REMARK    4  A    between atoms: C9_12  and  N3_13 
REMARK    5  A    between atoms: C9_12  and  N4_14 
REMARK    6  A    between atoms: N4_14  and  C10_15 
ROOT
HETATM    1  N1  UNL     1      28.941  -2.318  53.355  1.00  0.00    -0.197 NA
HETATM    2  C1  UNL     1      29.321  -1.226  53.485  1.00  0.00     0.068 C 
HETATM    3  C2  UNL     1      29.776   0.156  53.643  1.00  0.00     0.226 C 
ENDROOT
BRANCH   3   4
HETATM    4  C3  UNL     1      28.641   1.106  53.532  1.00  0.00     0.235 C 
HETATM    5  O1  UNL     1      28.931   2.155  54.154  1.00  0.00    -0.272 OA
HETATM    6  N2  UNL     1      27.420   0.911  52.852  1.00  0.00    -0.321 N 
HETATM    7  H3  UNL     1      27.453  -0.035  52.433  1.00  0.00     0.169 HD
BRANCH   6   8
HETATM    8  C4  UNL     1      26.325   1.797  52.730  1.00  0.00     0.072 A 
HETATM    9  C5  UNL     1      25.575   2.214  53.726  1.00  0.00     0.037 A 
HETATM   10  C6  UNL     1      24.444   3.124  53.624  1.00  0.00     0.000 A 
HETATM   11  C7  UNL     1      24.095   3.610  52.446  1.00  0.00    -0.007 A 
HETATM   12  C8  UNL     1      24.610   3.453  51.047  1.00  0.00     0.118 A 
HETATM   13  S1  UNL     1      26.010   2.336  51.068  1.00  0.00    -0.100 SA
BRANCH  12  14
HETATM   14  C9  UNL     1      23.506   2.982  50.123  1.00  0.00     0.192 C 
BRANCH  14  15
HETATM   15  N3  UNL     1      23.788   3.389  48.786  1.00  0.00    -0.410 N 
HETATM   16  H9  UNL     1      24.468   2.815  48.283  1.00  0.00     0.152 HD
HETATM   17  H10 UNL     1      23.768   4.395  48.595  1.00  0.00     0.152 HD
ENDBRANCH  14  15
BRANCH  14  18
HETATM   18  N4  UNL     1      23.110   1.630  50.294  1.00  0.00    -0.368 N 
HETATM   19  H11 UNL     1      23.747   0.979  49.782  1.00  0.00     0.161 HD
BRANCH  18  20
HETATM   20  C10 UNL     1      22.038   1.073  51.018  1.00  0.00     0.030 A 
HETATM   21  C11 UNL     1      20.714   1.079  50.638  1.00  0.00     0.029 A 
HETATM   22  C12 UNL     1      19.676   0.547  51.343  1.00  0.00     0.004 A 
HETATM   23  C13 UNL     1      19.972  -0.055  52.546  1.00  0.00     0.019 A 
HETATM   24  C14 UNL     1      21.272  -0.097  52.985  1.00  0.00     0.013 A 
HETATM   25 BR1  UNL     1      21.671  -0.935  54.657  1.00  0.00    -0.051 Br
HETATM   26  C15 UNL     1      22.264   0.456  52.230  1.00  0.00     0.048 A 
ENDBRANCH  18  20
ENDBRANCH  14  18
ENDBRANCH  12  14
ENDBRANCH   6   8
ENDBRANCH   3   4
TORSDOF 6
ENDMDL
MODEL 2
REMARK VINA RESULT:      -7.1      3.976      5.941
REMARK  6 active torsions:
REMARK  status: ('A' for Active; 'I' for Inactive)
REMARK    1  A    between atoms: C2_3  and  C3_4 
REMARK       I    between atoms: C3_4  and  N2_6 
REMARK    2  A    between atoms: N2_6  and  C4_7 
REMARK    3  A    between atoms: C8_11  and  C9_12 
REMARK    4  A    between atoms: C9_12  and  N3_13 
REMARK    5  A    between atoms: C9_12  and  N4_14 
REMARK    6  A    between atoms: N4_14  and  C10_15 
ROOT
HETATM    1  N1  UNL     1      27.912   0.648  54.937  1.00  0.00    -0.197 NA
HETATM    2  C1  UNL     1      26.875   0.328  54.518  1.00  0.00     0.068 C 
HETATM    3  C2  UNL     1      25.569  -0.053  53.980  1.00  0.00     0.226 C 
ENDROOT
BRANCH   3   4
HETATM    4  C3  UNL     1      25.037   0.999  53.080  1.00  0.00     0.235 C 
HETATM    5  O1  UNL     1      25.996   1.551  52.491  1.00  0.00    -0.272 OA
HETATM    6  N2  UNL     1      23.687   1.359  52.881  1.00  0.00    -0.321 N 
HETATM    7  H3  UNL     1      23.116   0.745  53.489  1.00  0.00     0.169 HD
BRANCH   6   8
HETATM    8  C4  UNL     1      23.153   2.355  52.032  1.00  0.00     0.072 A 
HETATM    9  C5  UNL     1      22.642   2.139  50.841  1.00  0.00     0.037 A 
HETATM   10  C6  UNL     1      22.088   3.148  49.950  1.00  0.00     0.000 A 
HETATM   11  C7  UNL     1      22.069   4.415  50.322  1.00  0.00    -0.007 A 
HETATM   12  C8  UNL     1      22.513   5.161  51.545  1.00  0.00     0.118 A 
HETATM   13  S1  UNL     1      23.221   3.996  52.708  1.00  0.00    -0.100 SA
BRANCH  12  14
HETATM   14  C9  UNL     1      23.477   6.267  51.173  1.00  0.00     0.192 C 
BRANCH  14  15
HETATM   15  N3  UNL     1      24.388   6.496  52.245  1.00  0.00    -0.410 N 
HETATM   16  H9  UNL     1      24.324   5.841  53.027  1.00  0.00     0.152 HD
HETATM   17  H10 UNL     1      24.626   7.471  52.449  1.00  0.00     0.152 HD
ENDBRANCH  14  15
BRANCH  14  18
HETATM   18  N4  UNL     1      24.050   6.160  49.879  1.00  0.00    -0.368 N 
HETATM   19  H11 UNL     1      23.404   6.529  49.144  1.00  0.00     0.161 HD
BRANCH  18  20
HETATM   20  C10 UNL     1      25.299   5.655  49.467  1.00  0.00     0.030 A 
HETATM   21  C11 UNL     1      25.736   4.357  49.616  1.00  0.00     0.029 A 
HETATM   22  C12 UNL     1      26.948   3.870  49.225  1.00  0.00     0.004 A 
HETATM   23  C13 UNL     1      27.819   4.753  48.625  1.00  0.00     0.019 A 
HETATM   24  C14 UNL     1      27.447   6.061  48.444  1.00  0.00     0.013 A 
HETATM   25 BR1  UNL     1      28.664   7.276  47.610  1.00  0.00    -0.051 Br
HETATM   26  C15 UNL     1      26.218   6.484  48.860  1.00  0.00     0.048 A 
ENDBRANCH  18  20
ENDBRANCH  14  18
ENDBRANCH  12  14
ENDBRANCH   6   8
ENDBRANCH   3   4
TORSDOF 6
ENDMDL
MODEL 3
REMARK VINA RESULT:      -7.0      3.484      5.222
REMARK  6 active torsions:
REMARK  status: ('A' for Active; 'I' for Inactive)
REMARK    1  A    between atoms: C2_3  and  C3_4 
REMARK       I    between atoms: C3_4  and  N2_6 
REMARK    2  A    between atoms: N2_6  and  C4_7 
REMARK    3  A    between atoms: C8_11  and  C9_12 
REMARK    4  A    between atoms: C9_12  and  N3_13 
REMARK    5  A    between atoms: C9_12  and  N4_14 
REMARK    6  A    between atoms: N4_14  and  C10_15 
ROOT
HETATM    1  N1  UNL     1      29.761  -0.883  53.723  1.00  0.00    -0.197 NA
HETATM    2  C1  UNL     1      29.397   0.211  53.882  1.00  0.00     0.068 C 
HETATM    3  C2  UNL     1      28.922   1.581  54.065  1.00  0.00     0.226 C 
ENDROOT
BRANCH   3   4
HETATM    4  C3  UNL     1      27.632   1.796  53.364  1.00  0.00     0.235 C 
HETATM    5  O1  UNL     1      27.860   2.340  52.258  1.00  0.00    -0.272 OA
HETATM    6  N2  UNL     1      26.339   1.463  53.820  1.00  0.00    -0.321 N 
HETATM    7  H3  UNL     1      26.448   1.030  54.754  1.00  0.00     0.169 HD
BRANCH   6   8
HETATM    8  C4  UNL     1      25.097   1.655  53.173  1.00  0.00     0.072 A 
HETATM    9  C5  UNL     1      24.399   0.713  52.579  1.00  0.00     0.037 A 
HETATM   10  C6  UNL     1      23.120   0.888  51.907  1.00  0.00     0.000 A 
HETATM   11  C7  UNL     1      22.559   2.083  51.862  1.00  0.00    -0.007 A 
HETATM   12  C8  UNL     1      22.933   3.443  52.373  1.00  0.00     0.118 A 
HETATM   13  S1  UNL     1      24.510   3.331  53.215  1.00  0.00    -0.100 SA
BRANCH  12  14
HETATM   14  C9  UNL     1      22.951   4.450  51.241  1.00  0.00     0.192 C 
BRANCH  14  15
HETATM   15  N3  UNL     1      23.211   5.753  51.757  1.00  0.00    -0.410 N 
HETATM   16  H9  UNL     1      22.510   6.120  52.405  1.00  0.00     0.152 HD
HETATM   17  H10 UNL     1      23.686   6.411  51.133  1.00  0.00     0.152 HD
ENDBRANCH  14  15
BRANCH  14  18
HETATM   18  N4  UNL     1      23.705   4.066  50.102  1.00  0.00    -0.368 N 
HETATM   19  H11 UNL     1      23.269   3.252  49.613  1.00  0.00     0.161 HD
BRANCH  18  20
HETATM   20  C10 UNL     1      24.893   4.601  49.566  1.00  0.00     0.030 A 
HETATM   21  C11 UNL     1      26.120   3.975  49.536  1.00  0.00     0.029 A 
HETATM   22  C12 UNL     1      27.272   4.496  49.025  1.00  0.00     0.004 A 
HETATM   23  C13 UNL     1      27.207   5.762  48.486  1.00  0.00     0.019 A 
HETATM   24  C14 UNL     1      26.016   6.442  48.482  1.00  0.00     0.013 A 
HETATM   25 BR1  UNL     1      25.939   8.198  47.731  1.00  0.00    -0.051 Br
HETATM   26  C15 UNL     1      24.899   5.862  49.011  1.00  0.00     0.048 A 
ENDBRANCH  18  20
ENDBRANCH  14  18
ENDBRANCH  12  14
ENDBRANCH   6   8
ENDBRANCH   3   4
TORSDOF 6
ENDMDL
MODEL 4
REMARK VINA RESULT:      -6.9      3.052      4.860
REMARK  6 active torsions:
REMARK  status: ('A' for Active; 'I' for Inactive)
REMARK    1  A    between atoms: C2_3  and  C3_4 
REMARK       I    between atoms: C3_4  and  N2_6 
REMARK    2  A    between atoms: N2_6  and  C4_7 
REMARK    3  A    between atoms: C8_11  and  C9_12 
REMARK    4  A    between atoms: C9_12  and  N3_13 
REMARK    5  A    between atoms: C9_12  and  N4_14 
REMARK    6  A    between atoms: N4_14  and  C10_15 
ROOT
HETATM    1  N1  UNL     1      29.386   2.145  54.799  1.00  0.00    -0.197 NA
HETATM    2  C1  UNL     1      29.009   1.079  54.525  1.00  0.00     0.068 C 
HETATM    3  C2  UNL     1      28.513  -0.251  54.172  1.00  0.00     0.226 C 
ENDROOT
BRANCH   3   4
HETATM    4  C3  UNL     1      27.179  -0.167  53.528  1.00  0.00     0.235 C 
HETATM    5  O1  UNL     1      27.305  -0.417  52.306  1.00  0.00    -0.272 OA
HETATM    6  N2  UNL     1      25.945   0.137  54.140  1.00  0.00    -0.321 N 
HETATM    7  H3  UNL     1      26.135   0.297  55.145  1.00  0.00     0.169 HD
BRANCH   6   8
HETATM    8  C4  UNL     1      24.662   0.223  53.551  1.00  0.00     0.072 A 
HETATM    9  C5  UNL     1      23.713  -0.678  53.673  1.00  0.00     0.037 A 
HETATM   10  C6  UNL     1      22.387  -0.611  53.076  1.00  0.00     0.000 A 
HETATM   11  C7  UNL     1      22.051   0.429  52.335  1.00  0.00    -0.007 A 
HETATM   12  C8  UNL     1      22.748   1.685  51.904  1.00  0.00     0.118 A 
HETATM   13  S1  UNL     1      24.404   1.692  52.588  1.00  0.00    -0.100 SA
BRANCH  12  14
HETATM   14  C9  UNL     1      22.745   1.804  50.394  1.00  0.00     0.192 C 
BRANCH  14  15
HETATM   15  N3  UNL     1      21.732   0.965  49.845  1.00  0.00    -0.410 N 
HETATM   16  H9  UNL     1      22.023   0.373  49.064  1.00  0.00     0.152 HD
HETATM   17  H10 UNL     1      20.777   1.333  49.843  1.00  0.00     0.152 HD
ENDBRANCH  14  15
BRANCH  14  18
HETATM   18  N4  UNL     1      22.798   3.130  49.892  1.00  0.00    -0.368 N 
HETATM   19  H11 UNL     1      21.851   3.467  49.604  1.00  0.00     0.161 HD
BRANCH  18  20
HETATM   20  C10 UNL     1      23.887   4.010  49.736  1.00  0.00     0.030 A 
HETATM   21  C11 UNL     1      25.169   3.655  49.375  1.00  0.00     0.029 A 
HETATM   22  C12 UNL     1      26.224   4.505  49.233  1.00  0.00     0.004 A 
HETATM   23  C13 UNL     1      25.994   5.843  49.467  1.00  0.00     0.019 A 
HETATM   24  C14 UNL     1      24.740   6.266  49.828  1.00  0.00     0.013 A 
HETATM   25 BR1  UNL     1      24.432   8.125  50.151  1.00  0.00    -0.051 Br
HETATM   26  C15 UNL     1      23.726   5.361  49.955  1.00  0.00     0.048 A 
ENDBRANCH  18  20
ENDBRANCH  14  18
ENDBRANCH  12  14
ENDBRANCH   6   8
ENDBRANCH   3   4
TORSDOF 6
ENDMDL
MODEL 5
REMARK VINA RESULT:      -6.7      2.910      4.206
REMARK  6 active torsions:
REMARK  status: ('A' for Active; 'I' for Inactive)
REMARK    1  A    between atoms: C2_3  and  C3_4 
REMARK       I    between atoms: C3_4  and  N2_6 
REMARK    2  A    between atoms: N2_6  and  C4_7 
REMARK    3  A    between atoms: C8_11  and  C9_12 
REMARK    4  A    between atoms: C9_12  and  N3_13 
REMARK    5  A    between atoms: C9_12  and  N4_14 
REMARK    6  A    between atoms: N4_14  and  C10_15 
ROOT
HETATM    1  N1  UNL     1      29.048   2.427  53.292  1.00  0.00    -0.197 NA
HETATM    2  C1  UNL     1      28.657   1.424  53.732  1.00  0.00     0.068 C 
HETATM    3  C2  UNL     1      28.141   0.173  54.288  1.00  0.00     0.226 C 
ENDROOT
BRANCH   3   4
HETATM    4  C3  UNL     1      26.674   0.247  54.496  1.00  0.00     0.235 C 
HETATM    5  O1  UNL     1      26.429   1.157  55.321  1.00  0.00    -0.272 OA
HETATM    6  N2  UNL     1      25.679  -0.550  53.891  1.00  0.00    -0.321 N 
HETATM    7  H3  UNL     1      26.162  -1.213  53.259  1.00  0.00     0.169 HD
BRANCH   6   8
HETATM    8  C4  UNL     1      24.277  -0.501  54.070  1.00  0.00     0.072 A 
HETATM    9  C5  UNL     1      23.588  -1.293  54.860  1.00  0.00     0.037 A 
HETATM   10  C6  UNL     1      22.146  -1.261  55.060  1.00  0.00     0.000 A 
HETATM   11  C7  UNL     1      21.413  -0.373  54.414  1.00  0.00    -0.007 A 
HETATM   12  C8  UNL     1      21.705   0.721  53.431  1.00  0.00     0.118 A 
HETATM   13  S1  UNL     1      23.467   0.757  53.113  1.00  0.00    -0.100 SA
BRANCH  12  14
HETATM   14  C9  UNL     1      20.892   0.532  52.167  1.00  0.00     0.192 C 
BRANCH  14  15
HETATM   15  N3  UNL     1      19.818   1.470  52.139  1.00  0.00    -0.410 N 
HETATM   16  H9  UNL     1      19.625   1.948  53.022  1.00  0.00     0.152 HD
HETATM   17  H10 UNL     1      19.029   1.251  51.524  1.00  0.00     0.152 HD
ENDBRANCH  14  15
BRANCH  14  18
HETATM   18  N4  UNL     1      21.649   0.412  50.973  1.00  0.00    -0.368 N 
HETATM   19  H11 UNL     1      22.100  -0.528  50.901  1.00  0.00     0.161 HD
BRANCH  18  20
HETATM   20  C10 UNL     1      21.865   1.331  49.928  1.00  0.00     0.030 A 
HETATM   21  C11 UNL     1      21.167   1.386  48.741  1.00  0.00     0.029 A 
HETATM   22  C12 UNL     1      21.382   2.270  47.726  1.00  0.00     0.004 A 
HETATM   23  C13 UNL     1      22.387   3.197  47.898  1.00  0.00     0.019 A 
HETATM   24  C14 UNL     1      23.122   3.199  49.057  1.00  0.00     0.013 A 
HETATM   25 BR1  UNL     1      24.514   4.489  49.283  1.00  0.00    -0.051 Br
HETATM   26  C15 UNL     1      22.855   2.285  50.034  1.00  0.00     0.048 A 
ENDBRANCH  18  20
ENDBRANCH  14  18
ENDBRANCH  12  14
ENDBRANCH   6   8
ENDBRANCH   3   4
TORSDOF 6
ENDMDL
MODEL 6
REMARK VINA RESULT:      -6.6      1.904      2.552
REMARK  6 active torsions:
REMARK  status: ('A' for Active; 'I' for Inactive)
REMARK    1  A    between atoms: C2_3  and  C3_4 
REMARK       I    between atoms: C3_4  and  N2_6 
REMARK    2  A    between atoms: N2_6  and  C4_7 
REMARK    3  A    between atoms: C8_11  and  C9_12 
REMARK    4  A    between atoms: C9_12  and  N3_13 
REMARK    5  A    between atoms: C9_12  and  N4_14 
REMARK    6  A    between atoms: N4_14  and  C10_15 
ROOT
HETATM    1  N1  UNL     1      27.451  -1.516  53.167  1.00  0.00    -0.197 NA
HETATM    2  C1  UNL     1      27.730  -0.387  53.164  1.00  0.00     0.068 C 
HETATM    3  C2  UNL     1      28.059   1.038  53.147  1.00  0.00     0.226 C 
ENDROOT
BRANCH   3   4
HETATM    4  C3  UNL     1      26.940   1.837  52.590  1.00  0.00     0.235 C 
HETATM    5  O1  UNL     1      27.371   2.521  51.632  1.00  0.00    -0.272 OA
HETATM    6  N2  UNL     1      25.599   1.860  53.026  1.00  0.00    -0.321 N 
HETATM    7  H3  UNL     1      25.527   1.205  53.825  1.00  0.00     0.169 HD
BRANCH   6   8
HETATM    8  C4  UNL     1      24.515   2.610  52.514  1.00  0.00     0.072 A 
HETATM    9  C5  UNL     1      24.020   3.695  53.065  1.00  0.00     0.037 A 
HETATM   10  C6  UNL     1      22.905   4.482  52.557  1.00  0.00     0.000 A 
HETATM   11  C7  UNL     1      22.299   4.119  51.441  1.00  0.00    -0.007 A 
HETATM   12  C8  UNL     1      22.475   2.996  50.463  1.00  0.00     0.118 A 
HETATM   13  S1  UNL     1      23.830   1.960  51.010  1.00  0.00    -0.100 SA
BRANCH  12  14
HETATM   14  C9  UNL     1      21.183   2.223  50.301  1.00  0.00     0.192 C 
BRANCH  14  15
HETATM   15  N3  UNL     1      21.412   1.058  49.512  1.00  0.00    -0.410 N 
HETATM   16  H9  UNL     1      22.083   0.390  49.895  1.00  0.00     0.152 HD
HETATM   17  H10 UNL     1      21.369   1.173  48.495  1.00  0.00     0.152 HD
ENDBRANCH  14  15
BRANCH  14  18
HETATM   18  N4  UNL     1      20.439   2.033  51.495  1.00  0.00    -0.368 N 
HETATM   19  H11 UNL     1      19.805   2.843  51.682  1.00  0.00     0.161 HD
BRANCH  18  20
HETATM   20  C10 UNL     1      20.433   0.964  52.412  1.00  0.00     0.030 A 
HETATM   21  C11 UNL     1      21.444   0.649  53.294  1.00  0.00     0.029 A 
HETATM   22  C12 UNL     1      21.442  -0.390  54.176  1.00  0.00     0.004 A 
HETATM   23  C13 UNL     1      20.329  -1.202  54.192  1.00  0.00     0.019 A 
HETATM   24  C14 UNL     1      19.284  -0.945  53.340  1.00  0.00     0.013 A 
HETATM   25 BR1  UNL     1      17.746  -2.079  53.372  1.00  0.00    -0.051 Br
HETATM   26  C15 UNL     1      19.351   0.113  52.481  1.00  0.00     0.048 A 
ENDBRANCH  18  20
ENDBRANCH  14  18
ENDBRANCH  12  14
ENDBRANCH   6   8
ENDBRANCH   3   4
TORSDOF 6
ENDMDL
MODEL 7
REMARK VINA RESULT:      -6.4      1.858      2.234
REMARK  6 active torsions:
REMARK  status: ('A' for Active; 'I' for Inactive)
REMARK    1  A    between atoms: C2_3  and  C3_4 
REMARK       I    between atoms: C3_4  and  N2_6 
REMARK    2  A    between atoms: N2_6  and  C4_7 
REMARK    3  A    between atoms: C8_11  and  C9_12 
REMARK    4  A    between atoms: C9_12  and  N3_13 
REMARK    5  A    between atoms: C9_12  and  N4_14 
REMARK    6  A    between atoms: N4_14  and  C10_15 
ROOT
HETATM    1  N1  UNL     1      29.452  -1.518  53.209  1.00  0.00    -0.197 NA
HETATM    2  C1  UNL     1      29.212  -0.505  53.728  1.00  0.00     0.068 C 
HETATM    3  C2  UNL     1      28.895   0.775  54.360  1.00  0.00     0.226 C 
ENDROOT
BRANCH   3   4
HETATM    4  C3  UNL     1      27.878   1.519  53.577  1.00  0.00     0.235 C 
HETATM    5  O1  UNL     1      27.672   2.625  54.130  1.00  0.00    -0.272 OA
HETATM    6  N2  UNL     1      27.221   1.098  52.401  1.00  0.00    -0.321 N 
HETATM    7  H3  UNL     1      27.582   0.155  52.172  1.00  0.00     0.169 HD
BRANCH   6   8
HETATM    8  C4  UNL     1      26.250   1.785  51.637  1.00  0.00     0.072 A 
HETATM    9  C5  UNL     1      26.502   2.766  50.799  1.00  0.00     0.037 A 
HETATM   10  C6  UNL     1      25.520   3.486  50.002  1.00  0.00     0.000 A 
HETATM   11  C7  UNL     1      24.241   3.167  50.089  1.00  0.00    -0.007 A 
HETATM   12  C8  UNL     1      23.458   2.154  50.871  1.00  0.00     0.118 A 
HETATM   13  S1  UNL     1      24.588   1.214  51.894  1.00  0.00    -0.100 SA
BRANCH  12  14
HETATM   14  C9  UNL     1      22.371   2.831  51.678  1.00  0.00     0.192 C 
BRANCH  14  15
HETATM   15  N3  UNL     1      21.790   3.887  50.917  1.00  0.00    -0.410 N 
HETATM   16  H9  UNL     1      20.812   3.753  50.650  1.00  0.00     0.152 HD
HETATM   17  H10 UNL     1      22.406   4.382  50.266  1.00  0.00     0.152 HD
ENDBRANCH  14  15
BRANCH  14  18
HETATM   18  N4  UNL     1      21.462   1.953  52.324  1.00  0.00    -0.368 N 
HETATM   19  H11 UNL     1      21.727   1.798  53.323  1.00  0.00     0.161 HD
BRANCH  18  20
HETATM   20  C10 UNL     1      20.315   1.298  51.835  1.00  0.00     0.030 A 
HETATM   21  C11 UNL     1      19.698   1.539  50.627  1.00  0.00     0.029 A 
HETATM   22  C12 UNL     1      18.583   0.910  50.158  1.00  0.00     0.004 A 
HETATM   23  C13 UNL     1      18.018  -0.056  50.961  1.00  0.00     0.019 A 
HETATM   24  C14 UNL     1      18.582  -0.347  52.178  1.00  0.00     0.013 A 
HETATM   25 BR1  UNL     1      17.788  -1.689  53.284  1.00  0.00    -0.051 Br
HETATM   26  C15 UNL     1      19.699   0.321  52.588  1.00  0.00     0.048 A 
ENDBRANCH  18  20
ENDBRANCH  14  18
ENDBRANCH  12  14
ENDBRANCH   6   8
ENDBRANCH   3   4
TORSDOF 6
ENDMDL
MODEL 8
REMARK VINA RESULT:      -6.4      4.274      7.442
REMARK  6 active torsions:
REMARK  status: ('A' for Active; 'I' for Inactive)
REMARK    1  A    between atoms: C2_3  and  C3_4 
REMARK       I    between atoms: C3_4  and  N2_6 
REMARK    2  A    between atoms: N2_6  and  C4_7 
REMARK    3  A    between atoms: C8_11  and  C9_12 
REMARK    4  A    between atoms: C9_12  and  N3_13 
REMARK    5  A    between atoms: C9_12  and  N4_14 
REMARK    6  A    between atoms: N4_14  and  C10_15 
ROOT
HETATM    1  N1  UNL     1      15.825   4.330  49.489  1.00  0.00    -0.197 NA
HETATM    2  C1  UNL     1      16.427   3.995  50.427  1.00  0.00     0.068 C 
HETATM    3  C2  UNL     1      17.205   3.576  51.592  1.00  0.00     0.226 C 
ENDROOT
BRANCH   3   4
HETATM    4  C3  UNL     1      18.661   3.692  51.330  1.00  0.00     0.235 C 
HETATM    5  O1  UNL     1      19.286   3.292  52.340  1.00  0.00    -0.272 OA
HETATM    6  N2  UNL     1      19.289   4.166  50.158  1.00  0.00    -0.321 N 
HETATM    7  H3  UNL     1      18.538   4.426  49.495  1.00  0.00     0.169 HD
BRANCH   6   8
HETATM    8  C4  UNL     1      20.670   4.286  49.882  1.00  0.00     0.072 A 
HETATM    9  C5  UNL     1      21.349   3.510  49.068  1.00  0.00     0.037 A 
HETATM   10  C6  UNL     1      22.770   3.615  48.770  1.00  0.00     0.000 A 
HETATM   11  C7  UNL     1      23.494   4.561  49.340  1.00  0.00    -0.007 A 
HETATM   12  C8  UNL     1      23.206   5.667  50.312  1.00  0.00     0.118 A 
HETATM   13  S1  UNL     1      21.469   5.615  50.748  1.00  0.00    -0.100 SA
BRANCH  12  14
HETATM   14  C9  UNL     1      24.111   5.561  51.521  1.00  0.00     0.192 C 
BRANCH  14  15
HETATM   15  N3  UNL     1      24.508   6.863  51.943  1.00  0.00    -0.410 N 
HETATM   16  H9  UNL     1      25.271   7.287  51.411  1.00  0.00     0.152 HD
HETATM   17  H10 UNL     1      24.447   7.063  52.946  1.00  0.00     0.152 HD
ENDBRANCH  14  15
BRANCH  14  18
HETATM   18  N4  UNL     1      23.658   4.685  52.541  1.00  0.00    -0.368 N 
HETATM   19  H11 UNL     1      23.161   5.206  53.299  1.00  0.00     0.161 HD
BRANCH  18  20
HETATM   20  C10 UNL     1      23.775   3.286  52.669  1.00  0.00     0.030 A 
HETATM   21  C11 UNL     1      22.822   2.359  52.308  1.00  0.00     0.029 A 
HETATM   22  C12 UNL     1      22.932   1.006  52.439  1.00  0.00     0.004 A 
HETATM   23  C13 UNL     1      24.101   0.517  52.980  1.00  0.00     0.019 A 
HETATM   24  C14 UNL     1      25.093   1.386  53.361  1.00  0.00     0.013 A 
HETATM   25 BR1  UNL     1      26.710   0.697  54.110  1.00  0.00    -0.051 Br
HETATM   26  C15 UNL     1      24.918   2.730  53.202  1.00  0.00     0.048 A 
ENDBRANCH  18  20
ENDBRANCH  14  18
ENDBRANCH  12  14
ENDBRANCH   6   8
ENDBRANCH   3   4
TORSDOF 6
ENDMDL
MODEL 9
REMARK VINA RESULT:      -6.3      6.292      9.209
REMARK  6 active torsions:
REMARK  status: ('A' for Active; 'I' for Inactive)
REMARK    1  A    between atoms: C2_3  and  C3_4 
REMARK       I    between atoms: C3_4  and  N2_6 
REMARK    2  A    between atoms: N2_6  and  C4_7 
REMARK    3  A    between atoms: C8_11  and  C9_12 
REMARK    4  A    between atoms: C9_12  and  N3_13 
REMARK    5  A    between atoms: C9_12  and  N4_14 
REMARK    6  A    between atoms: N4_14  and  C10_15 
ROOT
HETATM    1  N1  UNL     1      19.587   3.619  51.977  1.00  0.00    -0.197 NA
HETATM    2  C1  UNL     1      20.549   2.984  52.132  1.00  0.00     0.068 C 
HETATM    3  C2  UNL     1      21.771   2.202  52.315  1.00  0.00     0.226 C 
ENDROOT
BRANCH   3   4
HETATM    4  C3  UNL     1      22.955   2.939  51.808  1.00  0.00     0.235 C 
HETATM    5  O1  UNL     1      23.545   3.469  52.779  1.00  0.00    -0.272 OA
HETATM    6  N2  UNL     1      23.389   3.054  50.471  1.00  0.00    -0.321 N 
HETATM    7  H3  UNL     1      22.721   2.521  49.887  1.00  0.00     0.169 HD
BRANCH   6   8
HETATM    8  C4  UNL     1      24.511   3.748  49.962  1.00  0.00     0.072 A 
HETATM    9  C5  UNL     1      25.701   3.225  49.771  1.00  0.00     0.037 A 
HETATM   10  C6  UNL     1      26.869   3.920  49.250  1.00  0.00     0.000 A 
HETATM   11  C7  UNL     1      26.782   5.195  48.919  1.00  0.00    -0.007 A 
HETATM   12  C8  UNL     1      25.685   6.218  48.942  1.00  0.00     0.118 A 
HETATM   13  S1  UNL     1      24.196   5.454  49.581  1.00  0.00    -0.100 SA
BRANCH  12  14
HETATM   14  C9  UNL     1      26.105   7.431  49.746  1.00  0.00     0.192 C 
BRANCH  14  15
HETATM   15  N3  UNL     1      25.556   7.353  51.060  1.00  0.00    -0.410 N 
HETATM   16  H9  UNL     1      24.629   6.927  51.127  1.00  0.00     0.152 HD
HETATM   17  H10 UNL     1      25.786   8.117  51.703  1.00  0.00     0.152 HD
ENDBRANCH  14  15
BRANCH  14  18
HETATM   18  N4  UNL     1      27.481   7.764  49.663  1.00  0.00    -0.368 N 
HETATM   19  H11 UNL     1      28.052   7.202  50.334  1.00  0.00     0.161 HD
BRANCH  18  20
HETATM   20  C10 UNL     1      28.152   8.696  48.846  1.00  0.00     0.030 A 
HETATM   21  C11 UNL     1      28.885   8.402  47.717  1.00  0.00     0.029 A 
HETATM   22  C12 UNL     1      29.541   9.303  46.932  1.00  0.00     0.004 A 
HETATM   23  C13 UNL     1      29.465  10.630  47.294  1.00  0.00     0.019 A 
HETATM   24  C14 UNL     1      28.750  10.993  48.408  1.00  0.00     0.013 A 
HETATM   25 BR1  UNL     1      28.653  12.837  48.902  1.00  0.00    -0.051 Br
HETATM   26  C15 UNL     1      28.118  10.040  49.151  1.00  0.00     0.048 A 
ENDBRANCH  18  20
ENDBRANCH  14  18
ENDBRANCH  12  14
ENDBRANCH   6   8
ENDBRANCH   3   4
TORSDOF 6
ENDMDL
