MODEL 1
REMARK VINA RESULT:      -8.7      0.000      0.000
REMARK  7 active torsions:
REMARK  status: ('A' for Active; 'I' for Inactive)
REMARK    1  A    between atoms: C2_2  and  N1_3 
REMARK    2  A    between atoms: N1_3  and  C4_5 
REMARK    3  A    between atoms: C4_5  and  C5_6 
REMARK    4  A    between atoms: C6_7  and  C7_8 
REMARK       I    between atoms: C7_8  and  N2_10 
REMARK    5  A    between atoms: N2_10  and  C8_11 
REMARK    6  A    between atoms: C13_18  and  N5_19 
REMARK    7  A    between atoms: N5_19  and  C14_20 
ROOT
HETATM    1  C8  UNL     1      24.257   3.329  49.926  1.00  0.00     0.036 A 
HETATM    2  C9  UNL     1      23.104   2.873  49.333  1.00  0.00     0.032 A 
HETATM    3  C10 UNL     1      22.290   1.878  49.826  1.00  0.00     0.035 A 
HETATM    4  C11 UNL     1      22.696   1.318  51.011  1.00  0.00     0.072 A 
HETATM    5  N3  UNL     1      21.901   0.331  51.518  1.00  0.00    -0.241 NA
HETATM    6  C12 UNL     1      22.236  -0.262  52.677  1.00  0.00     0.236 A 
HETATM    7  N4  UNL     1      23.340   0.113  53.328  1.00  0.00    -0.224 NA
HETATM    8  C13 UNL     1      24.130   1.067  52.862  1.00  0.00     0.142 A 
HETATM    9  C20 UNL     1      23.835   1.706  51.682  1.00  0.00     0.041 A 
HETATM   10  C21 UNL     1      24.582   2.708  51.109  1.00  0.00     0.047 A 
ENDROOT
BRANCH   1  11
HETATM   11  N2  UNL     1      25.106   4.341  49.456  1.00  0.00    -0.316 N 
HETATM   12  C7  UNL     1      26.492   4.277  49.178  1.00  0.00     0.301 C 
HETATM   13  O1  UNL     1      27.093   3.195  49.362  1.00  0.00    -0.258 OA
HETATM   14  H11 UNL     1      24.749   5.294  49.258  1.00  0.00     0.170 HD
BRANCH  12  15
HETATM   15  C6  UNL     1      27.292   5.365  48.695  1.00  0.00    -0.004 C 
HETATM   16  C5  UNL     1      27.977   6.266  48.281  1.00  0.00    -0.066 C 
BRANCH  16  17
HETATM   17  C4  UNL     1      28.838   7.359  47.762  1.00  0.00     0.365 C 
BRANCH  17  18
HETATM   18  N1  UNL     1      29.282   8.183  48.886  1.00  0.00     0.094 N 
HETATM   19  C3  UNL     1      30.677   8.533  48.716  1.00  0.00     0.310 C 
BRANCH  18  20
HETATM   20  C2  UNL     1      28.479   9.383  48.955  1.00  0.00     0.268 C 
HETATM   21  C1  UNL     1      27.529   9.277  50.122  1.00  0.00     0.037 C 
ENDBRANCH  18  20
ENDBRANCH  17  18
ENDBRANCH  16  17
ENDBRANCH  12  15
ENDBRANCH   1  11
BRANCH   8  22
HETATM   22  N5  UNL     1      25.281   1.437  53.568  1.00  0.00    -0.340 N 
HETATM   23  H15 UNL     1      25.293   2.219  54.232  1.00  0.00     0.167 HD
BRANCH  22  24
HETATM   24  C14 UNL     1      26.591   0.891  53.552  1.00  0.00     0.035 A 
HETATM   25  C15 UNL     1      27.777   1.596  53.790  1.00  0.00     0.032 A 
HETATM   26  C16 UNL     1      29.024   1.044  53.760  1.00  0.00     0.046 A 
HETATM   27  C17 UNL     1      29.182  -0.291  53.483  1.00  0.00     0.138 A 
HETATM   28  F1  UNL     1      30.446  -0.762  53.471  1.00  0.00    -0.204 F 
HETATM   29  C18 UNL     1      28.055  -1.036  53.241  1.00  0.00     0.074 A 
HETATM   30 CL1  UNL     1      28.340  -2.731  52.895  1.00  0.00    -0.081 Cl
HETATM   31  C19 UNL     1      26.826  -0.442  53.281  1.00  0.00     0.056 A 
ENDBRANCH  22  24
ENDBRANCH   8  22
TORSDOF 7
ENDMDL
MODEL 2
REMARK VINA RESULT:      -8.6      1.569      2.060
REMARK  7 active torsions:
REMARK  status: ('A' for Active; 'I' for Inactive)
REMARK    1  A    between atoms: C2_2  and  N1_3 
REMARK    2  A    between atoms: N1_3  and  C4_5 
REMARK    3  A    between atoms: C4_5  and  C5_6 
REMARK    4  A    between atoms: C6_7  and  C7_8 
REMARK       I    between atoms: C7_8  and  N2_10 
REMARK    5  A    between atoms: N2_10  and  C8_11 
REMARK    6  A    between atoms: C13_18  and  N5_19 
REMARK    7  A    between atoms: N5_19  and  C14_20 
ROOT
HETATM    1  C8  UNL     1      23.936   2.977  49.690  1.00  0.00     0.036 A 
HETATM    2  C9  UNL     1      22.791   2.620  49.019  1.00  0.00     0.032 A 
HETATM    3  C10 UNL     1      21.827   1.755  49.485  1.00  0.00     0.035 A 
HETATM    4  C11 UNL     1      22.064   1.223  50.727  1.00  0.00     0.072 A 
HETATM    5  N3  UNL     1      21.118   0.363  51.208  1.00  0.00    -0.241 NA
HETATM    6  C12 UNL     1      21.283  -0.195  52.420  1.00  0.00     0.236 A 
HETATM    7  N4  UNL     1      22.365   0.090  53.148  1.00  0.00    -0.224 NA
HETATM    8  C13 UNL     1      23.298   0.919  52.709  1.00  0.00     0.142 A 
HETATM    9  C20 UNL     1      23.181   1.518  51.478  1.00  0.00     0.041 A 
HETATM   10  C21 UNL     1      24.086   2.393  50.926  1.00  0.00     0.047 A 
ENDROOT
BRANCH   1  11
HETATM   11  N2  UNL     1      24.935   3.857  49.249  1.00  0.00    -0.316 N 
HETATM   12  C7  UNL     1      26.340   3.726  49.354  1.00  0.00     0.301 C 
HETATM   13  O1  UNL     1      26.810   2.707  49.907  1.00  0.00    -0.258 OA
HETATM   14  H11 UNL     1      24.696   4.745  48.772  1.00  0.00     0.170 HD
BRANCH  12  15
HETATM   15  C6  UNL     1      27.299   4.677  48.872  1.00  0.00    -0.004 C 
HETATM   16  C5  UNL     1      28.117   5.472  48.483  1.00  0.00    -0.066 C 
BRANCH  16  17
HETATM   17  C4  UNL     1      29.139   6.448  48.025  1.00  0.00     0.365 C 
BRANCH  17  18
HETATM   18  N1  UNL     1      30.417   6.122  48.659  1.00  0.00     0.094 N 
HETATM   19  C3  UNL     1      31.176   5.233  47.803  1.00  0.00     0.310 C 
BRANCH  18  20
HETATM   20  C2  UNL     1      31.166   7.336  48.893  1.00  0.00     0.268 C 
HETATM   21  C1  UNL     1      32.641   7.036  48.792  1.00  0.00     0.037 C 
ENDBRANCH  18  20
ENDBRANCH  17  18
ENDBRANCH  16  17
ENDBRANCH  12  15
ENDBRANCH   1  11
BRANCH   8  22
HETATM   22  N5  UNL     1      24.422   1.198  53.497  1.00  0.00    -0.340 N 
HETATM   23  H15 UNL     1      24.400   1.872  54.270  1.00  0.00     0.167 HD
BRANCH  22  24
HETATM   24  C14 UNL     1      25.742   0.679  53.440  1.00  0.00     0.035 A 
HETATM   25  C15 UNL     1      26.112  -0.570  52.927  1.00  0.00     0.032 A 
HETATM   26  C16 UNL     1      27.390  -1.044  52.893  1.00  0.00     0.046 A 
HETATM   27  C17 UNL     1      28.423  -0.283  53.381  1.00  0.00     0.138 A 
HETATM   28  F1  UNL     1      29.658  -0.820  53.312  1.00  0.00    -0.204 F 
HETATM   29  C18 UNL     1      28.124   0.954  53.897  1.00  0.00     0.074 A 
HETATM   30 CL1  UNL     1      29.496   1.864  54.500  1.00  0.00    -0.081 Cl
HETATM   31  C19 UNL     1      26.829   1.388  53.912  1.00  0.00     0.056 A 
ENDBRANCH  22  24
ENDBRANCH   8  22
TORSDOF 7
ENDMDL
MODEL 3
REMARK VINA RESULT:      -8.5      1.711      2.223
REMARK  7 active torsions:
REMARK  status: ('A' for Active; 'I' for Inactive)
REMARK    1  A    between atoms: C2_2  and  N1_3 
REMARK    2  A    between atoms: N1_3  and  C4_5 
REMARK    3  A    between atoms: C4_5  and  C5_6 
REMARK    4  A    between atoms: C6_7  and  C7_8 
REMARK       I    between atoms: C7_8  and  N2_10 
REMARK    5  A    between atoms: N2_10  and  C8_11 
REMARK    6  A    between atoms: C13_18  and  N5_19 
REMARK    7  A    between atoms: N5_19  and  C14_20 
ROOT
HETATM    1  C8  UNL     1      25.512   3.400  49.658  1.00  0.00     0.036 A 
HETATM    2  C9  UNL     1      24.304   3.251  49.019  1.00  0.00     0.032 A 
HETATM    3  C10 UNL     1      23.180   2.671  49.561  1.00  0.00     0.035 A 
HETATM    4  C11 UNL     1      23.314   2.215  50.847  1.00  0.00     0.072 A 
HETATM    5  N3  UNL     1      22.208   1.638  51.404  1.00  0.00    -0.241 NA
HETATM    6  C12 UNL     1      22.266   1.170  52.663  1.00  0.00     0.236 A 
HETATM    7  N4  UNL     1      23.397   1.269  53.364  1.00  0.00    -0.224 NA
HETATM    8  C13 UNL     1      24.484   1.823  52.853  1.00  0.00     0.142 A 
HETATM    9  C20 UNL     1      24.482   2.318  51.571  1.00  0.00     0.041 A 
HETATM   10  C21 UNL     1      25.550   2.912  50.943  1.00  0.00     0.047 A 
ENDROOT
BRANCH   1  11
HETATM   11  N2  UNL     1      26.675   3.988  49.140  1.00  0.00    -0.316 N 
HETATM   12  C7  UNL     1      26.926   5.351  48.851  1.00  0.00     0.301 C 
HETATM   13  O1  UNL     1      26.022   6.188  49.067  1.00  0.00    -0.258 OA
HETATM   14  H11 UNL     1      27.510   3.418  48.911  1.00  0.00     0.170 HD
BRANCH  12  15
HETATM   15  C6  UNL     1      28.152   5.873  48.321  1.00  0.00    -0.004 C 
HETATM   16  C5  UNL     1      29.177   6.331  47.882  1.00  0.00    -0.066 C 
BRANCH  16  17
HETATM   17  C4  UNL     1      30.432   6.919  47.348  1.00  0.00     0.365 C 
BRANCH  17  18
HETATM   18  N1  UNL     1      31.567   6.157  47.869  1.00  0.00     0.094 N 
HETATM   19  C3  UNL     1      31.643   6.314  49.307  1.00  0.00     0.310 C 
BRANCH  18  20
HETATM   20  C2  UNL     1      31.409   4.760  47.534  1.00  0.00     0.268 C 
HETATM   21  C1  UNL     1      32.705   4.036  47.801  1.00  0.00     0.037 C 
ENDBRANCH  18  20
ENDBRANCH  17  18
ENDBRANCH  16  17
ENDBRANCH  12  15
ENDBRANCH   1  11
BRANCH   8  22
HETATM   22  N5  UNL     1      25.656   1.911  53.614  1.00  0.00    -0.340 N 
HETATM   23  H15 UNL     1      25.790   2.624  54.340  1.00  0.00     0.167 HD
BRANCH  22  24
HETATM   24  C14 UNL     1      26.839   1.126  53.586  1.00  0.00     0.035 A 
HETATM   25  C15 UNL     1      28.132   1.579  53.876  1.00  0.00     0.032 A 
HETATM   26  C16 UNL     1      29.251   0.802  53.832  1.00  0.00     0.046 A 
HETATM   27  C17 UNL     1      29.159  -0.524  53.486  1.00  0.00     0.138 A 
HETATM   28  F1  UNL     1      30.310  -1.226  53.465  1.00  0.00    -0.204 F 
HETATM   29  C18 UNL     1      27.917  -1.027  53.190  1.00  0.00     0.074 A 
HETATM   30 CL1  UNL     1      27.882  -2.726  52.758  1.00  0.00    -0.081 Cl
HETATM   31  C19 UNL     1      26.822  -0.212  53.246  1.00  0.00     0.056 A 
ENDBRANCH  22  24
ENDBRANCH   8  22
TORSDOF 7
ENDMDL
MODEL 4
REMARK VINA RESULT:      -8.2      4.461      9.433
REMARK  7 active torsions:
REMARK  status: ('A' for Active; 'I' for Inactive)
REMARK    1  A    between atoms: C2_2  and  N1_3 
REMARK    2  A    between atoms: N1_3  and  C4_5 
REMARK    3  A    between atoms: C4_5  and  C5_6 
REMARK    4  A    between atoms: C6_7  and  C7_8 
REMARK       I    between atoms: C7_8  and  N2_10 
REMARK    5  A    between atoms: N2_10  and  C8_11 
REMARK    6  A    between atoms: C13_18  and  N5_19 
REMARK    7  A    between atoms: N5_19  and  C14_20 
ROOT
HETATM    1  C8  UNL     1      22.672  -0.899  53.890  1.00  0.00     0.036 A 
HETATM    2  C9  UNL     1      23.075  -1.322  55.134  1.00  0.00     0.032 A 
HETATM    3  C10 UNL     1      24.336  -1.167  55.662  1.00  0.00     0.035 A 
HETATM    4  C11 UNL     1      25.241  -0.534  54.848  1.00  0.00     0.072 A 
HETATM    5  N3  UNL     1      26.499  -0.369  55.354  1.00  0.00    -0.241 NA
HETATM    6  C12 UNL     1      27.437   0.246  54.613  1.00  0.00     0.236 A 
HETATM    7  N4  UNL     1      27.141   0.691  53.390  1.00  0.00    -0.224 NA
HETATM    8  C13 UNL     1      25.932   0.546  52.873  1.00  0.00     0.142 A 
HETATM    9  C20 UNL     1      24.935  -0.074  53.586  1.00  0.00     0.041 A 
HETATM   10  C21 UNL     1      23.648  -0.276  53.148  1.00  0.00     0.047 A 
ENDROOT
BRANCH   1  11
HETATM   11  N2  UNL     1      21.397  -1.036  53.323  1.00  0.00    -0.316 N 
HETATM   12  C7  UNL     1      20.348  -0.088  53.262  1.00  0.00     0.301 C 
HETATM   13  O1  UNL     1      20.527   1.041  53.771  1.00  0.00    -0.258 OA
HETATM   14  H11 UNL     1      21.104  -1.918  52.865  1.00  0.00     0.170 HD
BRANCH  12  15
HETATM   15  C6  UNL     1      19.066  -0.308  52.659  1.00  0.00    -0.004 C 
HETATM   16  C5  UNL     1      17.984  -0.473  52.152  1.00  0.00    -0.066 C 
BRANCH  16  17
HETATM   17  C4  UNL     1      16.648  -0.651  51.529  1.00  0.00     0.365 C 
BRANCH  17  18
HETATM   18  N1  UNL     1      15.671  -0.930  52.582  1.00  0.00     0.094 N 
HETATM   19  C3  UNL     1      14.941   0.279  52.906  1.00  0.00     0.310 C 
BRANCH  18  20
HETATM   20  C2  UNL     1      14.754  -1.953  52.135  1.00  0.00     0.268 C 
HETATM   21  C1  UNL     1      15.336  -3.310  52.443  1.00  0.00     0.037 C 
ENDBRANCH  18  20
ENDBRANCH  17  18
ENDBRANCH  16  17
ENDBRANCH  12  15
ENDBRANCH   1  11
BRANCH   8  22
HETATM   22  N5  UNL     1      25.653   1.024  51.587  1.00  0.00    -0.340 N 
HETATM   23  H15 UNL     1      25.484   0.400  50.791  1.00  0.00     0.167 HD
BRANCH  22  24
HETATM   24  C14 UNL     1      25.546   2.353  51.097  1.00  0.00     0.035 A 
HETATM   25  C15 UNL     1      24.533   3.266  51.417  1.00  0.00     0.032 A 
HETATM   26  C16 UNL     1      24.453   4.534  50.924  1.00  0.00     0.046 A 
HETATM   27  C17 UNL     1      25.405   4.999  50.051  1.00  0.00     0.138 A 
HETATM   28  F1  UNL     1      25.257   6.264  49.608  1.00  0.00    -0.204 F 
HETATM   29  C18 UNL     1      26.425   4.150  49.699  1.00  0.00     0.074 A 
HETATM   30 CL1  UNL     1      27.601   4.816  48.582  1.00  0.00    -0.081 Cl
HETATM   31  C19 UNL     1      26.466   2.886  50.217  1.00  0.00     0.056 A 
ENDBRANCH  22  24
ENDBRANCH   8  22
TORSDOF 7
ENDMDL
MODEL 5
REMARK VINA RESULT:      -8.1      3.311      4.673
REMARK  7 active torsions:
REMARK  status: ('A' for Active; 'I' for Inactive)
REMARK    1  A    between atoms: C2_2  and  N1_3 
REMARK    2  A    between atoms: N1_3  and  C4_5 
REMARK    3  A    between atoms: C4_5  and  C5_6 
REMARK    4  A    between atoms: C6_7  and  C7_8 
REMARK       I    between atoms: C7_8  and  N2_10 
REMARK    5  A    between atoms: N2_10  and  C8_11 
REMARK    6  A    between atoms: C13_18  and  N5_19 
REMARK    7  A    between atoms: N5_19  and  C14_20 
ROOT
HETATM    1  C8  UNL     1      27.452   5.291  48.640  1.00  0.00     0.036 A 
HETATM    2  C9  UNL     1      26.640   6.398  48.573  1.00  0.00     0.032 A 
HETATM    3  C10 UNL     1      25.386   6.506  49.128  1.00  0.00     0.035 A 
HETATM    4  C11 UNL     1      24.941   5.393  49.797  1.00  0.00     0.072 A 
HETATM    5  N3  UNL     1      23.698   5.480  50.358  1.00  0.00    -0.241 NA
HETATM    6  C12 UNL     1      23.199   4.429  51.030  1.00  0.00     0.236 A 
HETATM    7  N4  UNL     1      23.913   3.308  51.149  1.00  0.00    -0.224 NA
HETATM    8  C13 UNL     1      25.119   3.194  50.618  1.00  0.00     0.142 A 
HETATM    9  C20 UNL     1      25.679   4.236  49.920  1.00  0.00     0.041 A 
HETATM   10  C21 UNL     1      26.920   4.227  49.330  1.00  0.00     0.047 A 
ENDROOT
BRANCH   1  11
HETATM   11  N2  UNL     1      28.734   5.148  48.091  1.00  0.00    -0.316 N 
HETATM   12  C7  UNL     1      29.809   6.068  48.101  1.00  0.00     0.301 C 
HETATM   13  O1  UNL     1      29.649   7.175  48.659  1.00  0.00    -0.258 OA
HETATM   14  H11 UNL     1      29.013   4.282  47.595  1.00  0.00     0.170 HD
BRANCH  12  15
HETATM   15  C6  UNL     1      31.098   5.842  47.514  1.00  0.00    -0.004 C 
HETATM   16  C5  UNL     1      32.174   5.656  47.002  1.00  0.00    -0.066 C 
BRANCH  16  17
HETATM   17  C4  UNL     1      33.488   5.430  46.348  1.00  0.00     0.365 C 
BRANCH  17  18
HETATM   18  N1  UNL     1      33.830   4.011  46.455  1.00  0.00     0.094 N 
HETATM   19  C3  UNL     1      34.411   3.744  47.755  1.00  0.00     0.310 C 
BRANCH  18  20
HETATM   20  C2  UNL     1      32.640   3.210  46.274  1.00  0.00     0.268 C 
HETATM   21  C1  UNL     1      32.766   1.945  47.086  1.00  0.00     0.037 C 
ENDBRANCH  18  20
ENDBRANCH  17  18
ENDBRANCH  16  17
ENDBRANCH  12  15
ENDBRANCH   1  11
BRANCH   8  22
HETATM   22  N5  UNL     1      25.843   2.003  50.760  1.00  0.00    -0.340 N 
HETATM   23  H15 UNL     1      26.017   1.367  49.975  1.00  0.00     0.167 HD
BRANCH  22  24
HETATM   24  C14 UNL     1      26.456   1.425  51.903  1.00  0.00     0.035 A 
HETATM   25  C15 UNL     1      26.068   0.235  52.529  1.00  0.00     0.032 A 
HETATM   26  C16 UNL     1      26.673  -0.291  53.632  1.00  0.00     0.046 A 
HETATM   27  C17 UNL     1      27.742   0.351  54.207  1.00  0.00     0.138 A 
HETATM   28  F1  UNL     1      28.286  -0.232  55.295  1.00  0.00    -0.204 F 
HETATM   29  C18 UNL     1      28.170   1.524  53.638  1.00  0.00     0.074 A 
HETATM   30 CL1  UNL     1      29.538   2.283  54.429  1.00  0.00    -0.081 Cl
HETATM   31  C19 UNL     1      27.533   2.015  52.533  1.00  0.00     0.056 A 
ENDBRANCH  22  24
ENDBRANCH   8  22
TORSDOF 7
ENDMDL
MODEL 6
REMARK VINA RESULT:      -8.0      4.462      9.247
REMARK  7 active torsions:
REMARK  status: ('A' for Active; 'I' for Inactive)
REMARK    1  A    between atoms: C2_2  and  N1_3 
REMARK    2  A    between atoms: N1_3  and  C4_5 
REMARK    3  A    between atoms: C4_5  and  C5_6 
REMARK    4  A    between atoms: C6_7  and  C7_8 
REMARK       I    between atoms: C7_8  and  N2_10 
REMARK    5  A    between atoms: N2_10  and  C8_11 
REMARK    6  A    between atoms: C13_18  and  N5_19 
REMARK    7  A    between atoms: N5_19  and  C14_20 
ROOT
HETATM    1  C8  UNL     1      23.511  -0.210  53.309  1.00  0.00     0.036 A 
HETATM    2  C9  UNL     1      24.241  -0.726  54.353  1.00  0.00     0.032 A 
HETATM    3  C10 UNL     1      25.553  -0.423  54.638  1.00  0.00     0.035 A 
HETATM    4  C11 UNL     1      26.149   0.472  53.786  1.00  0.00     0.072 A 
HETATM    5  N3  UNL     1      27.451   0.787  54.053  1.00  0.00    -0.241 NA
HETATM    6  C12 UNL     1      28.098   1.660  53.261  1.00  0.00     0.236 A 
HETATM    7  N4  UNL     1      27.472   2.214  52.221  1.00  0.00    -0.224 NA
HETATM    8  C13 UNL     1      26.211   1.930  51.937  1.00  0.00     0.142 A 
HETATM    9  C20 UNL     1      25.502   1.045  52.713  1.00  0.00     0.041 A 
HETATM   10  C21 UNL     1      24.193   0.679  52.511  1.00  0.00     0.047 A 
ENDROOT
BRANCH   1  11
HETATM   11  N2  UNL     1      22.174  -0.491  52.993  1.00  0.00    -0.316 N 
HETATM   12  C7  UNL     1      21.008  -0.212  53.744  1.00  0.00     0.301 C 
HETATM   13  O1  UNL     1      21.127   0.361  54.849  1.00  0.00    -0.258 OA
HETATM   14  H11 UNL     1      21.920  -0.965  52.107  1.00  0.00     0.170 HD
BRANCH  12  15
HETATM   15  C6  UNL     1      19.668  -0.534  53.345  1.00  0.00    -0.004 C 
HETATM   16  C5  UNL     1      18.544  -0.822  53.019  1.00  0.00    -0.066 C 
BRANCH  16  17
HETATM   17  C4  UNL     1      17.161  -1.200  52.630  1.00  0.00     0.365 C 
BRANCH  17  18
HETATM   18  N1  UNL     1      16.789  -0.452  51.428  1.00  0.00     0.094 N 
HETATM   19  C3  UNL     1      15.688  -1.115  50.760  1.00  0.00     0.310 C 
BRANCH  18  20
HETATM   20  C2  UNL     1      16.406   0.893  51.792  1.00  0.00     0.268 C 
HETATM   21  C1  UNL     1      15.083   0.853  52.514  1.00  0.00     0.037 C 
ENDBRANCH  18  20
ENDBRANCH  17  18
ENDBRANCH  16  17
ENDBRANCH  12  15
ENDBRANCH   1  11
BRANCH   8  22
HETATM   22  N5  UNL     1      25.583   2.528  50.839  1.00  0.00    -0.340 N 
HETATM   23  H15 UNL     1      24.825   2.071  50.320  1.00  0.00     0.167 HD
BRANCH  22  24
HETATM   24  C14 UNL     1      25.805   3.786  50.219  1.00  0.00     0.035 A 
HETATM   25  C15 UNL     1      26.814   4.078  49.292  1.00  0.00     0.032 A 
HETATM   26  C16 UNL     1      27.007   5.300  48.719  1.00  0.00     0.046 A 
HETATM   27  C17 UNL     1      26.184   6.351  49.038  1.00  0.00     0.138 A 
HETATM   28  F1  UNL     1      26.439   7.527  48.429  1.00  0.00    -0.204 F 
HETATM   29  C18 UNL     1      25.175   6.127  49.941  1.00  0.00     0.074 A 
HETATM   30 CL1  UNL     1      24.167   7.518  50.295  1.00  0.00    -0.081 Cl
HETATM   31  C19 UNL     1      25.018   4.887  50.491  1.00  0.00     0.056 A 
ENDBRANCH  22  24
ENDBRANCH   8  22
TORSDOF 7
ENDMDL
MODEL 7
REMARK VINA RESULT:      -7.9      1.623      2.231
REMARK  7 active torsions:
REMARK  status: ('A' for Active; 'I' for Inactive)
REMARK    1  A    between atoms: C2_2  and  N1_3 
REMARK    2  A    between atoms: N1_3  and  C4_5 
REMARK    3  A    between atoms: C4_5  and  C5_6 
REMARK    4  A    between atoms: C6_7  and  C7_8 
REMARK       I    between atoms: C7_8  and  N2_10 
REMARK    5  A    between atoms: N2_10  and  C8_11 
REMARK    6  A    between atoms: C13_18  and  N5_19 
REMARK    7  A    between atoms: N5_19  and  C14_20 
ROOT
HETATM    1  C8  UNL     1      25.352   4.958  49.631  1.00  0.00     0.036 A 
HETATM    2  C9  UNL     1      24.250   4.711  48.847  1.00  0.00     0.032 A 
HETATM    3  C10 UNL     1      23.316   3.724  49.067  1.00  0.00     0.035 A 
HETATM    4  C11 UNL     1      23.537   2.940  50.171  1.00  0.00     0.072 A 
HETATM    5  N3  UNL     1      22.621   1.956  50.408  1.00  0.00    -0.241 NA
HETATM    6  C12 UNL     1      22.772   1.150  51.473  1.00  0.00     0.236 A 
HETATM    7  N4  UNL     1      23.812   1.311  52.293  1.00  0.00    -0.224 NA
HETATM    8  C13 UNL     1      24.716   2.256  52.091  1.00  0.00     0.142 A 
HETATM    9  C20 UNL     1      24.611   3.107  51.018  1.00  0.00     0.041 A 
HETATM   10  C21 UNL     1      25.488   4.120  50.714  1.00  0.00     0.047 A 
ENDROOT
BRANCH   1  11
HETATM   11  N2  UNL     1      26.319   5.955  49.441  1.00  0.00    -0.316 N 
HETATM   12  C7  UNL     1      26.245   7.333  49.754  1.00  0.00     0.301 C 
HETATM   13  O1  UNL     1      25.196   7.776  50.272  1.00  0.00    -0.258 OA
HETATM   14  H11 UNL     1      27.240   5.736  49.020  1.00  0.00     0.170 HD
BRANCH  12  15
HETATM   15  C6  UNL     1      27.287   8.292  49.527  1.00  0.00    -0.004 C 
HETATM   16  C5  UNL     1      28.149   9.112  49.339  1.00  0.00    -0.066 C 
BRANCH  16  17
HETATM   17  C4  UNL     1      29.195  10.143  49.112  1.00  0.00     0.365 C 
BRANCH  17  18
HETATM   18  N1  UNL     1      30.324   9.522  48.417  1.00  0.00     0.094 N 
HETATM   19  C3  UNL     1      31.293  10.537  48.055  1.00  0.00     0.310 C 
BRANCH  18  20
HETATM   20  C2  UNL     1      30.941   8.537  49.276  1.00  0.00     0.268 C 
HETATM   21  C1  UNL     1      31.342   7.341  48.450  1.00  0.00     0.037 C 
ENDBRANCH  18  20
ENDBRANCH  17  18
ENDBRANCH  16  17
ENDBRANCH  12  15
ENDBRANCH   1  11
BRANCH   8  22
HETATM   22  N5  UNL     1      25.797   2.399  52.970  1.00  0.00    -0.340 N 
HETATM   23  H15 UNL     1      25.886   3.196  53.610  1.00  0.00     0.167 HD
BRANCH  22  24
HETATM   24  C14 UNL     1      26.930   1.571  53.185  1.00  0.00     0.035 A 
HETATM   25  C15 UNL     1      28.184   1.998  53.641  1.00  0.00     0.032 A 
HETATM   26  C16 UNL     1      29.257   1.179  53.830  1.00  0.00     0.046 A 
HETATM   27  C17 UNL     1      29.156  -0.165  53.569  1.00  0.00     0.138 A 
HETATM   28  F1  UNL     1      30.261  -0.909  53.780  1.00  0.00    -0.204 F 
HETATM   29  C18 UNL     1      27.951  -0.645  53.119  1.00  0.00     0.074 A 
HETATM   30 CL1  UNL     1      27.902  -2.369  52.810  1.00  0.00    -0.081 Cl
HETATM   31  C19 UNL     1      26.902   0.212  52.944  1.00  0.00     0.056 A 
ENDBRANCH  22  24
ENDBRANCH   8  22
TORSDOF 7
ENDMDL
MODEL 8
REMARK VINA RESULT:      -7.8      2.806      3.735
REMARK  7 active torsions:
REMARK  status: ('A' for Active; 'I' for Inactive)
REMARK    1  A    between atoms: C2_2  and  N1_3 
REMARK    2  A    between atoms: N1_3  and  C4_5 
REMARK    3  A    between atoms: C4_5  and  C5_6 
REMARK    4  A    between atoms: C6_7  and  C7_8 
REMARK       I    between atoms: C7_8  and  N2_10 
REMARK    5  A    between atoms: N2_10  and  C8_11 
REMARK    6  A    between atoms: C13_18  and  N5_19 
REMARK    7  A    between atoms: N5_19  and  C14_20 
ROOT
HETATM    1  C8  UNL     1      25.480   6.007  50.091  1.00  0.00     0.036 A 
HETATM    2  C9  UNL     1      24.614   7.041  50.353  1.00  0.00     0.032 A 
HETATM    3  C10 UNL     1      23.337   6.909  50.850  1.00  0.00     0.035 A 
HETATM    4  C11 UNL     1      22.929   5.622  51.092  1.00  0.00     0.072 A 
HETATM    5  N3  UNL     1      21.666   5.470  51.587  1.00  0.00    -0.241 NA
HETATM    6  C12 UNL     1      21.200   4.236  51.849  1.00  0.00     0.236 A 
HETATM    7  N4  UNL     1      21.968   3.168  51.627  1.00  0.00    -0.224 NA
HETATM    8  C13 UNL     1      23.196   3.283  51.148  1.00  0.00     0.142 A 
HETATM    9  C20 UNL     1      23.723   4.519  50.862  1.00  0.00     0.041 A 
HETATM   10  C21 UNL     1      24.982   4.754  50.365  1.00  0.00     0.047 A 
ENDROOT
BRANCH   1  11
HETATM   11  N2  UNL     1      26.786   6.104  49.590  1.00  0.00    -0.316 N 
HETATM   12  C7  UNL     1      27.228   6.671  48.371  1.00  0.00     0.301 C 
HETATM   13  O1  UNL     1      26.380   7.165  47.596  1.00  0.00    -0.258 OA
HETATM   14  H11 UNL     1      27.595   5.736  50.124  1.00  0.00     0.170 HD
BRANCH  12  15
HETATM   15  C6  UNL     1      28.591   6.732  47.932  1.00  0.00    -0.004 C 
HETATM   16  C5  UNL     1      29.734   6.802  47.554  1.00  0.00    -0.066 C 
BRANCH  16  17
HETATM   17  C4  UNL     1      31.137   6.911  47.080  1.00  0.00     0.365 C 
BRANCH  17  18
HETATM   18  N1  UNL     1      31.952   5.923  47.788  1.00  0.00     0.094 N 
HETATM   19  C3  UNL     1      31.841   6.131  49.217  1.00  0.00     0.310 C 
BRANCH  18  20
HETATM   20  C2  UNL     1      31.504   4.591  47.448  1.00  0.00     0.268 C 
HETATM   21  C1  UNL     1      32.674   3.642  47.521  1.00  0.00     0.037 C 
ENDBRANCH  18  20
ENDBRANCH  17  18
ENDBRANCH  16  17
ENDBRANCH  12  15
ENDBRANCH   1  11
BRANCH   8  22
HETATM   22  N5  UNL     1      23.976   2.142  50.925  1.00  0.00    -0.340 N 
HETATM   23  H15 UNL     1      23.946   1.616  50.045  1.00  0.00     0.167 HD
BRANCH  22  24
HETATM   24  C14 UNL     1      24.911   1.482  51.766  1.00  0.00     0.035 A 
HETATM   25  C15 UNL     1      26.304   1.527  51.638  1.00  0.00     0.032 A 
HETATM   26  C16 UNL     1      27.177   0.875  52.458  1.00  0.00     0.046 A 
HETATM   27  C17 UNL     1      26.709   0.109  53.497  1.00  0.00     0.138 A 
HETATM   28  F1  UNL     1      27.635  -0.504  54.263  1.00  0.00    -0.204 F 
HETATM   29  C18 UNL     1      25.351   0.027  53.675  1.00  0.00     0.074 A 
HETATM   30 CL1  UNL     1      24.833  -0.969  55.022  1.00  0.00    -0.081 Cl
HETATM   31  C19 UNL     1      24.513   0.696  52.829  1.00  0.00     0.056 A 
ENDBRANCH  22  24
ENDBRANCH   8  22
TORSDOF 7
ENDMDL
MODEL 9
REMARK VINA RESULT:      -7.8      4.188      6.951
REMARK  7 active torsions:
REMARK  status: ('A' for Active; 'I' for Inactive)
REMARK    1  A    between atoms: C2_2  and  N1_3 
REMARK    2  A    between atoms: N1_3  and  C4_5 
REMARK    3  A    between atoms: C4_5  and  C5_6 
REMARK    4  A    between atoms: C6_7  and  C7_8 
REMARK       I    between atoms: C7_8  and  N2_10 
REMARK    5  A    between atoms: N2_10  and  C8_11 
REMARK    6  A    between atoms: C13_18  and  N5_19 
REMARK    7  A    between atoms: N5_19  and  C14_20 
ROOT
HETATM    1  C8  UNL     1      24.255   3.963  50.430  1.00  0.00     0.036 A 
HETATM    2  C9  UNL     1      24.271   4.455  49.146  1.00  0.00     0.032 A 
HETATM    3  C10 UNL     1      23.162   4.699  48.370  1.00  0.00     0.035 A 
HETATM    4  C11 UNL     1      21.956   4.415  48.959  1.00  0.00     0.072 A 
HETATM    5  N3  UNL     1      20.842   4.652  48.205  1.00  0.00    -0.241 NA
HETATM    6  C12 UNL     1      19.626   4.399  48.719  1.00  0.00     0.236 A 
HETATM    7  N4  UNL     1      19.509   3.920  49.959  1.00  0.00    -0.224 NA
HETATM    8  C13 UNL     1      20.568   3.680  50.714  1.00  0.00     0.142 A 
HETATM    9  C20 UNL     1      21.835   3.920  50.239  1.00  0.00     0.041 A 
HETATM   10  C21 UNL     1      23.001   3.710  50.935  1.00  0.00     0.047 A 
ENDROOT
BRANCH   1  11
HETATM   11  N2  UNL     1      25.363   3.707  51.251  1.00  0.00    -0.316 N 
HETATM   12  C7  UNL     1      25.838   2.466  51.736  1.00  0.00     0.301 C 
HETATM   13  O1  UNL     1      25.223   1.422  51.423  1.00  0.00    -0.258 OA
HETATM   14  H11 UNL     1      25.968   4.476  51.592  1.00  0.00     0.170 HD
BRANCH  12  15
HETATM   15  C6  UNL     1      26.987   2.289  52.575  1.00  0.00    -0.004 C 
HETATM   16  C5  UNL     1      27.952   2.160  53.286  1.00  0.00    -0.066 C 
BRANCH  16  17
HETATM   17  C4  UNL     1      29.140   2.026  54.168  1.00  0.00     0.365 C 
BRANCH  17  18
HETATM   18  N1  UNL     1      29.281   0.622  54.557  1.00  0.00     0.094 N 
HETATM   19  C3  UNL     1      27.977   0.058  54.837  1.00  0.00     0.310 C 
BRANCH  18  20
HETATM   20  C2  UNL     1      29.917  -0.116  53.489  1.00  0.00     0.268 C 
HETATM   21  C1  UNL     1      29.287  -1.483  53.388  1.00  0.00     0.037 C 
ENDBRANCH  18  20
ENDBRANCH  17  18
ENDBRANCH  16  17
ENDBRANCH  12  15
ENDBRANCH   1  11
BRANCH   8  22
HETATM   22  N5  UNL     1      20.411   3.176  52.011  1.00  0.00    -0.340 N 
HETATM   23  H15 UNL     1      20.461   3.772  52.844  1.00  0.00     0.167 HD
BRANCH  22  24
HETATM   24  C14 UNL     1      20.170   1.853  52.465  1.00  0.00     0.035 A 
HETATM   25  C15 UNL     1      19.102   1.034  52.078  1.00  0.00     0.032 A 
HETATM   26  C16 UNL     1      18.892  -0.232  52.539  1.00  0.00     0.046 A 
HETATM   27  C17 UNL     1      19.758  -0.790  53.447  1.00  0.00     0.138 A 
HETATM   28  F1  UNL     1      19.483  -2.046  53.855  1.00  0.00    -0.204 F 
HETATM   29  C18 UNL     1      20.826  -0.036  53.865  1.00  0.00     0.074 A 
HETATM   30 CL1  UNL     1      21.885  -0.818  55.023  1.00  0.00    -0.081 Cl
HETATM   31  C19 UNL     1      20.997   1.229  53.377  1.00  0.00     0.056 A 
ENDBRANCH  22  24
ENDBRANCH   8  22
TORSDOF 7
ENDMDL
