MODEL 1
REMARK VINA RESULT:      -8.6      0.000      0.000
REMARK  5 active torsions:
REMARK  status: ('A' for Active; 'I' for Inactive)
REMARK    1  A    between atoms: C2_2  and  C3_3 
REMARK    2  A    between atoms: C3_3  and  C4_4 
REMARK    3  A    between atoms: C4_4  and  C5_5 
REMARK    4  A    between atoms: C9_10  and  N1_11 
REMARK    5  A    between atoms: N1_11  and  C10_12 
ROOT
HETATM    1  C5  UNL     1      19.917   0.482  52.585  1.00  0.00     0.147 C 
HETATM    2  O1  UNL     1      19.809  -0.229  53.806  1.00  0.00    -0.356 OA
HETATM    3  C6  UNL     1      20.593  -1.296  54.164  1.00  0.00     0.136 C 
HETATM    4  C7  UNL     1      21.850  -1.181  53.745  1.00  0.00     0.036 C 
HETATM    5  C8  UNL     1      22.285  -0.015  52.985  1.00  0.00     0.007 C 
HETATM    6  C9  UNL     1      23.540   0.403  53.043  1.00  0.00     0.137 C 
HETATM    7  N2  UNL     1      23.935   1.543  52.291  1.00  0.00    -0.224 NA
HETATM    8  C17 UNL     1      24.158   2.692  52.822  1.00  0.00     0.237 C 
HETATM    9  N3  UNL     1      24.540   3.656  51.830  1.00  0.00    -0.230 NA
HETATM   10  C18 UNL     1      23.646   3.840  50.888  1.00  0.00     0.257 C 
HETATM   11  O2  UNL     1      22.400   3.192  50.785  1.00  0.00    -0.319 OA
HETATM   12  P1  UNL     1      21.678   2.577  52.234  1.00  0.00     0.036 P 
HETATM   13  C19 UNL     1      21.293   0.735  52.116  1.00  0.00     0.058 C 
HETATM   14  C20 UNL     1      21.620   0.297  50.716  1.00  0.00     0.030 C 
HETATM   15  H22 UNL     1      20.441   3.271  52.545  1.00  0.00     0.089 HD
ENDROOT
BRANCH   6  16
HETATM   16  N1  UNL     1      24.462  -0.307  53.861  1.00  0.00    -0.340 N 
HETATM   17  H13 UNL     1      24.355  -0.803  54.760  1.00  0.00     0.167 HD
BRANCH  16  18
HETATM   18  C10 UNL     1      25.849  -0.517  53.621  1.00  0.00     0.034 A 
HETATM   19  C11 UNL     1      26.384  -1.553  52.894  1.00  0.00     0.032 A 
HETATM   20  C12 UNL     1      27.711  -1.753  52.669  1.00  0.00     0.045 A 
HETATM   21  C13 UNL     1      28.613  -0.855  53.202  1.00  0.00     0.122 A 
HETATM   22  F1  UNL     1      29.935  -1.049  52.980  1.00  0.00    -0.206 F 
HETATM   23  C14 UNL     1      28.162   0.227  53.954  1.00  0.00    -0.021 A 
HETATM   24  C15 UNL     1      29.118   1.207  54.539  1.00  0.00     0.051 C 
HETATM   25  C16 UNL     1      26.794   0.364  54.141  1.00  0.00     0.039 A 
ENDBRANCH  16  18
ENDBRANCH   6  16
BRANCH   1  26
HETATM   26  C4  UNL     1      18.964  -0.160  51.630  1.00  0.00     0.034 C 
BRANCH  26  27
HETATM   27  C3  UNL     1      17.678  -0.644  52.255  1.00  0.00     0.002 C 
BRANCH  27  28
HETATM   28  C2  UNL     1      16.507  -0.490  51.279  1.00  0.00    -0.004 C 
HETATM   29  C1  UNL     1      17.067  -0.201  49.922  1.00  0.00     0.005 C 
ENDBRANCH  27  28
ENDBRANCH  26  27
ENDBRANCH   1  26
TORSDOF 5
ENDMDL
MODEL 2
REMARK VINA RESULT:      -8.4      1.071      1.251
REMARK  5 active torsions:
REMARK  status: ('A' for Active; 'I' for Inactive)
REMARK    1  A    between atoms: C2_2  and  C3_3 
REMARK    2  A    between atoms: C3_3  and  C4_4 
REMARK    3  A    between atoms: C4_4  and  C5_5 
REMARK    4  A    between atoms: C9_10  and  N1_11 
REMARK    5  A    between atoms: N1_11  and  C10_12 
ROOT
HETATM    1  C5  UNL     1      20.227   0.843  52.711  1.00  0.00     0.147 C 
HETATM    2  O1  UNL     1      20.308   0.467  54.075  1.00  0.00    -0.356 OA
HETATM    3  C6  UNL     1      21.269  -0.355  54.606  1.00  0.00     0.136 C 
HETATM    4  C7  UNL     1      22.464  -0.187  54.048  1.00  0.00     0.036 C 
HETATM    5  C8  UNL     1      22.665   0.788  52.982  1.00  0.00     0.007 C 
HETATM    6  C9  UNL     1      23.840   1.371  52.809  1.00  0.00     0.137 C 
HETATM    7  N2  UNL     1      24.006   2.318  51.761  1.00  0.00    -0.224 NA
HETATM    8  C17 UNL     1      24.081   3.585  51.966  1.00  0.00     0.237 C 
HETATM    9  N3  UNL     1      24.246   4.299  50.731  1.00  0.00    -0.230 NA
HETATM   10  C18 UNL     1      23.278   4.110  49.868  1.00  0.00     0.257 C 
HETATM   11  O2  UNL     1      22.143   3.297  50.055  1.00  0.00    -0.319 OA
HETATM   12  P1  UNL     1      21.617   2.990  51.676  1.00  0.00     0.036 P 
HETATM   13  C19 UNL     1      21.515   1.146  52.059  1.00  0.00     0.058 C 
HETATM   14  C20 UNL     1      21.818   0.407  50.785  1.00  0.00     0.030 C 
HETATM   15  H22 UNL     1      20.309   3.569  51.926  1.00  0.00     0.089 HD
ENDROOT
BRANCH   6  16
HETATM   16  N1  UNL     1      24.911   1.029  53.680  1.00  0.00    -0.340 N 
HETATM   17  H13 UNL     1      25.146   1.325  54.641  1.00  0.00     0.167 HD
BRANCH  16  18
HETATM   18  C10 UNL     1      25.990   0.137  53.421  1.00  0.00     0.034 A 
HETATM   19  C11 UNL     1      25.869  -1.128  52.902  1.00  0.00     0.032 A 
HETATM   20  C12 UNL     1      26.902  -1.980  52.657  1.00  0.00     0.045 A 
HETATM   21  C13 UNL     1      28.186  -1.559  52.944  1.00  0.00     0.122 A 
HETATM   22  F1  UNL     1      29.217  -2.402  52.701  1.00  0.00    -0.206 F 
HETATM   23  C14 UNL     1      28.404  -0.290  53.472  1.00  0.00    -0.021 A 
HETATM   24  C15 UNL     1      29.779   0.184  53.790  1.00  0.00     0.051 C 
HETATM   25  C16 UNL     1      27.300   0.521  53.696  1.00  0.00     0.039 A 
ENDBRANCH  16  18
ENDBRANCH   6  16
BRANCH   1  26
HETATM   26  C4  UNL     1      19.328  -0.148  52.046  1.00  0.00     0.034 C 
BRANCH  26  27
HETATM   27  C3  UNL     1      17.854   0.124  52.224  1.00  0.00     0.002 C 
BRANCH  27  28
HETATM   28  C2  UNL     1      17.090  -1.176  52.498  1.00  0.00    -0.004 C 
HETATM   29  C1  UNL     1      17.886  -1.986  53.471  1.00  0.00     0.005 C 
ENDBRANCH  27  28
ENDBRANCH  26  27
ENDBRANCH   1  26
TORSDOF 5
ENDMDL
MODEL 3
REMARK VINA RESULT:      -8.4      3.828      5.967
REMARK  5 active torsions:
REMARK  status: ('A' for Active; 'I' for Inactive)
REMARK    1  A    between atoms: C2_2  and  C3_3 
REMARK    2  A    between atoms: C3_3  and  C4_4 
REMARK    3  A    between atoms: C4_4  and  C5_5 
REMARK    4  A    between atoms: C9_10  and  N1_11 
REMARK    5  A    between atoms: N1_11  and  C10_12 
ROOT
HETATM    1  C5  UNL     1      22.482   1.022  52.079  1.00  0.00     0.147 C 
HETATM    2  O1  UNL     1      22.029   0.740  50.766  1.00  0.00    -0.356 OA
HETATM    3  C6  UNL     1      21.961   1.655  49.747  1.00  0.00     0.136 C 
HETATM    4  C7  UNL     1      22.958   2.534  49.769  1.00  0.00     0.036 C 
HETATM    5  C8  UNL     1      23.987   2.477  50.801  1.00  0.00     0.007 C 
HETATM    6  C9  UNL     1      25.214   2.911  50.561  1.00  0.00     0.137 C 
HETATM    7  N2  UNL     1      26.197   2.843  51.587  1.00  0.00    -0.224 NA
HETATM    8  C17 UNL     1      27.147   1.978  51.590  1.00  0.00     0.237 C 
HETATM    9  N3  UNL     1      27.988   2.139  52.743  1.00  0.00    -0.230 NA
HETATM   10  C18 UNL     1      27.360   2.018  53.887  1.00  0.00     0.257 C 
HETATM   11  O2  UNL     1      25.987   1.754  54.059  1.00  0.00    -0.319 OA
HETATM   12  P1  UNL     1      25.148   0.937  52.784  1.00  0.00     0.036 P 
HETATM   13  C19 UNL     1      23.655   1.911  52.170  1.00  0.00     0.058 C 
HETATM   14  C20 UNL     1      23.518   3.123  53.049  1.00  0.00     0.030 C 
HETATM   15  H22 UNL     1      24.681  -0.370  53.212  1.00  0.00     0.089 HD
ENDROOT
BRANCH   6  16
HETATM   16  N1  UNL     1      25.516   3.439  49.275  1.00  0.00    -0.340 N 
HETATM   17  H13 UNL     1      25.326   3.094  48.320  1.00  0.00     0.167 HD
BRANCH  16  18
HETATM   18  C10 UNL     1      26.197   4.652  48.973  1.00  0.00     0.034 A 
HETATM   19  C11 UNL     1      25.623   5.898  48.931  1.00  0.00     0.032 A 
HETATM   20  C12 UNL     1      26.277   7.057  48.640  1.00  0.00     0.045 A 
HETATM   21  C13 UNL     1      27.629   6.998  48.362  1.00  0.00     0.122 A 
HETATM   22  F1  UNL     1      28.285   8.147  48.073  1.00  0.00    -0.206 F 
HETATM   23  C14 UNL     1      28.295   5.776  48.382  1.00  0.00    -0.021 A 
HETATM   24  C15 UNL     1      29.751   5.690  48.085  1.00  0.00     0.051 C 
HETATM   25  C16 UNL     1      27.560   4.638  48.686  1.00  0.00     0.039 A 
ENDBRANCH  16  18
ENDBRANCH   6  16
BRANCH   1  26
HETATM   26  C4  UNL     1      21.273   1.382  52.880  1.00  0.00     0.034 C 
BRANCH  26  27
HETATM   27  C3  UNL     1      20.587   0.213  53.544  1.00  0.00     0.002 C 
BRANCH  27  28
HETATM   28  C2  UNL     1      21.345  -0.220  54.803  1.00  0.00    -0.004 C 
HETATM   29  C1  UNL     1      21.853  -1.610  54.585  1.00  0.00     0.005 C 
ENDBRANCH  27  28
ENDBRANCH  26  27
ENDBRANCH   1  26
TORSDOF 5
ENDMDL
MODEL 4
REMARK VINA RESULT:      -7.8      3.242      7.422
REMARK  5 active torsions:
REMARK  status: ('A' for Active; 'I' for Inactive)
REMARK    1  A    between atoms: C2_2  and  C3_3 
REMARK    2  A    between atoms: C3_3  and  C4_4 
REMARK    3  A    between atoms: C4_4  and  C5_5 
REMARK    4  A    between atoms: C9_10  and  N1_11 
REMARK    5  A    between atoms: N1_11  and  C10_12 
ROOT
HETATM    1  C5  UNL     1      26.576   2.100  52.388  1.00  0.00     0.147 C 
HETATM    2  O1  UNL     1      26.804   0.742  52.054  1.00  0.00    -0.356 OA
HETATM    3  C6  UNL     1      25.968  -0.296  52.377  1.00  0.00     0.136 C 
HETATM    4  C7  UNL     1      24.682   0.038  52.327  1.00  0.00     0.036 C 
HETATM    5  C8  UNL     1      24.268   1.387  51.960  1.00  0.00     0.007 C 
HETATM    6  C9  UNL     1      23.104   1.603  51.370  1.00  0.00     0.137 C 
HETATM    7  N2  UNL     1      22.728   2.931  51.024  1.00  0.00    -0.224 NA
HETATM    8  C17 UNL     1      22.743   3.371  49.816  1.00  0.00     0.237 C 
HETATM    9  N3  UNL     1      22.318   4.741  49.761  1.00  0.00    -0.230 NA
HETATM   10  C18 UNL     1      23.052   5.561  50.473  1.00  0.00     0.257 C 
HETATM   11  O2  UNL     1      24.173   5.212  51.252  1.00  0.00    -0.319 OA
HETATM   12  P1  UNL     1      25.052   3.783  50.821  1.00  0.00     0.036 P 
HETATM   13  C19 UNL     1      25.182   2.563  52.253  1.00  0.00     0.058 C 
HETATM   14  C20 UNL     1      24.568   3.219  53.457  1.00  0.00     0.030 C 
HETATM   15  H22 UNL     1      26.400   4.103  50.384  1.00  0.00     0.089 HD
ENDROOT
BRANCH   6  16
HETATM   16  N1  UNL     1      22.255   0.495  51.099  1.00  0.00    -0.340 N 
HETATM   17  H13 UNL     1      22.278  -0.236  50.370  1.00  0.00     0.167 HD
BRANCH  16  18
HETATM   18  C10 UNL     1      21.092   0.098  51.817  1.00  0.00     0.034 A 
HETATM   19  C11 UNL     1      21.079  -0.432  53.083  1.00  0.00     0.032 A 
HETATM   20  C12 UNL     1      19.965  -0.813  53.766  1.00  0.00     0.045 A 
HETATM   21  C13 UNL     1      18.735  -0.663  53.157  1.00  0.00     0.122 A 
HETATM   22  F1  UNL     1      17.623  -1.039  53.832  1.00  0.00    -0.206 F 
HETATM   23  C14 UNL     1      18.651  -0.133  51.872  1.00  0.00    -0.021 A 
HETATM   24  C15 UNL     1      17.335   0.038  51.196  1.00  0.00     0.051 C 
HETATM   25  C16 UNL     1      19.831   0.232  51.240  1.00  0.00     0.039 A 
ENDBRANCH  16  18
ENDBRANCH   6  16
BRANCH   1  26
HETATM   26  C4  UNL     1      27.265   2.341  53.692  1.00  0.00     0.034 C 
BRANCH  26  27
HETATM   27  C3  UNL     1      28.724   1.956  53.713  1.00  0.00     0.002 C 
BRANCH  27  28
HETATM   28  C2  UNL     1      28.947   0.715  54.583  1.00  0.00    -0.004 C 
HETATM   29  C1  UNL     1      29.690  -0.297  53.768  1.00  0.00     0.005 C 
ENDBRANCH  27  28
ENDBRANCH  26  27
ENDBRANCH   1  26
TORSDOF 5
ENDMDL
MODEL 5
REMARK VINA RESULT:      -7.6      3.713      6.053
REMARK  5 active torsions:
REMARK  status: ('A' for Active; 'I' for Inactive)
REMARK    1  A    between atoms: C2_2  and  C3_3 
REMARK    2  A    between atoms: C3_3  and  C4_4 
REMARK    3  A    between atoms: C4_4  and  C5_5 
REMARK    4  A    between atoms: C9_10  and  N1_11 
REMARK    5  A    between atoms: N1_11  and  C10_12 
ROOT
HETATM    1  C5  UNL     1      23.010   1.162  52.914  1.00  0.00     0.147 C 
HETATM    2  O1  UNL     1      24.328   1.677  52.993  1.00  0.00    -0.356 OA
HETATM    3  C6  UNL     1      25.157   1.879  51.919  1.00  0.00     0.136 C 
HETATM    4  C7  UNL     1      24.509   2.288  50.832  1.00  0.00     0.036 C 
HETATM    5  C8  UNL     1      23.063   2.482  50.847  1.00  0.00     0.007 C 
HETATM    6  C9  UNL     1      22.490   3.371  50.052  1.00  0.00     0.137 C 
HETATM    7  N2  UNL     1      21.078   3.537  50.089  1.00  0.00    -0.224 NA
HETATM    8  C17 UNL     1      20.505   4.549  50.638  1.00  0.00     0.237 C 
HETATM    9  N3  UNL     1      19.076   4.456  50.529  1.00  0.00    -0.230 NA
HETATM   10  C18 UNL     1      18.564   3.383  51.080  1.00  0.00     0.257 C 
HETATM   11  O2  UNL     1      19.278   2.364  51.741  1.00  0.00    -0.319 OA
HETATM   12  P1  UNL     1      20.815   2.763  52.434  1.00  0.00     0.036 P 
HETATM   13  C19 UNL     1      22.200   1.660  51.786  1.00  0.00     0.058 C 
HETATM   14  C20 UNL     1      21.570   0.623  50.899  1.00  0.00     0.030 C 
HETATM   15  H22 UNL     1      20.789   2.642  53.881  1.00  0.00     0.089 HD
ENDROOT
BRANCH   6  16
HETATM   16  N1  UNL     1      23.307   4.137  49.176  1.00  0.00    -0.340 N 
HETATM   17  H13 UNL     1      23.462   4.095  48.156  1.00  0.00     0.167 HD
BRANCH  16  18
HETATM   18  C10 UNL     1      24.166   5.219  49.517  1.00  0.00     0.034 A 
HETATM   19  C11 UNL     1      23.912   6.166  50.478  1.00  0.00     0.032 A 
HETATM   20  C12 UNL     1      24.735   7.202  50.801  1.00  0.00     0.045 A 
HETATM   21  C13 UNL     1      25.929   7.331  50.120  1.00  0.00     0.122 A 
HETATM   22  F1  UNL     1      26.752   8.358  50.438  1.00  0.00    -0.206 F 
HETATM   23  C14 UNL     1      26.272   6.416  49.129  1.00  0.00    -0.021 A 
HETATM   24  C15 UNL     1      27.554   6.536  48.382  1.00  0.00     0.051 C 
HETATM   25  C16 UNL     1      25.381   5.387  48.856  1.00  0.00     0.039 A 
ENDBRANCH  16  18
ENDBRANCH   6  16
BRANCH   1  26
HETATM   26  C4  UNL     1      23.117  -0.317  53.095  1.00  0.00     0.034 C 
BRANCH  26  27
HETATM   27  C3  UNL     1      22.691  -0.817  54.454  1.00  0.00     0.002 C 
BRANCH  27  28
HETATM   28  C2  UNL     1      21.267  -0.356  54.782  1.00  0.00    -0.004 C 
HETATM   29  C1  UNL     1      20.314  -1.173  53.969  1.00  0.00     0.005 C 
ENDBRANCH  27  28
ENDBRANCH  26  27
ENDBRANCH   1  26
TORSDOF 5
ENDMDL
MODEL 6
REMARK VINA RESULT:      -7.6      3.412      7.714
REMARK  5 active torsions:
REMARK  status: ('A' for Active; 'I' for Inactive)
REMARK    1  A    between atoms: C2_2  and  C3_3 
REMARK    2  A    between atoms: C3_3  and  C4_4 
REMARK    3  A    between atoms: C4_4  and  C5_5 
REMARK    4  A    between atoms: C9_10  and  N1_11 
REMARK    5  A    between atoms: N1_11  and  C10_12 
ROOT
HETATM    1  C5  UNL     1      24.451   5.141  50.360  1.00  0.00     0.147 C 
HETATM    2  O1  UNL     1      23.534   6.099  50.861  1.00  0.00    -0.356 OA
HETATM    3  C6  UNL     1      22.169   5.976  50.817  1.00  0.00     0.136 C 
HETATM    4  C7  UNL     1      21.754   4.725  50.994  1.00  0.00     0.036 C 
HETATM    5  C8  UNL     1      22.705   3.640  51.207  1.00  0.00     0.007 C 
HETATM    6  C9  UNL     1      22.370   2.572  51.913  1.00  0.00     0.137 C 
HETATM    7  N2  UNL     1      23.319   1.530  52.103  1.00  0.00    -0.224 NA
HETATM    8  C17 UNL     1      23.932   1.334  53.216  1.00  0.00     0.237 C 
HETATM    9  N3  UNL     1      24.830   0.218  53.122  1.00  0.00    -0.230 NA
HETATM   10  C18 UNL     1      25.752   0.347  52.199  1.00  0.00     0.257 C 
HETATM   11  O2  UNL     1      25.917   1.447  51.334  1.00  0.00    -0.319 OA
HETATM   12  P1  UNL     1      25.315   2.987  51.851  1.00  0.00     0.036 P 
HETATM   13  C19 UNL     1      24.100   3.731  50.616  1.00  0.00     0.058 C 
HETATM   14  C20 UNL     1      24.058   2.819  49.422  1.00  0.00     0.030 C 
HETATM   15  H22 UNL     1      26.395   3.939  52.042  1.00  0.00     0.089 HD
ENDROOT
BRANCH   6  16
HETATM   16  N1  UNL     1      21.061   2.496  52.463  1.00  0.00    -0.340 N 
HETATM   17  H13 UNL     1      20.462   3.195  52.930  1.00  0.00     0.167 HD
BRANCH  16  18
HETATM   18  C10 UNL     1      20.202   1.362  52.504  1.00  0.00     0.034 A 
HETATM   19  C11 UNL     1      20.221   0.383  53.467  1.00  0.00     0.032 A 
HETATM   20  C12 UNL     1      19.400  -0.702  53.503  1.00  0.00     0.045 A 
HETATM   21  C13 UNL     1      18.462  -0.852  52.501  1.00  0.00     0.122 A 
HETATM   22  F1  UNL     1      17.641  -1.929  52.532  1.00  0.00    -0.206 F 
HETATM   23  C14 UNL     1      18.369   0.093  51.482  1.00  0.00    -0.021 A 
HETATM   24  C15 UNL     1      17.366  -0.049  50.392  1.00  0.00     0.051 C 
HETATM   25  C16 UNL     1      19.242   1.172  51.513  1.00  0.00     0.039 A 
ENDBRANCH  16  18
ENDBRANCH   6  16
BRANCH   1  26
HETATM   26  C4  UNL     1      24.756   5.537  48.951  1.00  0.00     0.034 C 
BRANCH  26  27
HETATM   27  C3  UNL     1      26.157   6.056  48.734  1.00  0.00     0.002 C 
BRANCH  27  28
HETATM   28  C2  UNL     1      27.169   4.907  48.738  1.00  0.00    -0.004 C 
HETATM   29  C1  UNL     1      28.505   5.462  48.358  1.00  0.00     0.005 C 
ENDBRANCH  27  28
ENDBRANCH  26  27
ENDBRANCH   1  26
TORSDOF 5
ENDMDL
MODEL 7
REMARK VINA RESULT:      -7.5      4.637      7.176
REMARK  5 active torsions:
REMARK  status: ('A' for Active; 'I' for Inactive)
REMARK    1  A    between atoms: C2_2  and  C3_3 
REMARK    2  A    between atoms: C3_3  and  C4_4 
REMARK    3  A    between atoms: C4_4  and  C5_5 
REMARK    4  A    between atoms: C9_10  and  N1_11 
REMARK    5  A    between atoms: N1_11  and  C10_12 
ROOT
HETATM    1  C5  UNL     1      24.213   2.262  52.288  1.00  0.00     0.147 C 
HETATM    2  O1  UNL     1      25.559   1.939  52.590  1.00  0.00    -0.356 OA
HETATM    3  C6  UNL     1      26.576   1.879  51.672  1.00  0.00     0.136 C 
HETATM    4  C7  UNL     1      26.470   2.799  50.718  1.00  0.00     0.036 C 
HETATM    5  C8  UNL     1      25.360   3.744  50.706  1.00  0.00     0.007 C 
HETATM    6  C9  UNL     1      25.500   4.948  50.174  1.00  0.00     0.137 C 
HETATM    7  N2  UNL     1      24.399   5.849  50.176  1.00  0.00    -0.224 NA
HETATM    8  C17 UNL     1      24.323   6.862  50.964  1.00  0.00     0.237 C 
HETATM    9  N3  UNL     1      23.107   7.593  50.750  1.00  0.00    -0.230 NA
HETATM   10  C18 UNL     1      22.017   6.888  50.932  1.00  0.00     0.257 C 
HETATM   11  O2  UNL     1      21.956   5.531  51.304  1.00  0.00    -0.319 OA
HETATM   12  P1  UNL     1      23.298   4.862  52.171  1.00  0.00     0.036 P 
HETATM   13  C19 UNL     1      24.025   3.351  51.310  1.00  0.00     0.058 C 
HETATM   14  C20 UNL     1      23.154   3.049  50.123  1.00  0.00     0.030 C 
HETATM   15  H22 UNL     1      22.915   4.467  53.515  1.00  0.00     0.089 HD
ENDROOT
BRANCH   6  16
HETATM   16  N1  UNL     1      26.755   5.308  49.611  1.00  0.00    -0.340 N 
HETATM   17  H13 UNL     1      27.717   4.976  49.787  1.00  0.00     0.167 HD
BRANCH  16  18
HETATM   18  C10 UNL     1      27.006   6.278  48.599  1.00  0.00     0.034 A 
HETATM   19  C11 UNL     1      26.055   7.064  47.997  1.00  0.00     0.032 A 
HETATM   20  C12 UNL     1      26.298   7.990  47.028  1.00  0.00     0.045 A 
HETATM   21  C13 UNL     1      27.598   8.171  46.601  1.00  0.00     0.122 A 
HETATM   22  F1  UNL     1      27.845   9.092  45.639  1.00  0.00    -0.206 F 
HETATM   23  C14 UNL     1      28.629   7.418  47.157  1.00  0.00    -0.021 A 
HETATM   24  C15 UNL     1      30.038   7.598  46.711  1.00  0.00     0.051 C 
HETATM   25  C16 UNL     1      28.303   6.493  48.139  1.00  0.00     0.039 A 
ENDBRANCH  16  18
ENDBRANCH   6  16
BRANCH   1  26
HETATM   26  C4  UNL     1      23.509   0.969  52.032  1.00  0.00     0.034 C 
BRANCH  26  27
HETATM   27  C3  UNL     1      22.462   0.609  53.058  1.00  0.00     0.002 C 
BRANCH  27  28
HETATM   28  C2  UNL     1      22.808  -0.715  53.747  1.00  0.00    -0.004 C 
HETATM   29  C1  UNL     1      21.647  -1.111  54.603  1.00  0.00     0.005 C 
ENDBRANCH  27  28
ENDBRANCH  26  27
ENDBRANCH   1  26
TORSDOF 5
ENDMDL
MODEL 8
REMARK VINA RESULT:      -7.5      3.267      7.337
REMARK  5 active torsions:
REMARK  status: ('A' for Active; 'I' for Inactive)
REMARK    1  A    between atoms: C2_2  and  C3_3 
REMARK    2  A    between atoms: C3_3  and  C4_4 
REMARK    3  A    between atoms: C4_4  and  C5_5 
REMARK    4  A    between atoms: C9_10  and  N1_11 
REMARK    5  A    between atoms: N1_11  and  C10_12 
ROOT
HETATM    1  C5  UNL     1      26.250  -0.053  52.723  1.00  0.00     0.147 C 
HETATM    2  O1  UNL     1      25.210  -0.988  52.951  1.00  0.00    -0.356 OA
HETATM    3  C6  UNL     1      24.097  -0.751  53.718  1.00  0.00     0.136 C 
HETATM    4  C7  UNL     1      23.653   0.498  53.619  1.00  0.00     0.036 C 
HETATM    5  C8  UNL     1      24.327   1.470  52.765  1.00  0.00     0.007 C 
HETATM    6  C9  UNL     1      23.656   2.468  52.213  1.00  0.00     0.137 C 
HETATM    7  N2  UNL     1      24.341   3.400  51.385  1.00  0.00    -0.224 NA
HETATM    8  C17 UNL     1      24.234   3.411  50.104  1.00  0.00     0.237 C 
HETATM    9  N3  UNL     1      25.033   4.454  49.527  1.00  0.00    -0.230 NA
HETATM   10  C18 UNL     1      26.312   4.365  49.801  1.00  0.00     0.257 C 
HETATM   11  O2  UNL     1      26.929   3.367  50.582  1.00  0.00    -0.319 OA
HETATM   12  P1  UNL     1      26.142   1.829  50.709  1.00  0.00     0.036 P 
HETATM   13  C19 UNL     1      25.816   1.339  52.500  1.00  0.00     0.058 C 
HETATM   14  C20 UNL     1      26.442   2.390  53.374  1.00  0.00     0.030 C 
HETATM   15  H22 UNL     1      26.935   0.778  50.097  1.00  0.00     0.089 HD
ENDROOT
BRANCH   6  16
HETATM   16  N1  UNL     1      22.261   2.581  52.466  1.00  0.00    -0.340 N 
HETATM   17  H13 UNL     1      21.725   3.107  53.174  1.00  0.00     0.167 HD
BRANCH  16  18
HETATM   18  C10 UNL     1      21.197   1.956  51.757  1.00  0.00     0.034 A 
HETATM   19  C11 UNL     1      20.897   2.156  50.433  1.00  0.00     0.032 A 
HETATM   20  C12 UNL     1      19.877   1.557  49.758  1.00  0.00     0.045 A 
HETATM   21  C13 UNL     1      19.066   0.672  50.440  1.00  0.00     0.122 A 
HETATM   22  F1  UNL     1      18.051   0.073  49.773  1.00  0.00    -0.206 F 
HETATM   23  C14 UNL     1      19.296   0.407  51.787  1.00  0.00    -0.021 A 
HETATM   24  C15 UNL     1      18.434  -0.544  52.541  1.00  0.00     0.051 C 
HETATM   25  C16 UNL     1      20.355   1.056  52.406  1.00  0.00     0.039 A 
ENDBRANCH  16  18
ENDBRANCH   6  16
BRANCH   1  26
HETATM   26  C4  UNL     1      27.284  -0.299  53.773  1.00  0.00     0.034 C 
BRANCH  26  27
HETATM   27  C3  UNL     1      28.424  -1.187  53.337  1.00  0.00     0.002 C 
BRANCH  27  28
HETATM   28  C2  UNL     1      29.769  -0.479  53.529  1.00  0.00    -0.004 C 
HETATM   29  C1  UNL     1      29.512   0.840  54.186  1.00  0.00     0.005 C 
ENDBRANCH  27  28
ENDBRANCH  26  27
ENDBRANCH   1  26
TORSDOF 5
ENDMDL
MODEL 9
REMARK VINA RESULT:      -7.2      8.353     10.117
REMARK  5 active torsions:
REMARK  status: ('A' for Active; 'I' for Inactive)
REMARK    1  A    between atoms: C2_2  and  C3_3 
REMARK    2  A    between atoms: C3_3  and  C4_4 
REMARK    3  A    between atoms: C4_4  and  C5_5 
REMARK    4  A    between atoms: C9_10  and  N1_11 
REMARK    5  A    between atoms: N1_11  and  C10_12 
ROOT
HETATM    1  C5  UNL     1      25.964   7.641  48.340  1.00  0.00     0.147 C 
HETATM    2  O1  UNL     1      25.758   6.480  49.125  1.00  0.00    -0.356 OA
HETATM    3  C6  UNL     1      26.414   5.288  48.949  1.00  0.00     0.136 C 
HETATM    4  C7  UNL     1      27.683   5.442  48.581  1.00  0.00     0.036 C 
HETATM    5  C8  UNL     1      28.256   6.771  48.399  1.00  0.00     0.007 C 
HETATM    6  C9  UNL     1      29.548   6.985  48.593  1.00  0.00     0.137 C 
HETATM    7  N2  UNL     1      30.078   8.291  48.408  1.00  0.00    -0.224 NA
HETATM    8  C17 UNL     1      30.417   9.056  49.384  1.00  0.00     0.237 C 
HETATM    9  N3  UNL     1      30.919  10.313  48.906  1.00  0.00    -0.230 NA
HETATM   10  C18 UNL     1      30.067  10.987  48.173  1.00  0.00     0.257 C 
HETATM   11  O2  UNL     1      28.758  10.588  47.837  1.00  0.00    -0.319 OA
HETATM   12  P1  UNL     1      27.950   9.476  48.890  1.00  0.00     0.036 P 
HETATM   13  C19 UNL     1      27.366   7.928  47.985  1.00  0.00     0.058 C 
HETATM   14  C20 UNL     1      27.666   8.123  46.525  1.00  0.00     0.030 C 
HETATM   15  H22 UNL     1      26.791  10.088  49.517  1.00  0.00     0.089 HD
ENDROOT
BRANCH   6  16
HETATM   16  N1  UNL     1      30.374   5.894  48.982  1.00  0.00    -0.340 N 
HETATM   17  H13 UNL     1      30.309   5.216  49.758  1.00  0.00     0.167 HD
BRANCH  16  18
HETATM   18  C10 UNL     1      31.568   5.443  48.353  1.00  0.00     0.034 A 
HETATM   19  C11 UNL     1      31.631   4.573  47.293  1.00  0.00     0.032 A 
HETATM   20  C12 UNL     1      32.776   4.142  46.695  1.00  0.00     0.045 A 
HETATM   21  C13 UNL     1      33.984   4.605  47.175  1.00  0.00     0.122 A 
HETATM   22  F1  UNL     1      35.126   4.181  46.583  1.00  0.00    -0.206 F 
HETATM   23  C14 UNL     1      34.018   5.492  48.248  1.00  0.00    -0.021 A 
HETATM   24  C15 UNL     1      35.310   6.003  48.782  1.00  0.00     0.051 C 
HETATM   25  C16 UNL     1      32.809   5.885  48.806  1.00  0.00     0.039 A 
ENDBRANCH  16  18
ENDBRANCH   6  16
BRANCH   1  26
HETATM   26  C4  UNL     1      24.962   7.592  47.233  1.00  0.00     0.034 C 
BRANCH  26  27
HETATM   27  C3  UNL     1      23.523   7.570  47.687  1.00  0.00     0.002 C 
BRANCH  27  28
HETATM   28  C2  UNL     1      23.188   8.829  48.494  1.00  0.00    -0.004 C 
HETATM   29  C1  UNL     1      22.118   8.478  49.480  1.00  0.00     0.005 C 
ENDBRANCH  27  28
ENDBRANCH  26  27
ENDBRANCH   1  26
TORSDOF 5
ENDMDL
