MODEL 1
REMARK VINA RESULT:      -6.9      0.000      0.000
REMARK  7 active torsions:
REMARK  status: ('A' for Active; 'I' for Inactive)
REMARK    1  A    between atoms: C2_2  and  C3_3 
REMARK    2  A    between atoms: C4_4  and  C5_5 
REMARK    3  A    between atoms: C5_5  and  C6_6 
REMARK       I    between atoms: C6_6  and  N1_8 
REMARK    4  A    between atoms: N1_8  and  N2_9 
REMARK    5  A    between atoms: N2_9  and  C7_10 
REMARK    6  A    between atoms: C14_18  and  C15_19 
REMARK    7  A    between atoms: C15_19  and  O2_20 
ROOT
HETATM    1  C6  UNL     1      24.248   3.178  51.746  1.00  0.00     0.239 C 
HETATM    2  O1  UNL     1      24.389   2.209  50.959  1.00  0.00    -0.272 OA
HETATM    3  N1  UNL     1      25.095   3.323  52.915  1.00  0.00    -0.269 N 
HETATM    4  H8  UNL     1      24.854   4.193  53.406  1.00  0.00     0.190 HD
ENDROOT
BRANCH   3   5
HETATM    5  N2  UNL     1      25.935   2.251  52.957  1.00  0.00    -0.298 N 
HETATM    6  H9  UNL     1      25.272   1.990  52.180  1.00  0.00     0.187 HD
BRANCH   5   7
HETATM    7  C7  UNL     1      26.811   1.173  53.023  1.00  0.00     0.054 A 
HETATM    8  C8  UNL     1      26.176  -0.003  52.673  1.00  0.00     0.033 A 
HETATM    9  C9  UNL     1      26.837  -1.245  52.703  1.00  0.00     0.026 A 
HETATM   10  C10 UNL     1      28.173  -1.101  53.119  1.00  0.00     0.034 A 
HETATM   11 CL1  UNL     1      29.159  -2.535  53.253  1.00  0.00    -0.084 Cl
HETATM   12  C11 UNL     1      28.839   0.045  53.467  1.00  0.00     0.033 A 
HETATM   13  C12 UNL     1      28.124   1.205  53.412  1.00  0.00    -0.032 A 
HETATM   14  C13 UNL     1      28.751   2.515  53.695  1.00  0.00     0.050 C 
ENDBRANCH   5   7
ENDBRANCH   3   5
BRANCH   1  15
HETATM   15  C5  UNL     1      23.103   4.027  51.233  1.00  0.00     0.131 C 
BRANCH  15  16
HETATM   16  C4  UNL     1      22.906   3.904  49.785  1.00  0.00    -0.017 C 
HETATM   17  C3  UNL     1      23.685   4.615  48.951  1.00  0.00     0.003 C 
BRANCH  17  18
HETATM   18  C2  UNL     1      24.780   5.602  48.896  1.00  0.00    -0.064 C 
HETATM   19  C1  UNL     1      24.657   7.072  48.588  1.00  0.00     0.048 C 
HETATM   20  C14 UNL     1      26.047   5.167  49.015  1.00  0.00     0.005 C 
BRANCH  20  21
HETATM   21  C15 UNL     1      26.921   4.011  49.278  1.00  0.00     0.192 C 
BRANCH  21  22
HETATM   22  O2  UNL     1      27.149   3.737  50.624  1.00  0.00    -0.397 OA
HETATM   23  H19 UNL     1      26.466   3.082  50.936  1.00  0.00     0.209 HD
ENDBRANCH  21  22
ENDBRANCH  20  21
ENDBRANCH  17  18
ENDBRANCH  15  16
ENDBRANCH   1  15
TORSDOF 7
ENDMDL
MODEL 2
REMARK VINA RESULT:      -6.9      0.638      1.634
REMARK  7 active torsions:
REMARK  status: ('A' for Active; 'I' for Inactive)
REMARK    1  A    between atoms: C2_2  and  C3_3 
REMARK    2  A    between atoms: C4_4  and  C5_5 
REMARK    3  A    between atoms: C5_5  and  C6_6 
REMARK       I    between atoms: C6_6  and  N1_8 
REMARK    4  A    between atoms: N1_8  and  N2_9 
REMARK    5  A    between atoms: N2_9  and  C7_10 
REMARK    6  A    between atoms: C14_18  and  C15_19 
REMARK    7  A    between atoms: C15_19  and  O2_20 
ROOT
HETATM    1  C6  UNL     1      24.077   3.290  51.754  1.00  0.00     0.239 C 
HETATM    2  O1  UNL     1      24.352   2.296  51.035  1.00  0.00    -0.272 OA
HETATM    3  N1  UNL     1      24.816   3.562  52.971  1.00  0.00    -0.269 N 
HETATM    4  H8  UNL     1      24.473   4.434  53.393  1.00  0.00     0.190 HD
ENDROOT
BRANCH   3   5
HETATM    5  N2  UNL     1      25.729   2.563  53.137  1.00  0.00    -0.298 N 
HETATM    6  H9  UNL     1      24.888   2.045  52.770  1.00  0.00     0.187 HD
BRANCH   5   7
HETATM    7  C7  UNL     1      26.683   1.568  53.314  1.00  0.00     0.054 A 
HETATM    8  C8  UNL     1      27.939   2.113  53.502  1.00  0.00     0.033 A 
HETATM    9  C9  UNL     1      29.085   1.312  53.659  1.00  0.00     0.026 A 
HETATM   10  C10 UNL     1      28.761  -0.056  53.603  1.00  0.00     0.034 A 
HETATM   11 CL1  UNL     1      30.052  -1.221  53.747  1.00  0.00    -0.084 Cl
HETATM   12  C11 UNL     1      27.531  -0.635  53.426  1.00  0.00     0.033 A 
HETATM   13  C12 UNL     1      26.475   0.215  53.279  1.00  0.00    -0.032 A 
HETATM   14  C13 UNL     1      25.089  -0.288  53.152  1.00  0.00     0.050 C 
ENDBRANCH   5   7
ENDBRANCH   3   5
BRANCH   1  15
HETATM   15  C5  UNL     1      22.914   4.017  51.108  1.00  0.00     0.131 C 
BRANCH  15  16
HETATM   16  C4  UNL     1      22.865   3.837  49.654  1.00  0.00    -0.017 C 
HETATM   17  C3  UNL     1      23.679   4.567  48.871  1.00  0.00     0.003 C 
BRANCH  17  18
HETATM   18  C2  UNL     1      24.717   5.615  48.884  1.00  0.00    -0.064 C 
HETATM   19  C1  UNL     1      24.517   7.087  48.628  1.00  0.00     0.048 C 
HETATM   20  C14 UNL     1      26.003   5.248  49.020  1.00  0.00     0.005 C 
BRANCH  20  21
HETATM   21  C15 UNL     1      26.936   4.133  49.262  1.00  0.00     0.192 C 
BRANCH  21  22
HETATM   22  O2  UNL     1      27.069   3.754  50.595  1.00  0.00    -0.397 OA
HETATM   23  H19 UNL     1      28.010   3.914  50.880  1.00  0.00     0.209 HD
ENDBRANCH  21  22
ENDBRANCH  20  21
ENDBRANCH  17  18
ENDBRANCH  15  16
ENDBRANCH   1  15
TORSDOF 7
ENDMDL
MODEL 3
REMARK VINA RESULT:      -6.8      2.619      4.548
REMARK  7 active torsions:
REMARK  status: ('A' for Active; 'I' for Inactive)
REMARK    1  A    between atoms: C2_2  and  C3_3 
REMARK    2  A    between atoms: C4_4  and  C5_5 
REMARK    3  A    between atoms: C5_5  and  C6_6 
REMARK       I    between atoms: C6_6  and  N1_8 
REMARK    4  A    between atoms: N1_8  and  N2_9 
REMARK    5  A    between atoms: N2_9  and  C7_10 
REMARK    6  A    between atoms: C14_18  and  C15_19 
REMARK    7  A    between atoms: C15_19  and  O2_20 
ROOT
HETATM    1  C6  UNL     1      23.921   3.301  52.055  1.00  0.00     0.239 C 
HETATM    2  O1  UNL     1      24.330   2.456  51.220  1.00  0.00    -0.272 OA
HETATM    3  N1  UNL     1      24.583   3.474  53.333  1.00  0.00    -0.269 N 
HETATM    4  H8  UNL     1      24.129   4.235  53.854  1.00  0.00     0.190 HD
ENDROOT
BRANCH   3   5
HETATM    5  N2  UNL     1      25.597   2.566  53.404  1.00  0.00    -0.298 N 
HETATM    6  H9  UNL     1      25.992   3.299  52.757  1.00  0.00     0.187 HD
BRANCH   5   7
HETATM    7  C7  UNL     1      26.615   1.624  53.499  1.00  0.00     0.054 A 
HETATM    8  C8  UNL     1      27.847   2.237  53.622  1.00  0.00     0.033 A 
HETATM    9  C9  UNL     1      29.044   1.499  53.691  1.00  0.00     0.026 A 
HETATM   10  C10 UNL     1      28.794   0.117  53.624  1.00  0.00     0.034 A 
HETATM   11 CL1  UNL     1      30.155  -0.975  53.661  1.00  0.00    -0.084 Cl
HETATM   12  C11 UNL     1      27.590  -0.528  53.509  1.00  0.00     0.033 A 
HETATM   13  C12 UNL     1      26.481   0.262  53.447  1.00  0.00    -0.032 A 
HETATM   14  C13 UNL     1      25.120  -0.317  53.394  1.00  0.00     0.050 C 
ENDBRANCH   5   7
ENDBRANCH   3   5
BRANCH   1  15
HETATM   15  C5  UNL     1      22.705   3.984  51.460  1.00  0.00     0.131 C 
BRANCH  15  16
HETATM   16  C4  UNL     1      21.496   3.802  52.270  1.00  0.00    -0.017 C 
HETATM   17  C3  UNL     1      21.006   2.564  52.455  1.00  0.00     0.003 C 
BRANCH  17  18
HETATM   18  C2  UNL     1      21.209   1.141  52.118  1.00  0.00    -0.064 C 
HETATM   19  C1  UNL     1      21.310   0.546  50.737  1.00  0.00     0.048 C 
HETATM   20  C14 UNL     1      21.191   0.235  53.110  1.00  0.00     0.005 C 
BRANCH  20  21
HETATM   21  C15 UNL     1      21.123   0.019  54.566  1.00  0.00     0.192 C 
BRANCH  21  22
HETATM   22  O2  UNL     1      21.034  -1.312  54.962  1.00  0.00    -0.397 OA
HETATM   23  H19 UNL     1      20.202  -1.705  54.579  1.00  0.00     0.209 HD
ENDBRANCH  21  22
ENDBRANCH  20  21
ENDBRANCH  17  18
ENDBRANCH  15  16
ENDBRANCH   1  15
TORSDOF 7
ENDMDL
MODEL 4
REMARK VINA RESULT:      -6.8      2.988      4.075
REMARK  7 active torsions:
REMARK  status: ('A' for Active; 'I' for Inactive)
REMARK    1  A    between atoms: C2_2  and  C3_3 
REMARK    2  A    between atoms: C4_4  and  C5_5 
REMARK    3  A    between atoms: C5_5  and  C6_6 
REMARK       I    between atoms: C6_6  and  N1_8 
REMARK    4  A    between atoms: N1_8  and  N2_9 
REMARK    5  A    between atoms: N2_9  and  C7_10 
REMARK    6  A    between atoms: C14_18  and  C15_19 
REMARK    7  A    between atoms: C15_19  and  O2_20 
ROOT
HETATM    1  C6  UNL     1      25.947   3.900  49.911  1.00  0.00     0.239 C 
HETATM    2  O1  UNL     1      24.807   3.466  49.610  1.00  0.00    -0.272 OA
HETATM    3  N1  UNL     1      26.679   3.364  51.041  1.00  0.00    -0.269 N 
HETATM    4  H8  UNL     1      27.600   3.816  51.099  1.00  0.00     0.190 HD
ENDROOT
BRANCH   3   5
HETATM    5  N2  UNL     1      25.892   2.427  51.642  1.00  0.00    -0.298 N 
HETATM    6  H9  UNL     1      25.227   2.881  50.961  1.00  0.00     0.187 HD
BRANCH   5   7
HETATM    7  C7  UNL     1      25.116   1.461  52.271  1.00  0.00     0.054 A 
HETATM    8  C8  UNL     1      23.822   1.908  52.457  1.00  0.00     0.033 A 
HETATM    9  C9  UNL     1      22.850   1.131  53.114  1.00  0.00     0.026 A 
HETATM   10  C10 UNL     1      23.379  -0.108  53.520  1.00  0.00     0.034 A 
HETATM   11 CL1  UNL     1      22.338  -1.211  54.384  1.00  0.00    -0.084 Cl
HETATM   12  C11 UNL     1      24.650  -0.590  53.349  1.00  0.00     0.033 A 
HETATM   13  C12 UNL     1      25.529   0.229  52.704  1.00  0.00    -0.032 A 
HETATM   14  C13 UNL     1      26.910  -0.207  52.396  1.00  0.00     0.050 C 
ENDBRANCH   5   7
ENDBRANCH   3   5
BRANCH   1  15
HETATM   15  C5  UNL     1      26.297   4.998  48.925  1.00  0.00     0.131 C 
BRANCH  15  16
HETATM   16  C4  UNL     1      27.735   5.081  48.651  1.00  0.00    -0.017 C 
HETATM   17  C3  UNL     1      28.253   6.235  48.194  1.00  0.00     0.003 C 
BRANCH  17  18
HETATM   18  C2  UNL     1      27.917   7.614  47.791  1.00  0.00    -0.064 C 
HETATM   19  C1  UNL     1      28.196   8.260  46.459  1.00  0.00     0.048 C 
HETATM   20  C14 UNL     1      27.411   8.450  48.715  1.00  0.00     0.005 C 
BRANCH  20  21
HETATM   21  C15 UNL     1      26.920   8.590  50.097  1.00  0.00     0.192 C 
BRANCH  21  22
HETATM   22  O2  UNL     1      27.685   9.417  50.914  1.00  0.00    -0.397 OA
HETATM   23  H19 UNL     1      27.422  10.364  50.746  1.00  0.00     0.209 HD
ENDBRANCH  21  22
ENDBRANCH  20  21
ENDBRANCH  17  18
ENDBRANCH  15  16
ENDBRANCH   1  15
TORSDOF 7
ENDMDL
MODEL 5
REMARK VINA RESULT:      -6.7      3.329      6.729
REMARK  7 active torsions:
REMARK  status: ('A' for Active; 'I' for Inactive)
REMARK    1  A    between atoms: C2_2  and  C3_3 
REMARK    2  A    between atoms: C4_4  and  C5_5 
REMARK    3  A    between atoms: C5_5  and  C6_6 
REMARK       I    between atoms: C6_6  and  N1_8 
REMARK    4  A    between atoms: N1_8  and  N2_9 
REMARK    5  A    between atoms: N2_9  and  C7_10 
REMARK    6  A    between atoms: C14_18  and  C15_19 
REMARK    7  A    between atoms: C15_19  and  O2_20 
ROOT
HETATM    1  C6  UNL     1      24.153   2.753  51.043  1.00  0.00     0.239 C 
HETATM    2  O1  UNL     1      23.955   2.875  49.808  1.00  0.00    -0.272 OA
HETATM    3  N1  UNL     1      24.791   3.807  51.808  1.00  0.00    -0.269 N 
HETATM    4  H8  UNL     1      24.825   3.538  52.799  1.00  0.00     0.190 HD
ENDROOT
BRANCH   3   5
HETATM    5  N2  UNL     1      25.121   4.808  50.944  1.00  0.00    -0.298 N 
HETATM    6  H9  UNL     1      24.070   4.880  50.985  1.00  0.00     0.187 HD
BRANCH   5   7
HETATM    7  C7  UNL     1      25.491   5.823  50.069  1.00  0.00     0.054 A 
HETATM    8  C8  UNL     1      24.786   6.982  50.329  1.00  0.00     0.033 A 
HETATM    9  C9  UNL     1      24.946   8.144  49.551  1.00  0.00     0.026 A 
HETATM   10  C10 UNL     1      25.890   7.945  48.528  1.00  0.00     0.034 A 
HETATM   11 CL1  UNL     1      26.211   9.262  47.429  1.00  0.00    -0.084 Cl
HETATM   12  C11 UNL     1      26.614   6.817  48.242  1.00  0.00     0.033 A 
HETATM   13  C12 UNL     1      26.396   5.736  49.045  1.00  0.00    -0.032 A 
HETATM   14  C13 UNL     1      27.167   4.483  48.881  1.00  0.00     0.050 C 
ENDBRANCH   5   7
ENDBRANCH   3   5
BRANCH   1  15
HETATM   15  C5  UNL     1      23.637   1.390  51.460  1.00  0.00     0.131 C 
BRANCH  15  16
HETATM   16  C4  UNL     1      23.836   1.117  52.887  1.00  0.00    -0.017 C 
HETATM   17  C3  UNL     1      24.972   0.522  53.293  1.00  0.00     0.003 C 
BRANCH  17  18
HETATM   18  C2  UNL     1      26.248  -0.052  52.823  1.00  0.00    -0.064 C 
HETATM   19  C1  UNL     1      26.524  -1.498  52.502  1.00  0.00     0.048 C 
HETATM   20  C14 UNL     1      27.333   0.742  52.774  1.00  0.00     0.005 C 
BRANCH  20  21
HETATM   21  C15 UNL     1      27.851   2.112  52.931  1.00  0.00     0.192 C 
BRANCH  21  22
HETATM   22  O2  UNL     1      27.593   2.967  51.865  1.00  0.00    -0.397 OA
HETATM   23  H19 UNL     1      28.428   3.465  51.645  1.00  0.00     0.209 HD
ENDBRANCH  21  22
ENDBRANCH  20  21
ENDBRANCH  17  18
ENDBRANCH  15  16
ENDBRANCH   1  15
TORSDOF 7
ENDMDL
MODEL 6
REMARK VINA RESULT:      -6.5      5.304      7.889
REMARK  7 active torsions:
REMARK  status: ('A' for Active; 'I' for Inactive)
REMARK    1  A    between atoms: C2_2  and  C3_3 
REMARK    2  A    between atoms: C4_4  and  C5_5 
REMARK    3  A    between atoms: C5_5  and  C6_6 
REMARK       I    between atoms: C6_6  and  N1_8 
REMARK    4  A    between atoms: N1_8  and  N2_9 
REMARK    5  A    between atoms: N2_9  and  C7_10 
REMARK    6  A    between atoms: C14_18  and  C15_19 
REMARK    7  A    between atoms: C15_19  and  O2_20 
ROOT
HETATM    1  C6  UNL     1      23.414  -0.007  53.137  1.00  0.00     0.239 C 
HETATM    2  O1  UNL     1      22.954  -1.173  53.212  1.00  0.00    -0.272 OA
HETATM    3  N1  UNL     1      22.557   1.118  52.815  1.00  0.00    -0.269 N 
HETATM    4  H8  UNL     1      23.107   1.986  52.841  1.00  0.00     0.190 HD
ENDROOT
BRANCH   3   5
HETATM    5  N2  UNL     1      21.301   0.636  52.595  1.00  0.00    -0.298 N 
HETATM    6  H9  UNL     1      21.820  -0.221  52.924  1.00  0.00     0.187 HD
BRANCH   5   7
HETATM    7  C7  UNL     1      20.010   0.176  52.365  1.00  0.00     0.054 A 
HETATM    8  C8  UNL     1      19.568  -0.606  53.415  1.00  0.00     0.033 A 
HETATM    9  C9  UNL     1      18.306  -1.228  53.403  1.00  0.00     0.026 A 
HETATM   10  C10 UNL     1      17.606  -0.937  52.218  1.00  0.00     0.034 A 
HETATM   11 CL1  UNL     1      16.026  -1.642  51.994  1.00  0.00    -0.084 Cl
HETATM   12  C11 UNL     1      18.005  -0.163  51.160  1.00  0.00     0.033 A 
HETATM   13  C12 UNL     1      19.244   0.402  51.253  1.00  0.00    -0.032 A 
HETATM   14  C13 UNL     1      19.758   1.314  50.207  1.00  0.00     0.050 C 
ENDBRANCH   5   7
ENDBRANCH   3   5
BRANCH   1  15
HETATM   15  C5  UNL     1      24.903  -0.080  53.412  1.00  0.00     0.131 C 
BRANCH  15  16
HETATM   16  C4  UNL     1      25.704   0.629  52.410  1.00  0.00    -0.017 C 
HETATM   17  C3  UNL     1      27.045   0.618  52.510  1.00  0.00     0.003 C 
BRANCH  17  18
HETATM   18  C2  UNL     1      28.174   0.136  53.330  1.00  0.00    -0.064 C 
HETATM   19  C1  UNL     1      29.130   0.978  54.134  1.00  0.00     0.048 C 
HETATM   20  C14 UNL     1      28.486  -1.171  53.292  1.00  0.00     0.005 C 
BRANCH  20  21
HETATM   21  C15 UNL     1      28.108  -2.503  52.789  1.00  0.00     0.192 C 
BRANCH  21  22
HETATM   22  O2  UNL     1      28.687  -3.575  53.461  1.00  0.00    -0.397 OA
HETATM   23  H19 UNL     1      29.678  -3.474  53.429  1.00  0.00     0.209 HD
ENDBRANCH  21  22
ENDBRANCH  20  21
ENDBRANCH  17  18
ENDBRANCH  15  16
ENDBRANCH   1  15
TORSDOF 7
ENDMDL
MODEL 7
REMARK VINA RESULT:      -6.4      2.256      4.174
REMARK  7 active torsions:
REMARK  status: ('A' for Active; 'I' for Inactive)
REMARK    1  A    between atoms: C2_2  and  C3_3 
REMARK    2  A    between atoms: C4_4  and  C5_5 
REMARK    3  A    between atoms: C5_5  and  C6_6 
REMARK       I    between atoms: C6_6  and  N1_8 
REMARK    4  A    between atoms: N1_8  and  N2_9 
REMARK    5  A    between atoms: N2_9  and  C7_10 
REMARK    6  A    between atoms: C14_18  and  C15_19 
REMARK    7  A    between atoms: C15_19  and  O2_20 
ROOT
HETATM    1  C6  UNL     1      23.952   3.253  51.940  1.00  0.00     0.239 C 
HETATM    2  O1  UNL     1      24.396   2.417  51.114  1.00  0.00    -0.272 OA
HETATM    3  N1  UNL     1      24.580   3.432  53.235  1.00  0.00    -0.269 N 
HETATM    4  H8  UNL     1      24.100   4.184  53.747  1.00  0.00     0.190 HD
ENDROOT
BRANCH   3   5
HETATM    5  N2  UNL     1      25.606   2.541  53.329  1.00  0.00    -0.298 N 
HETATM    6  H9  UNL     1      26.003   3.280  52.691  1.00  0.00     0.187 HD
BRANCH   5   7
HETATM    7  C7  UNL     1      26.636   1.615  53.447  1.00  0.00     0.054 A 
HETATM    8  C8  UNL     1      27.849   2.246  53.646  1.00  0.00     0.033 A 
HETATM    9  C9  UNL     1      29.055   1.528  53.752  1.00  0.00     0.026 A 
HETATM   10  C10 UNL     1      28.836   0.144  53.634  1.00  0.00     0.034 A 
HETATM   11 CL1  UNL     1      30.215  -0.924  53.707  1.00  0.00    -0.084 Cl
HETATM   12  C11 UNL     1      27.651  -0.519  53.444  1.00  0.00     0.033 A 
HETATM   13  C12 UNL     1      26.531   0.253  53.350  1.00  0.00    -0.032 A 
HETATM   14  C13 UNL     1      25.186  -0.349  53.216  1.00  0.00     0.050 C 
ENDBRANCH   5   7
ENDBRANCH   3   5
BRANCH   1  15
HETATM   15  C5  UNL     1      22.740   3.918  51.318  1.00  0.00     0.131 C 
BRANCH  15  16
HETATM   16  C4  UNL     1      21.501   3.647  52.052  1.00  0.00    -0.017 C 
HETATM   17  C3  UNL     1      21.026   2.389  52.103  1.00  0.00     0.003 C 
BRANCH  17  18
HETATM   18  C2  UNL     1      21.270   1.006  51.650  1.00  0.00    -0.064 C 
HETATM   19  C1  UNL     1      21.586  -0.185  52.517  1.00  0.00     0.048 C 
HETATM   20  C14 UNL     1      21.340   0.762  50.330  1.00  0.00     0.005 C 
BRANCH  20  21
HETATM   21  C15 UNL     1      21.190   1.322  48.975  1.00  0.00     0.192 C 
BRANCH  21  22
HETATM   22  O2  UNL     1      19.892   1.679  48.624  1.00  0.00    -0.397 OA
HETATM   23  H19 UNL     1      19.600   1.110  47.859  1.00  0.00     0.209 HD
ENDBRANCH  21  22
ENDBRANCH  20  21
ENDBRANCH  17  18
ENDBRANCH  15  16
ENDBRANCH   1  15
TORSDOF 7
ENDMDL
MODEL 8
REMARK VINA RESULT:      -6.3      3.278      4.287
REMARK  7 active torsions:
REMARK  status: ('A' for Active; 'I' for Inactive)
REMARK    1  A    between atoms: C2_2  and  C3_3 
REMARK    2  A    between atoms: C4_4  and  C5_5 
REMARK    3  A    between atoms: C5_5  and  C6_6 
REMARK       I    between atoms: C6_6  and  N1_8 
REMARK    4  A    between atoms: N1_8  and  N2_9 
REMARK    5  A    between atoms: N2_9  and  C7_10 
REMARK    6  A    between atoms: C14_18  and  C15_19 
REMARK    7  A    between atoms: C15_19  and  O2_20 
ROOT
HETATM    1  C6  UNL     1      25.406   3.540  50.653  1.00  0.00     0.239 C 
HETATM    2  O1  UNL     1      24.341   3.127  50.129  1.00  0.00    -0.272 OA
HETATM    3  N1  UNL     1      25.881   2.999  51.911  1.00  0.00    -0.269 N 
HETATM    4  H8  UNL     1      26.781   3.433  52.152  1.00  0.00     0.190 HD
ENDROOT
BRANCH   3   5
HETATM    5  N2  UNL     1      24.967   2.085  52.345  1.00  0.00    -0.298 N 
HETATM    6  H9  UNL     1      25.403   1.598  51.518  1.00  0.00     0.187 HD
BRANCH   5   7
HETATM    7  C7  UNL     1      24.030   1.172  52.813  1.00  0.00     0.054 A 
HETATM    8  C8  UNL     1      22.749   1.678  52.704  1.00  0.00     0.033 A 
HETATM    9  C9  UNL     1      21.623   0.963  53.152  1.00  0.00     0.026 A 
HETATM   10  C10 UNL     1      21.993  -0.282  53.694  1.00  0.00     0.034 A 
HETATM   11 CL1  UNL     1      20.740  -1.312  54.337  1.00  0.00    -0.084 Cl
HETATM   12  C11 UNL     1      23.248  -0.821  53.814  1.00  0.00     0.033 A 
HETATM   13  C12 UNL     1      24.283  -0.060  53.356  1.00  0.00    -0.032 A 
HETATM   14  C13 UNL     1      25.675  -0.561  53.365  1.00  0.00     0.050 C 
ENDBRANCH   5   7
ENDBRANCH   3   5
BRANCH   1  15
HETATM   15  C5  UNL     1      25.973   4.621  49.754  1.00  0.00     0.131 C 
BRANCH  15  16
HETATM   16  C4  UNL     1      27.150   4.177  49.001  1.00  0.00    -0.017 C 
HETATM   17  C3  UNL     1      27.957   5.093  48.438  1.00  0.00     0.003 C 
BRANCH  17  18
HETATM   18  C2  UNL     1      28.152   6.542  48.233  1.00  0.00    -0.064 C 
HETATM   19  C1  UNL     1      27.127   7.530  47.738  1.00  0.00     0.048 C 
HETATM   20  C14 UNL     1      29.386   7.054  48.380  1.00  0.00     0.005 C 
BRANCH  20  21
HETATM   21  C15 UNL     1      30.780   6.786  48.774  1.00  0.00     0.192 C 
BRANCH  21  22
HETATM   22  O2  UNL     1      30.934   5.882  49.821  1.00  0.00    -0.397 OA
HETATM   23  H19 UNL     1      31.618   6.238  50.452  1.00  0.00     0.209 HD
ENDBRANCH  21  22
ENDBRANCH  20  21
ENDBRANCH  17  18
ENDBRANCH  15  16
ENDBRANCH   1  15
TORSDOF 7
ENDMDL
MODEL 9
REMARK VINA RESULT:      -6.3      4.811      7.517
REMARK  7 active torsions:
REMARK  status: ('A' for Active; 'I' for Inactive)
REMARK    1  A    between atoms: C2_2  and  C3_3 
REMARK    2  A    between atoms: C4_4  and  C5_5 
REMARK    3  A    between atoms: C5_5  and  C6_6 
REMARK       I    between atoms: C6_6  and  N1_8 
REMARK    4  A    between atoms: N1_8  and  N2_9 
REMARK    5  A    between atoms: N2_9  and  C7_10 
REMARK    6  A    between atoms: C14_18  and  C15_19 
REMARK    7  A    between atoms: C15_19  and  O2_20 
ROOT
HETATM    1  C6  UNL     1      24.072   0.335  53.033  1.00  0.00     0.239 C 
HETATM    2  O1  UNL     1      23.714  -0.869  53.058  1.00  0.00    -0.272 OA
HETATM    3  N1  UNL     1      23.100   1.403  52.910  1.00  0.00    -0.269 N 
HETATM    4  H8  UNL     1      23.581   2.310  52.949  1.00  0.00     0.190 HD
ENDROOT
BRANCH   3   5
HETATM    5  N2  UNL     1      21.867   0.834  52.793  1.00  0.00    -0.298 N 
HETATM    6  H9  UNL     1      22.187   0.493  53.738  1.00  0.00     0.187 HD
BRANCH   5   7
HETATM    7  C7  UNL     1      20.605   0.271  52.646  1.00  0.00     0.054 A 
HETATM    8  C8  UNL     1      19.935   0.830  51.575  1.00  0.00     0.033 A 
HETATM    9  C9  UNL     1      18.618   0.461  51.243  1.00  0.00     0.026 A 
HETATM   10  C10 UNL     1      18.126  -0.518  52.125  1.00  0.00     0.034 A 
HETATM   11 CL1  UNL     1      16.492  -1.090  51.902  1.00  0.00    -0.084 Cl
HETATM   12  C11 UNL     1      18.759  -1.101  53.192  1.00  0.00     0.033 A 
HETATM   13  C12 UNL     1      20.033  -0.684  53.444  1.00  0.00    -0.032 A 
HETATM   14  C13 UNL     1      20.845  -1.289  54.524  1.00  0.00     0.050 C 
ENDBRANCH   5   7
ENDBRANCH   3   5
BRANCH   1  15
HETATM   15  C5  UNL     1      25.585   0.368  53.131  1.00  0.00     0.131 C 
BRANCH  15  16
HETATM   16  C4  UNL     1      26.084  -0.123  54.419  1.00  0.00    -0.017 C 
HETATM   17  C3  UNL     1      27.409  -0.261  54.603  1.00  0.00     0.003 C 
BRANCH  17  18
HETATM   18  C2  UNL     1      28.723  -0.116  53.948  1.00  0.00    -0.064 C 
HETATM   19  C1  UNL     1      29.742  -1.201  53.718  1.00  0.00     0.048 C 
HETATM   20  C14 UNL     1      29.142   1.116  53.610  1.00  0.00     0.005 C 
BRANCH  20  21
HETATM   21  C15 UNL     1      28.794   2.546  53.531  1.00  0.00     0.192 C 
BRANCH  21  22
HETATM   22  O2  UNL     1      27.979   2.896  52.458  1.00  0.00    -0.397 OA
HETATM   23  H19 UNL     1      27.559   3.779  52.652  1.00  0.00     0.209 HD
ENDBRANCH  21  22
ENDBRANCH  20  21
ENDBRANCH  17  18
ENDBRANCH  15  16
ENDBRANCH   1  15
TORSDOF 7
ENDMDL
