MODEL 1
REMARK VINA RESULT:      -7.8      0.000      0.000
REMARK  2 active torsions:
REMARK  status: ('A' for Active; 'I' for Inactive)
REMARK    1  A    between atoms: C2_2  and  S1_3 
REMARK    2  A    between atoms: S1_3  and  C3_4 
ROOT
HETATM    1  C3  UNL     1      25.561   1.047  53.529  1.00  0.00     0.082 C 
HETATM    2  C4  UNL     1      26.714   1.945  53.257  1.00  0.00    -0.014 C 
HETATM    3  C5  UNL     1      27.136   2.436  52.097  1.00  0.00    -0.025 C 
HETATM    4  C6  UNL     1      26.270   2.516  50.860  1.00  0.00     0.062 C 
HETATM    5  C7  UNL     1      24.981   3.208  51.257  1.00  0.00    -0.065 C 
HETATM    6  C8  UNL     1      24.374   2.957  52.421  1.00  0.00    -0.067 C 
HETATM    7  C9  UNL     1      23.775   4.223  52.995  1.00  0.00     0.067 C 
HETATM    8  P1  UNL     1      23.126   5.003  51.409  1.00  0.00    -0.116 P 
HETATM    9  C10 UNL     1      24.402   4.175  50.334  1.00  0.00     0.047 C 
HETATM   10  C11 UNL     1      23.826   3.695  49.059  1.00  0.00     0.078 C 
HETATM   11  C12 UNL     1      22.856   2.613  49.172  1.00  0.00     0.054 A 
HETATM   12  C13 UNL     1      22.233   1.829  48.228  1.00  0.00     0.035 A 
HETATM   13  C14 UNL     1      21.428   0.986  48.953  1.00  0.00     0.039 A 
HETATM   14  C15 UNL     1      21.585   1.279  50.279  1.00  0.00     0.075 A 
HETATM   15  O1  UNL     1      22.454   2.265  50.370  1.00  0.00    -0.315 OA
HETATM   16  C16 UNL     1      21.212   0.979  51.651  1.00  0.00     0.033 C 
HETATM   17  C17 UNL     1      22.052   0.679  52.595  1.00  0.00    -0.023 C 
HETATM   18  C18 UNL     1      23.511   0.619  52.322  1.00  0.00     0.037 C 
HETATM   19  C19 UNL     1      24.250   1.648  53.137  1.00  0.00     0.036 C 
HETATM   20  H11 UNL     1      23.333   6.429  51.528  1.00  0.00     0.058 HD
ENDROOT
BRANCH   1  21
HETATM   21  S1  UNL     1      25.900  -0.465  52.543  1.00  0.00    -0.133 SA
BRANCH  21  22
HETATM   22  C2  UNL     1      27.478  -1.096  53.061  1.00  0.00     0.035 C 
HETATM   23  C1  UNL     1      27.419  -2.351  52.638  1.00  0.00     0.018 C 
ENDBRANCH  21  22
ENDBRANCH   1  21
TORSDOF 2
ENDMDL
MODEL 2
REMARK VINA RESULT:      -7.2      2.253      4.464
REMARK  2 active torsions:
REMARK  status: ('A' for Active; 'I' for Inactive)
REMARK    1  A    between atoms: C2_2  and  S1_3 
REMARK    2  A    between atoms: S1_3  and  C3_4 
ROOT
HETATM    1  C3  UNL     1      25.325   1.423  51.625  1.00  0.00     0.082 C 
HETATM    2  C4  UNL     1      24.016   1.049  52.221  1.00  0.00    -0.014 C 
HETATM    3  C5  UNL     1      23.101   1.830  52.785  1.00  0.00    -0.025 C 
HETATM    4  C6  UNL     1      23.022   3.323  52.560  1.00  0.00     0.062 C 
HETATM    5  C7  UNL     1      23.019   3.551  51.062  1.00  0.00    -0.065 C 
HETATM    6  C8  UNL     1      23.795   2.842  50.236  1.00  0.00    -0.067 C 
HETATM    7  C9  UNL     1      23.068   2.548  48.941  1.00  0.00     0.067 C 
HETATM    8  P1  UNL     1      22.195   4.197  48.697  1.00  0.00    -0.116 P 
HETATM    9  C10 UNL     1      22.136   4.576  50.520  1.00  0.00     0.047 C 
HETATM   10  C11 UNL     1      22.429   5.998  50.801  1.00  0.00     0.078 C 
HETATM   11  C12 UNL     1      23.787   6.435  50.500  1.00  0.00     0.054 A 
HETATM   12  C13 UNL     1      24.457   7.610  50.753  1.00  0.00     0.035 A 
HETATM   13  C14 UNL     1      25.709   7.417  50.225  1.00  0.00     0.039 A 
HETATM   14  C15 UNL     1      25.756   6.163  49.682  1.00  0.00     0.075 A 
HETATM   15  O1  UNL     1      24.578   5.603  49.867  1.00  0.00    -0.315 OA
HETATM   16  C16 UNL     1      26.542   5.161  48.981  1.00  0.00     0.033 C 
HETATM   17  C17 UNL     1      26.743   3.951  49.407  1.00  0.00    -0.023 C 
HETATM   18  C18 UNL     1      26.159   3.492  50.693  1.00  0.00     0.037 C 
HETATM   19  C19 UNL     1      25.193   2.358  50.467  1.00  0.00     0.036 C 
HETATM   20  H11 UNL     1      20.891   3.904  48.144  1.00  0.00     0.058 HD
ENDROOT
BRANCH   1  21
HETATM   21  S1  UNL     1      26.255   2.218  52.995  1.00  0.00    -0.133 SA
BRANCH  21  22
HETATM   22  C2  UNL     1      27.798   1.352  53.164  1.00  0.00     0.035 C 
HETATM   23  C1  UNL     1      28.609   2.322  53.563  1.00  0.00     0.018 C 
ENDBRANCH  21  22
ENDBRANCH   1  21
TORSDOF 2
ENDMDL
MODEL 3
REMARK VINA RESULT:      -6.3      2.830      4.425
REMARK  2 active torsions:
REMARK  status: ('A' for Active; 'I' for Inactive)
REMARK    1  A    between atoms: C2_2  and  S1_3 
REMARK    2  A    between atoms: S1_3  and  C3_4 
ROOT
HETATM    1  C3  UNL     1      24.620   3.030  50.785  1.00  0.00     0.082 C 
HETATM    2  C4  UNL     1      24.578   3.273  52.251  1.00  0.00    -0.014 C 
HETATM    3  C5  UNL     1      23.695   3.971  52.957  1.00  0.00    -0.025 C 
HETATM    4  C6  UNL     1      22.310   4.316  52.458  1.00  0.00     0.062 C 
HETATM    5  C7  UNL     1      21.668   3.025  51.989  1.00  0.00    -0.065 C 
HETATM    6  C8  UNL     1      22.354   2.097  51.315  1.00  0.00    -0.067 C 
HETATM    7  C9  UNL     1      21.924   0.707  51.732  1.00  0.00     0.067 C 
HETATM    8  P1  UNL     1      20.070   0.994  51.892  1.00  0.00    -0.116 P 
HETATM    9  C10 UNL     1      20.260   2.803  52.294  1.00  0.00     0.047 C 
HETATM   10  C11 UNL     1      19.239   3.632  51.617  1.00  0.00     0.078 C 
HETATM   11  C12 UNL     1      19.334   3.689  50.163  1.00  0.00     0.054 A 
HETATM   12  C13 UNL     1      18.674   4.446  49.223  1.00  0.00     0.035 A 
HETATM   13  C14 UNL     1      19.201   4.045  48.021  1.00  0.00     0.039 A 
HETATM   14  C15 UNL     1      20.139   3.081  48.264  1.00  0.00     0.075 A 
HETATM   15  O1  UNL     1      20.190   2.894  49.568  1.00  0.00    -0.315 OA
HETATM   16  C16 UNL     1      21.118   2.159  47.714  1.00  0.00     0.033 C 
HETATM   17  C17 UNL     1      22.369   2.120  48.059  1.00  0.00    -0.023 C 
HETATM   18  C18 UNL     1      22.905   3.056  49.080  1.00  0.00     0.037 C 
HETATM   19  C19 UNL     1      23.416   2.301  50.280  1.00  0.00     0.036 C 
HETATM   20  H11 UNL     1      19.621   0.214  53.023  1.00  0.00     0.058 HD
ENDROOT
BRANCH   1  21
HETATM   21  S1  UNL     1      24.725   4.703  50.033  1.00  0.00    -0.133 SA
BRANCH  21  22
HETATM   22  C2  UNL     1      26.345   4.866  49.320  1.00  0.00     0.035 C 
HETATM   23  C1  UNL     1      26.774   3.612  49.337  1.00  0.00     0.018 C 
ENDBRANCH  21  22
ENDBRANCH   1  21
TORSDOF 2
ENDMDL
MODEL 4
REMARK VINA RESULT:      -6.3      3.203      6.571
REMARK  2 active torsions:
REMARK  status: ('A' for Active; 'I' for Inactive)
REMARK    1  A    between atoms: C2_2  and  S1_3 
REMARK    2  A    between atoms: S1_3  and  C3_4 
ROOT
HETATM    1  C3  UNL     1      20.809   4.223  47.584  1.00  0.00     0.082 C 
HETATM    2  C4  UNL     1      20.250   2.980  48.177  1.00  0.00    -0.014 C 
HETATM    3  C5  UNL     1      20.891   1.904  48.621  1.00  0.00    -0.025 C 
HETATM    4  C6  UNL     1      22.355   1.900  48.999  1.00  0.00     0.062 C 
HETATM    5  C7  UNL     1      22.572   3.046  49.966  1.00  0.00    -0.065 C 
HETATM    6  C8  UNL     1      21.980   4.233  49.801  1.00  0.00    -0.067 C 
HETATM    7  C9  UNL     1      21.575   4.819  51.137  1.00  0.00     0.067 C 
HETATM    8  P1  UNL     1      23.077   4.323  52.158  1.00  0.00    -0.116 P 
HETATM    9  C10 UNL     1      23.452   2.831  51.107  1.00  0.00     0.047 C 
HETATM   10  C11 UNL     1      24.904   2.669  50.873  1.00  0.00     0.078 C 
HETATM   11  C12 UNL     1      25.535   3.707  50.067  1.00  0.00     0.054 A 
HETATM   12  C13 UNL     1      26.796   3.821  49.530  1.00  0.00     0.035 A 
HETATM   13  C14 UNL     1      26.787   5.025  48.872  1.00  0.00     0.039 A 
HETATM   14  C15 UNL     1      25.551   5.589  49.028  1.00  0.00     0.075 A 
HETATM   15  O1  UNL     1      24.825   4.763  49.754  1.00  0.00    -0.315 OA
HETATM   16  C16 UNL     1      24.672   6.710  48.742  1.00  0.00     0.033 C 
HETATM   17  C17 UNL     1      23.507   6.609  48.178  1.00  0.00    -0.023 C 
HETATM   18  C18 UNL     1      22.974   5.284  47.769  1.00  0.00     0.037 C 
HETATM   19  C19 UNL     1      21.709   4.962  48.521  1.00  0.00     0.036 C 
HETATM   20  H11 UNL     1      22.592   3.972  53.474  1.00  0.00     0.058 HD
ENDROOT
BRANCH   1  21
HETATM   21  S1  UNL     1      21.741   3.661  46.104  1.00  0.00    -0.133 SA
BRANCH  21  22
HETATM   22  C2  UNL     1      20.808   4.148  44.671  1.00  0.00     0.035 C 
HETATM   23  C1  UNL     1      21.347   5.324  44.385  1.00  0.00     0.018 C 
ENDBRANCH  21  22
ENDBRANCH   1  21
TORSDOF 2
ENDMDL
MODEL 5
REMARK VINA RESULT:      -6.2      8.159      9.725
REMARK  2 active torsions:
REMARK  status: ('A' for Active; 'I' for Inactive)
REMARK    1  A    between atoms: C2_2  and  S1_3 
REMARK    2  A    between atoms: S1_3  and  C3_4 
ROOT
HETATM    1  C3  UNL     1      32.767   5.210  48.198  1.00  0.00     0.082 C 
HETATM    2  C4  UNL     1      34.022   6.002  48.126  1.00  0.00    -0.014 C 
HETATM    3  C5  UNL     1      34.317   7.032  47.340  1.00  0.00    -0.025 C 
HETATM    4  C6  UNL     1      33.275   7.877  46.643  1.00  0.00     0.062 C 
HETATM    5  C7  UNL     1      32.279   8.320  47.696  1.00  0.00    -0.065 C 
HETATM    6  C8  UNL     1      31.862   7.500  48.666  1.00  0.00    -0.067 C 
HETATM    7  C9  UNL     1      31.691   8.256  49.967  1.00  0.00     0.067 C 
HETATM    8  P1  UNL     1      30.950   9.853  49.300  1.00  0.00    -0.116 P 
HETATM    9  C10 UNL     1      31.774   9.686  47.638  1.00  0.00     0.047 C 
HETATM   10  C11 UNL     1      30.871  10.071  46.531  1.00  0.00     0.078 C 
HETATM   11  C12 UNL     1      29.718   9.204  46.325  1.00  0.00     0.054 A 
HETATM   12  C13 UNL     1      28.763   9.156  45.335  1.00  0.00     0.035 A 
HETATM   13  C14 UNL     1      27.939   8.120  45.697  1.00  0.00     0.039 A 
HETATM   14  C15 UNL     1      28.407   7.588  46.866  1.00  0.00     0.075 A 
HETATM   15  O1  UNL     1      29.481   8.269  47.212  1.00  0.00    -0.315 OA
HETATM   16  C16 UNL     1      28.243   6.590  47.909  1.00  0.00     0.033 C 
HETATM   17  C17 UNL     1      29.155   5.735  48.262  1.00  0.00    -0.023 C 
HETATM   18  C18 UNL     1      30.482   5.721  47.594  1.00  0.00     0.037 C 
HETATM   19  C19 UNL     1      31.579   6.033  48.579  1.00  0.00     0.036 C 
HETATM   20  H11 UNL     1      31.498  10.931  50.091  1.00  0.00     0.058 HD
ENDROOT
BRANCH   1  21
HETATM   21  S1  UNL     1      32.555   4.511  46.512  1.00  0.00    -0.133 SA
BRANCH  21  22
HETATM   22  C2  UNL     1      32.398   2.749  46.682  1.00  0.00     0.035 C 
HETATM   23  C1  UNL     1      33.173   2.509  47.730  1.00  0.00     0.018 C 
ENDBRANCH  21  22
ENDBRANCH   1  21
TORSDOF 2
ENDMDL
MODEL 6
REMARK VINA RESULT:      -6.2      2.996      5.706
REMARK  2 active torsions:
REMARK  status: ('A' for Active; 'I' for Inactive)
REMARK    1  A    between atoms: C2_2  and  S1_3 
REMARK    2  A    between atoms: S1_3  and  C3_4 
ROOT
HETATM    1  C3  UNL     1      23.354   6.204  48.775  1.00  0.00     0.082 C 
HETATM    2  C4  UNL     1      24.026   6.908  49.898  1.00  0.00    -0.014 C 
HETATM    3  C5  UNL     1      23.897   6.710  51.205  1.00  0.00    -0.025 C 
HETATM    4  C6  UNL     1      23.349   5.435  51.807  1.00  0.00     0.062 C 
HETATM    5  C7  UNL     1      24.124   4.283  51.200  1.00  0.00    -0.065 C 
HETATM    6  C8  UNL     1      24.461   4.260  49.907  1.00  0.00    -0.067 C 
HETATM    7  C9  UNL     1      25.836   3.653  49.723  1.00  0.00     0.067 C 
HETATM    8  P1  UNL     1      25.733   2.268  50.994  1.00  0.00    -0.116 P 
HETATM    9  C10 UNL     1      24.509   3.176  52.066  1.00  0.00     0.047 C 
HETATM   10  C11 UNL     1      23.458   2.277  52.592  1.00  0.00     0.078 C 
HETATM   11  C12 UNL     1      22.551   1.716  51.599  1.00  0.00     0.054 A 
HETATM   12  C13 UNL     1      21.396   0.978  51.715  1.00  0.00     0.035 A 
HETATM   13  C14 UNL     1      20.998   0.747  50.421  1.00  0.00     0.039 A 
HETATM   14  C15 UNL     1      21.903   1.339  49.584  1.00  0.00     0.075 A 
HETATM   15  O1  UNL     1      22.824   1.912  50.331  1.00  0.00    -0.315 OA
HETATM   16  C16 UNL     1      22.303   1.618  48.215  1.00  0.00     0.033 C 
HETATM   17  C17 UNL     1      22.515   2.806  47.737  1.00  0.00    -0.023 C 
HETATM   18  C18 UNL     1      22.356   4.009  48.593  1.00  0.00     0.037 C 
HETATM   19  C19 UNL     1      23.664   4.742  48.734  1.00  0.00     0.036 C 
HETATM   20  H11 UNL     1      27.039   2.161  51.604  1.00  0.00     0.058 HD
ENDROOT
BRANCH   1  21
HETATM   21  S1  UNL     1      21.559   6.476  49.055  1.00  0.00    -0.133 SA
BRANCH  21  22
HETATM   22  C2  UNL     1      21.266   8.227  48.970  1.00  0.00     0.035 C 
HETATM   23  C1  UNL     1      20.517   8.427  50.046  1.00  0.00     0.018 C 
ENDBRANCH  21  22
ENDBRANCH   1  21
TORSDOF 2
ENDMDL
MODEL 7
REMARK VINA RESULT:      -6.1      8.973     11.010
REMARK  2 active torsions:
REMARK  status: ('A' for Active; 'I' for Inactive)
REMARK    1  A    between atoms: C2_2  and  S1_3 
REMARK    2  A    between atoms: S1_3  and  C3_4 
ROOT
HETATM    1  C3  UNL     1      32.068   5.528  47.202  1.00  0.00     0.082 C 
HETATM    2  C4  UNL     1      31.735   5.185  48.609  1.00  0.00    -0.014 C 
HETATM    3  C5  UNL     1      31.803   5.948  49.694  1.00  0.00    -0.025 C 
HETATM    4  C6  UNL     1      31.838   7.459  49.652  1.00  0.00     0.062 C 
HETATM    5  C7  UNL     1      30.673   7.911  48.795  1.00  0.00    -0.065 C 
HETATM    6  C8  UNL     1      30.328   7.270  47.674  1.00  0.00    -0.067 C 
HETATM    7  C9  UNL     1      28.822   7.240  47.517  1.00  0.00     0.067 C 
HETATM    8  P1  UNL     1      28.416   8.977  48.117  1.00  0.00    -0.116 P 
HETATM    9  C10 UNL     1      29.913   9.079  49.221  1.00  0.00     0.047 C 
HETATM   10  C11 UNL     1      30.553  10.411  49.166  1.00  0.00     0.078 C 
HETATM   11  C12 UNL     1      31.161  10.769  47.890  1.00  0.00     0.054 A 
HETATM   12  C13 UNL     1      31.951  11.828  47.508  1.00  0.00     0.035 A 
HETATM   13  C14 UNL     1      32.207  11.608  46.177  1.00  0.00     0.039 A 
HETATM   14  C15 UNL     1      31.579  10.452  45.805  1.00  0.00     0.075 A 
HETATM   15  O1  UNL     1      30.959   9.976  46.866  1.00  0.00    -0.315 OA
HETATM   16  C16 UNL     1      31.289   9.503  44.744  1.00  0.00     0.033 C 
HETATM   17  C17 UNL     1      31.535   8.229  44.805  1.00  0.00    -0.023 C 
HETATM   18  C18 UNL     1      32.155   7.634  46.016  1.00  0.00     0.037 C 
HETATM   19  C19 UNL     1      31.225   6.636  46.657  1.00  0.00     0.036 C 
HETATM   20  H11 UNL     1      27.178   8.886  48.858  1.00  0.00     0.058 HD
ENDROOT
BRANCH   1  21
HETATM   21  S1  UNL     1      33.837   6.023  47.244  1.00  0.00    -0.133 SA
BRANCH  21  22
HETATM   22  C2  UNL     1      34.721   4.763  48.134  1.00  0.00     0.035 C 
HETATM   23  C1  UNL     1      35.389   5.482  49.025  1.00  0.00     0.018 C 
ENDBRANCH  21  22
ENDBRANCH   1  21
TORSDOF 2
ENDMDL
MODEL 8
REMARK VINA RESULT:      -6.0      2.756      4.370
REMARK  2 active torsions:
REMARK  status: ('A' for Active; 'I' for Inactive)
REMARK    1  A    between atoms: C2_2  and  S1_3 
REMARK    2  A    between atoms: S1_3  and  C3_4 
ROOT
HETATM    1  C3  UNL     1      20.752   1.567  52.931  1.00  0.00     0.082 C 
HETATM    2  C4  UNL     1      22.099   1.062  53.305  1.00  0.00    -0.014 C 
HETATM    3  C5  UNL     1      23.148   0.823  52.526  1.00  0.00    -0.025 C 
HETATM    4  C6  UNL     1      23.317   1.416  51.146  1.00  0.00     0.062 C 
HETATM    5  C7  UNL     1      23.120   2.914  51.274  1.00  0.00    -0.065 C 
HETATM    6  C8  UNL     1      22.176   3.438  52.061  1.00  0.00    -0.067 C 
HETATM    7  C9  UNL     1      22.678   4.700  52.730  1.00  0.00     0.067 C 
HETATM    8  P1  UNL     1      23.642   5.447  51.295  1.00  0.00    -0.116 P 
HETATM    9  C10 UNL     1      23.997   3.794  50.513  1.00  0.00     0.047 C 
HETATM   10  C11 UNL     1      23.868   3.838  49.040  1.00  0.00     0.078 C 
HETATM   11  C12 UNL     1      22.522   4.070  48.530  1.00  0.00     0.054 A 
HETATM   12  C13 UNL     1      21.996   4.034  47.260  1.00  0.00     0.035 A 
HETATM   13  C14 UNL     1      20.668   4.342  47.423  1.00  0.00     0.039 A 
HETATM   14  C15 UNL     1      20.438   4.550  48.755  1.00  0.00     0.075 A 
HETATM   15  O1  UNL     1      21.580   4.377  49.389  1.00  0.00    -0.315 OA
HETATM   16  C16 UNL     1      19.478   4.882  49.793  1.00  0.00     0.033 C 
HETATM   17  C17 UNL     1      19.241   4.150  50.840  1.00  0.00    -0.023 C 
HETATM   18  C18 UNL     1      19.966   2.871  51.052  1.00  0.00     0.037 C 
HETATM   19  C19 UNL     1      20.791   2.928  52.312  1.00  0.00     0.036 C 
HETATM   20  H11 UNL     1      24.821   6.065  51.859  1.00  0.00     0.058 HD
ENDROOT
BRANCH   1  21
HETATM   21  S1  UNL     1      20.101   0.333  51.736  1.00  0.00    -0.133 SA
BRANCH  21  22
HETATM   22  C2  UNL     1      18.653  -0.398  52.461  1.00  0.00     0.035 C 
HETATM   23  C1  UNL     1      17.748  -0.201  51.513  1.00  0.00     0.018 C 
ENDBRANCH  21  22
ENDBRANCH   1  21
TORSDOF 2
ENDMDL
MODEL 9
REMARK VINA RESULT:      -5.8      9.198     11.585
REMARK  2 active torsions:
REMARK  status: ('A' for Active; 'I' for Inactive)
REMARK    1  A    between atoms: C2_2  and  S1_3 
REMARK    2  A    between atoms: S1_3  and  C3_4 
ROOT
HETATM    1  C3  UNL     1      29.979   9.399  46.666  1.00  0.00     0.082 C 
HETATM    2  C4  UNL     1      30.010   9.760  48.108  1.00  0.00    -0.014 C 
HETATM    3  C5  UNL     1      30.310   8.997  49.154  1.00  0.00    -0.025 C 
HETATM    4  C6  UNL     1      31.091   7.706  49.050  1.00  0.00     0.062 C 
HETATM    5  C7  UNL     1      32.356   8.009  48.273  1.00  0.00    -0.065 C 
HETATM    6  C8  UNL     1      32.356   8.818  47.209  1.00  0.00    -0.067 C 
HETATM    7  C9  UNL     1      33.618   9.655  47.174  1.00  0.00     0.067 C 
HETATM    8  P1  UNL     1      34.862   8.359  47.736  1.00  0.00    -0.116 P 
HETATM    9  C10 UNL     1      33.602   7.394  48.713  1.00  0.00     0.047 C 
HETATM   10  C11 UNL     1      33.777   5.934  48.554  1.00  0.00     0.078 C 
HETATM   11  C12 UNL     1      33.516   5.407  47.221  1.00  0.00     0.054 A 
HETATM   12  C13 UNL     1      33.434   4.122  46.735  1.00  0.00     0.035 A 
HETATM   13  C14 UNL     1      33.163   4.273  45.398  1.00  0.00     0.039 A 
HETATM   14  C15 UNL     1      33.092   5.610  45.123  1.00  0.00     0.075 A 
HETATM   15  O1  UNL     1      33.310   6.261  46.248  1.00  0.00    -0.315 OA
HETATM   16  C16 UNL     1      32.878   6.645  44.126  1.00  0.00     0.033 C 
HETATM   17  C17 UNL     1      31.987   7.585  44.217  1.00  0.00    -0.023 C 
HETATM   18  C18 UNL     1      31.088   7.666  45.397  1.00  0.00     0.037 C 
HETATM   19  C19 UNL     1      31.308   8.953  46.148  1.00  0.00     0.036 C 
HETATM   20  H11 UNL     1      35.822   9.037  48.578  1.00  0.00     0.058 HD
ENDROOT
BRANCH   1  21
HETATM   21  S1  UNL     1      28.750   8.040  46.547  1.00  0.00    -0.133 SA
BRANCH  21  22
HETATM   22  C2  UNL     1      27.202   8.666  47.158  1.00  0.00     0.035 C 
HETATM   23  C1  UNL     1      26.732   7.620  47.823  1.00  0.00     0.018 C 
ENDBRANCH  21  22
ENDBRANCH   1  21
TORSDOF 2
ENDMDL
