MODEL 1
REMARK VINA RESULT:      -8.4      0.000      0.000
REMARK  6 active torsions:
REMARK  status: ('A' for Active; 'I' for Inactive)
REMARK    1  A    between atoms: O1_2  and  C2_3 
REMARK    2  A    between atoms: C2_3  and  C3_4 
REMARK    3  A    between atoms: C4_5  and  C5_6 
REMARK       I    between atoms: C5_6  and  N1_8 
REMARK    4  A    between atoms: N1_8  and  C6_9 
REMARK    5  A    between atoms: C9_12  and  N2_13 
REMARK    6  A    between atoms: C20_27  and  O3_28 
ROOT
HETATM    1  C6  UNL     1      25.739   2.042  51.590  1.00  0.00     0.070 A 
HETATM    2  C7  UNL     1      24.379   1.821  51.540  1.00  0.00     0.048 A 
HETATM    3  C8  UNL     1      23.891   0.920  52.466  1.00  0.00     0.024 A 
HETATM    4  C9  UNL     1      22.528   0.693  52.428  1.00  0.00     0.073 A 
HETATM    5  C15 UNL     1      21.984  -0.212  53.353  1.00  0.00     0.090 A 
HETATM    6  C16 UNL     1      20.554  -0.495  53.363  1.00  0.00     0.103 C 
HETATM    7  N3  UNL     1      19.413  -0.732  53.382  1.00  0.00    -0.191 NA
HETATM    8  C17 UNL     1      22.817  -0.855  54.277  1.00  0.00     0.142 A 
HETATM    9  N4  UNL     1      24.145  -0.609  54.284  1.00  0.00    -0.259 NA
HETATM   10  C18 UNL     1      24.671   0.261  53.397  1.00  0.00     0.071 A 
HETATM   11  C19 UNL     1      26.025   0.528  53.391  1.00  0.00     0.071 A 
HETATM   12  C20 UNL     1      26.596   1.413  52.502  1.00  0.00     0.097 A 
ENDROOT
BRANCH   4  13
HETATM   13  N2  UNL     1      21.581   1.260  51.547  1.00  0.00    -0.330 N 
HETATM   14  C10 UNL     1      21.648   0.596  50.262  1.00  0.00     0.093 A 
HETATM   15  C11 UNL     1      20.823   0.993  49.285  1.00  0.00    -0.004 A 
HETATM   16  C12 UNL     1      19.821   2.083  49.415  1.00  0.00     0.076 A 
HETATM   17  C13 UNL     1      19.838   2.693  50.769  1.00  0.00     0.008 A 
HETATM   18 BR1  UNL     1      18.623   4.114  51.141  1.00  0.00    -0.054 Br
HETATM   19  C14 UNL     1      20.645   2.314  51.745  1.00  0.00     0.111 A 
ENDBRANCH   4  13
BRANCH   1  20
HETATM   20  N1  UNL     1      26.356   2.952  50.685  1.00  0.00    -0.314 N 
HETATM   21  C5  UNL     1      26.046   3.807  49.625  1.00  0.00     0.301 C 
HETATM   22  O2  UNL     1      24.887   3.983  49.153  1.00  0.00    -0.258 OA
HETATM   23  H6  UNL     1      27.362   2.866  51.020  1.00  0.00     0.170 HD
BRANCH  21  24
HETATM   24  C4  UNL     1      27.138   4.548  49.027  1.00  0.00    -0.003 C 
HETATM   25  C3  UNL     1      28.063   5.149  48.531  1.00  0.00    -0.070 C 
BRANCH  25  26
HETATM   26  C2  UNL     1      29.200   5.872  47.947  1.00  0.00     0.261 C 
BRANCH  26  27
HETATM   27  O1  UNL     1      30.405   5.236  48.140  1.00  0.00    -0.384 OA
HETATM   28  C1  UNL     1      31.333   6.043  48.805  1.00  0.00     0.202 C 
ENDBRANCH  26  27
ENDBRANCH  25  26
ENDBRANCH  21  24
ENDBRANCH   1  20
BRANCH  12  29
HETATM   29  O3  UNL     1      27.958   1.686  52.492  1.00  0.00    -0.354 OA
HETATM   30  C21 UNL     1      28.528   2.176  53.694  1.00  0.00     0.210 C 
ENDBRANCH  12  29
TORSDOF 6
ENDMDL
MODEL 2
REMARK VINA RESULT:      -7.8      3.374      5.624
REMARK  6 active torsions:
REMARK  status: ('A' for Active; 'I' for Inactive)
REMARK    1  A    between atoms: O1_2  and  C2_3 
REMARK    2  A    between atoms: C2_3  and  C3_4 
REMARK    3  A    between atoms: C4_5  and  C5_6 
REMARK       I    between atoms: C5_6  and  N1_8 
REMARK    4  A    between atoms: N1_8  and  C6_9 
REMARK    5  A    between atoms: C9_12  and  N2_13 
REMARK    6  A    between atoms: C20_27  and  O3_28 
ROOT
HETATM    1  C6  UNL     1      23.791   0.967  53.015  1.00  0.00     0.070 A 
HETATM    2  C7  UNL     1      23.395   2.025  52.226  1.00  0.00     0.048 A 
HETATM    3  C8  UNL     1      22.030   2.200  52.109  1.00  0.00     0.024 A 
HETATM    4  C9  UNL     1      21.621   3.260  51.322  1.00  0.00     0.073 A 
HETATM    5  C15 UNL     1      20.242   3.480  51.176  1.00  0.00     0.090 A 
HETATM    6  C16 UNL     1      19.748   4.582  50.359  1.00  0.00     0.103 C 
HETATM    7  N3  UNL     1      19.339   5.457  49.707  1.00  0.00    -0.191 NA
HETATM    8  C17 UNL     1      19.327   2.637  51.817  1.00  0.00     0.142 A 
HETATM    9  N4  UNL     1      19.763   1.610  52.577  1.00  0.00    -0.259 NA
HETATM   10  C18 UNL     1      21.087   1.396  52.721  1.00  0.00     0.071 A 
HETATM   11  C19 UNL     1      21.552   0.353  53.496  1.00  0.00     0.071 A 
HETATM   12  C20 UNL     1      22.897   0.107  53.668  1.00  0.00     0.097 A 
ENDROOT
BRANCH   4  13
HETATM   13  N2  UNL     1      22.432   4.175  50.613  1.00  0.00    -0.330 N 
HETATM   14  C10 UNL     1      22.780   3.621  49.321  1.00  0.00     0.093 A 
HETATM   15  C11 UNL     1      23.549   4.342  48.495  1.00  0.00    -0.004 A 
HETATM   16  C12 UNL     1      24.086   5.693  48.802  1.00  0.00     0.076 A 
HETATM   17  C13 UNL     1      23.670   6.162  50.150  1.00  0.00     0.008 A 
HETATM   18 BR1  UNL     1      24.257   7.877  50.736  1.00  0.00    -0.054 Br
HETATM   19  C14 UNL     1      22.911   5.464  50.977  1.00  0.00     0.111 A 
ENDBRANCH   4  13
BRANCH   1  20
HETATM   20  N1  UNL     1      25.174   0.689  53.211  1.00  0.00    -0.314 N 
HETATM   21  C5  UNL     1      26.335   1.270  53.727  1.00  0.00     0.301 C 
HETATM   22  O2  UNL     1      26.400   2.423  54.242  1.00  0.00    -0.258 OA
HETATM   23  H6  UNL     1      25.209  -0.289  52.797  1.00  0.00     0.170 HD
BRANCH  21  24
HETATM   24  C4  UNL     1      27.552   0.487  53.666  1.00  0.00    -0.003 C 
HETATM   25  C3  UNL     1      28.562  -0.175  53.597  1.00  0.00    -0.070 C 
BRANCH  25  26
HETATM   26  C2  UNL     1      29.774  -1.000  53.510  1.00  0.00     0.261 C 
BRANCH  26  27
HETATM   27  O1  UNL     1      29.535  -2.340  53.712  1.00  0.00    -0.384 OA
HETATM   28  C1  UNL     1      28.504  -2.825  52.900  1.00  0.00     0.202 C 
ENDBRANCH  26  27
ENDBRANCH  25  26
ENDBRANCH  21  24
ENDBRANCH   1  20
BRANCH  12  29
HETATM   29  O3  UNL     1      23.371  -0.940  54.448  1.00  0.00    -0.354 OA
HETATM   30  C21 UNL     1      22.431  -1.609  55.271  1.00  0.00     0.210 C 
ENDBRANCH  12  29
TORSDOF 6
ENDMDL
MODEL 3
REMARK VINA RESULT:      -7.6      1.570      1.968
REMARK  6 active torsions:
REMARK  status: ('A' for Active; 'I' for Inactive)
REMARK    1  A    between atoms: O1_2  and  C2_3 
REMARK    2  A    between atoms: C2_3  and  C3_4 
REMARK    3  A    between atoms: C4_5  and  C5_6 
REMARK       I    between atoms: C5_6  and  N1_8 
REMARK    4  A    between atoms: N1_8  and  C6_9 
REMARK    5  A    between atoms: C9_12  and  N2_13 
REMARK    6  A    between atoms: C20_27  and  O3_28 
ROOT
HETATM    1  C6  UNL     1      23.917   1.675  51.951  1.00  0.00     0.070 A 
HETATM    2  C7  UNL     1      22.551   1.514  51.870  1.00  0.00     0.048 A 
HETATM    3  C8  UNL     1      22.022   0.519  52.669  1.00  0.00     0.024 A 
HETATM    4  C9  UNL     1      20.652   0.350  52.598  1.00  0.00     0.073 A 
HETATM    5  C15 UNL     1      20.068  -0.646  53.395  1.00  0.00     0.090 A 
HETATM    6  C16 UNL     1      18.629  -0.874  53.365  1.00  0.00     0.103 C 
HETATM    7  N3  UNL     1      17.479  -1.068  53.349  1.00  0.00    -0.191 NA
HETATM    8  C17 UNL     1      20.870  -1.436  54.229  1.00  0.00     0.142 A 
HETATM    9  N4  UNL     1      22.205  -1.243  54.271  1.00  0.00    -0.259 NA
HETATM   10  C18 UNL     1      22.770  -0.285  53.507  1.00  0.00     0.071 A 
HETATM   11  C19 UNL     1      24.133  -0.071  53.539  1.00  0.00     0.071 A 
HETATM   12  C20 UNL     1      24.743   0.900  52.775  1.00  0.00     0.097 A 
ENDROOT
BRANCH   4  13
HETATM   13  N2  UNL     1      19.733   1.064  51.796  1.00  0.00    -0.330 N 
HETATM   14  C10 UNL     1      19.785   0.571  50.436  1.00  0.00     0.093 A 
HETATM   15  C11 UNL     1      18.982   1.124  49.517  1.00  0.00    -0.004 A 
HETATM   16  C12 UNL     1      18.021   2.224  49.786  1.00  0.00     0.076 A 
HETATM   17  C13 UNL     1      18.050   2.651  51.208  1.00  0.00     0.008 A 
HETATM   18 BR1  UNL     1      16.887   4.056  51.760  1.00  0.00    -0.054 Br
HETATM   19  C14 UNL     1      18.836   2.117  52.128  1.00  0.00     0.111 A 
ENDBRANCH   4  13
BRANCH   1  20
HETATM   20  N1  UNL     1      24.575   2.672  51.174  1.00  0.00    -0.314 N 
HETATM   21  C5  UNL     1      24.327   3.889  50.536  1.00  0.00     0.301 C 
HETATM   22  O2  UNL     1      23.211   4.483  50.519  1.00  0.00    -0.258 OA
HETATM   23  H6  UNL     1      25.547   2.242  51.139  1.00  0.00     0.170 HD
BRANCH  21  24
HETATM   24  C4  UNL     1      25.435   4.514  49.843  1.00  0.00    -0.003 C 
HETATM   25  C3  UNL     1      26.351   5.029  49.245  1.00  0.00    -0.070 C 
BRANCH  25  26
HETATM   26  C2  UNL     1      27.467   5.634  48.506  1.00  0.00     0.261 C 
BRANCH  26  27
HETATM   27  O1  UNL     1      28.611   4.870  48.531  1.00  0.00    -0.384 OA
HETATM   28  C1  UNL     1      29.725   5.563  48.046  1.00  0.00     0.202 C 
ENDBRANCH  26  27
ENDBRANCH  25  26
ENDBRANCH  21  24
ENDBRANCH   1  20
BRANCH  12  29
HETATM   29  O3  UNL     1      26.115   1.120  52.804  1.00  0.00    -0.354 OA
HETATM   30  C21 UNL     1      26.941   0.130  52.217  1.00  0.00     0.210 C 
ENDBRANCH  12  29
TORSDOF 6
ENDMDL
MODEL 4
REMARK VINA RESULT:      -7.4      3.594      7.696
REMARK  6 active torsions:
REMARK  status: ('A' for Active; 'I' for Inactive)
REMARK    1  A    between atoms: O1_2  and  C2_3 
REMARK    2  A    between atoms: C2_3  and  C3_4 
REMARK    3  A    between atoms: C4_5  and  C5_6 
REMARK       I    between atoms: C5_6  and  N1_8 
REMARK    4  A    between atoms: N1_8  and  C6_9 
REMARK    5  A    between atoms: C9_12  and  N2_13 
REMARK    6  A    between atoms: C20_27  and  O3_28 
ROOT
HETATM    1  C6  UNL     1      22.628   0.375  52.551  1.00  0.00     0.070 A 
HETATM    2  C7  UNL     1      22.863   1.437  51.703  1.00  0.00     0.048 A 
HETATM    3  C8  UNL     1      24.187   1.804  51.566  1.00  0.00     0.024 A 
HETATM    4  C9  UNL     1      24.435   2.866  50.716  1.00  0.00     0.073 A 
HETATM    5  C15 UNL     1      25.767   3.274  50.541  1.00  0.00     0.090 A 
HETATM    6  C16 UNL     1      26.094   4.386  49.659  1.00  0.00     0.103 C 
HETATM    7  N3  UNL     1      26.370   5.276  48.958  1.00  0.00    -0.191 NA
HETATM    8  C17 UNL     1      26.797   2.611  51.220  1.00  0.00     0.142 A 
HETATM    9  N4  UNL     1      26.517   1.578  52.043  1.00  0.00    -0.259 NA
HETATM   10  C18 UNL     1      25.238   1.183  52.213  1.00  0.00     0.071 A 
HETATM   11  C19 UNL     1      24.932   0.127  53.048  1.00  0.00     0.071 A 
HETATM   12  C20 UNL     1      23.638  -0.305  53.242  1.00  0.00     0.097 A 
ENDROOT
BRANCH   4  13
HETATM   13  N2  UNL     1      23.496   3.626  49.984  1.00  0.00    -0.330 N 
HETATM   14  C10 UNL     1      23.228   2.983  48.715  1.00  0.00     0.093 A 
HETATM   15  C11 UNL     1      22.357   3.553  47.872  1.00  0.00    -0.004 A 
HETATM   16  C12 UNL     1      21.627   4.820  48.139  1.00  0.00     0.076 A 
HETATM   17  C13 UNL     1      21.978   5.393  49.465  1.00  0.00     0.008 A 
HETATM   18 BR1  UNL     1      21.147   7.023  49.998  1.00  0.00    -0.054 Br
HETATM   19  C14 UNL     1      22.834   4.843  50.308  1.00  0.00     0.111 A 
ENDBRANCH   4  13
BRANCH   1  20
HETATM   20  N1  UNL     1      21.301  -0.094  52.769  1.00  0.00    -0.314 N 
HETATM   21  C5  UNL     1      20.331  -0.178  53.770  1.00  0.00     0.301 C 
HETATM   22  O2  UNL     1      20.472   0.246  54.952  1.00  0.00    -0.258 OA
HETATM   23  H6  UNL     1      21.097  -0.477  51.798  1.00  0.00     0.170 HD
BRANCH  21  24
HETATM   24  C4  UNL     1      19.068  -0.798  53.421  1.00  0.00    -0.003 C 
HETATM   25  C3  UNL     1      18.017  -1.309  53.108  1.00  0.00    -0.070 C 
BRANCH  25  26
HETATM   26  C2  UNL     1      16.735  -1.909  52.717  1.00  0.00     0.261 C 
BRANCH  26  27
HETATM   27  O1  UNL     1      15.948  -1.066  51.967  1.00  0.00    -0.384 OA
HETATM   28  C1  UNL     1      15.479   0.024  52.707  1.00  0.00     0.202 C 
ENDBRANCH  26  27
ENDBRANCH  25  26
ENDBRANCH  21  24
ENDBRANCH   1  20
BRANCH  12  29
HETATM   29  O3  UNL     1      23.325  -1.368  54.081  1.00  0.00    -0.354 OA
HETATM   30  C21 UNL     1      23.723  -1.260  55.437  1.00  0.00     0.210 C 
ENDBRANCH  12  29
TORSDOF 6
ENDMDL
MODEL 5
REMARK VINA RESULT:      -7.3      2.253      2.920
REMARK  6 active torsions:
REMARK  status: ('A' for Active; 'I' for Inactive)
REMARK    1  A    between atoms: O1_2  and  C2_3 
REMARK    2  A    between atoms: C2_3  and  C3_4 
REMARK    3  A    between atoms: C4_5  and  C5_6 
REMARK       I    between atoms: C5_6  and  N1_8 
REMARK    4  A    between atoms: N1_8  and  C6_9 
REMARK    5  A    between atoms: C9_12  and  N2_13 
REMARK    6  A    between atoms: C20_27  and  O3_28 
ROOT
HETATM    1  C6  UNL     1      25.637   3.305  50.795  1.00  0.00     0.070 A 
HETATM    2  C7  UNL     1      24.315   3.655  50.623  1.00  0.00     0.048 A 
HETATM    3  C8  UNL     1      23.414   2.975  51.419  1.00  0.00     0.024 A 
HETATM    4  C9  UNL     1      22.085   3.319  51.258  1.00  0.00     0.073 A 
HETATM    5  C15 UNL     1      21.131   2.658  52.049  1.00  0.00     0.090 A 
HETATM    6  C16 UNL     1      19.714   2.976  51.925  1.00  0.00     0.103 C 
HETATM    7  N3  UNL     1      18.578   3.219  51.836  1.00  0.00    -0.191 NA
HETATM    8  C17 UNL     1      21.538   1.680  52.965  1.00  0.00     0.142 A 
HETATM    9  N4  UNL     1      22.845   1.370  53.095  1.00  0.00    -0.259 NA
HETATM   10  C18 UNL     1      23.765   2.003  52.337  1.00  0.00     0.071 A 
HETATM   11  C19 UNL     1      25.106   1.702  52.458  1.00  0.00     0.071 A 
HETATM   12  C20 UNL     1      26.072   2.332  51.703  1.00  0.00     0.097 A 
ENDROOT
BRANCH   4  13
HETATM   13  N2  UNL     1      21.539   4.271  50.368  1.00  0.00    -0.330 N 
HETATM   14  C10 UNL     1      21.515   5.574  51.000  1.00  0.00     0.093 A 
HETATM   15  C11 UNL     1      21.030   6.617  50.312  1.00  0.00    -0.004 A 
HETATM   16  C12 UNL     1      20.505   6.544  48.925  1.00  0.00     0.076 A 
HETATM   17  C13 UNL     1      20.576   5.165  48.376  1.00  0.00     0.008 A 
HETATM   18 BR1  UNL     1      19.948   4.859  46.602  1.00  0.00    -0.054 Br
HETATM   19  C14 UNL     1      21.051   4.125  49.039  1.00  0.00     0.111 A 
ENDBRANCH   4  13
BRANCH   1  20
HETATM   20  N1  UNL     1      26.657   3.940  50.030  1.00  0.00    -0.314 N 
HETATM   21  C5  UNL     1      26.827   4.920  49.050  1.00  0.00     0.301 C 
HETATM   22  O2  UNL     1      25.892   5.592  48.528  1.00  0.00    -0.258 OA
HETATM   23  H6  UNL     1      27.503   3.423  50.416  1.00  0.00     0.170 HD
BRANCH  21  24
HETATM   24  C4  UNL     1      28.179   5.183  48.600  1.00  0.00    -0.003 C 
HETATM   25  C3  UNL     1      29.301   5.404  48.204  1.00  0.00    -0.070 C 
BRANCH  25  26
HETATM   26  C2  UNL     1      30.660   5.655  47.707  1.00  0.00     0.261 C 
BRANCH  26  27
HETATM   27  O1  UNL     1      31.602   4.819  48.259  1.00  0.00    -0.384 OA
HETATM   28  C1  UNL     1      32.881   5.385  48.260  1.00  0.00     0.202 C 
ENDBRANCH  26  27
ENDBRANCH  25  26
ENDBRANCH  21  24
ENDBRANCH   1  20
BRANCH  12  29
HETATM   29  O3  UNL     1      27.423   2.032  51.821  1.00  0.00    -0.354 OA
HETATM   30  C21 UNL     1      27.816   1.242  52.930  1.00  0.00     0.210 C 
ENDBRANCH  12  29
TORSDOF 6
ENDMDL
MODEL 6
REMARK VINA RESULT:      -7.2      3.160      4.987
REMARK  6 active torsions:
REMARK  status: ('A' for Active; 'I' for Inactive)
REMARK    1  A    between atoms: O1_2  and  C2_3 
REMARK    2  A    between atoms: C2_3  and  C3_4 
REMARK    3  A    between atoms: C4_5  and  C5_6 
REMARK       I    between atoms: C5_6  and  N1_8 
REMARK    4  A    between atoms: N1_8  and  C6_9 
REMARK    5  A    between atoms: C9_12  and  N2_13 
REMARK    6  A    between atoms: C20_27  and  O3_28 
ROOT
HETATM    1  C6  UNL     1      22.852   0.925  52.415  1.00  0.00     0.070 A 
HETATM    2  C7  UNL     1      22.058   1.572  51.492  1.00  0.00     0.048 A 
HETATM    3  C8  UNL     1      20.760   1.111  51.400  1.00  0.00     0.024 A 
HETATM    4  C9  UNL     1      19.954   1.755  50.480  1.00  0.00     0.073 A 
HETATM    5  C15 UNL     1      18.624   1.325  50.352  1.00  0.00     0.090 A 
HETATM    6  C16 UNL     1      17.724   1.963  49.399  1.00  0.00     0.103 C 
HETATM    7  N3  UNL     1      16.994   2.462  48.640  1.00  0.00    -0.191 NA
HETATM    8  C17 UNL     1      18.150   0.271  51.143  1.00  0.00     0.142 A 
HETATM    9  N4  UNL     1      18.967  -0.335  52.031  1.00  0.00    -0.259 NA
HETATM   10  C18 UNL     1      20.245   0.076  52.157  1.00  0.00     0.071 A 
HETATM   11  C19 UNL     1      21.094  -0.528  53.061  1.00  0.00     0.071 A 
HETATM   12  C20 UNL     1      22.405  -0.132  53.219  1.00  0.00     0.097 A 
ENDROOT
BRANCH   4  13
HETATM   13  N2  UNL     1      20.305   2.816  49.615  1.00  0.00    -0.330 N 
HETATM   14  C10 UNL     1      20.064   4.083  50.273  1.00  0.00     0.093 A 
HETATM   15  C11 UNL     1      20.336   5.217  49.612  1.00  0.00    -0.004 A 
HETATM   16  C12 UNL     1      20.877   5.281  48.230  1.00  0.00     0.076 A 
HETATM   17  C13 UNL     1      21.085   3.928  47.653  1.00  0.00     0.008 A 
HETATM   18 BR1  UNL     1      21.775   3.792  45.881  1.00  0.00    -0.054 Br
HETATM   19  C14 UNL     1      20.822   2.800  48.290  1.00  0.00     0.111 A 
ENDBRANCH   4  13
BRANCH   1  20
HETATM   20  N1  UNL     1      24.209   1.314  52.601  1.00  0.00    -0.314 N 
HETATM   21  C5  UNL     1      25.164   2.196  52.091  1.00  0.00     0.301 C 
HETATM   22  O2  UNL     1      24.965   3.012  51.146  1.00  0.00    -0.258 OA
HETATM   23  H6  UNL     1      24.463   0.661  53.401  1.00  0.00     0.170 HD
BRANCH  21  24
HETATM   24  C4  UNL     1      26.481   2.172  52.695  1.00  0.00    -0.003 C 
HETATM   25  C3  UNL     1      27.581   2.173  53.198  1.00  0.00    -0.070 C 
BRANCH  25  26
HETATM   26  C2  UNL     1      28.925   2.190  53.791  1.00  0.00     0.261 C 
BRANCH  26  27
HETATM   27  O1  UNL     1      29.007   1.482  54.968  1.00  0.00    -0.384 OA
HETATM   28  C1  UNL     1      28.701   0.128  54.797  1.00  0.00     0.202 C 
ENDBRANCH  26  27
ENDBRANCH  25  26
ENDBRANCH  21  24
ENDBRANCH   1  20
BRANCH  12  29
HETATM   29  O3  UNL     1      23.263  -0.737  54.128  1.00  0.00    -0.354 OA
HETATM   30  C21 UNL     1      22.674  -1.381  55.245  1.00  0.00     0.210 C 
ENDBRANCH  12  29
TORSDOF 6
ENDMDL
MODEL 7
REMARK VINA RESULT:      -7.1      4.277      8.426
REMARK  6 active torsions:
REMARK  status: ('A' for Active; 'I' for Inactive)
REMARK    1  A    between atoms: O1_2  and  C2_3 
REMARK    2  A    between atoms: C2_3  and  C3_4 
REMARK    3  A    between atoms: C4_5  and  C5_6 
REMARK       I    between atoms: C5_6  and  N1_8 
REMARK    4  A    between atoms: N1_8  and  C6_9 
REMARK    5  A    between atoms: C9_12  and  N2_13 
REMARK    6  A    between atoms: C20_27  and  O3_28 
ROOT
HETATM    1  C6  UNL     1      24.221   3.812  49.872  1.00  0.00     0.070 A 
HETATM    2  C7  UNL     1      24.797   4.984  49.431  1.00  0.00     0.048 A 
HETATM    3  C8  UNL     1      24.099   5.653  48.445  1.00  0.00     0.024 A 
HETATM    4  C9  UNL     1      24.665   6.831  47.996  1.00  0.00     0.073 A 
HETATM    5  C15 UNL     1      23.991   7.549  46.996  1.00  0.00     0.090 A 
HETATM    6  C16 UNL     1      24.536   8.798  46.481  1.00  0.00     0.103 C 
HETATM    7  N3  UNL     1      24.962   9.798  46.059  1.00  0.00    -0.191 NA
HETATM    8  C17 UNL     1      22.781   7.065  46.482  1.00  0.00     0.142 A 
HETATM    9  N4  UNL     1      22.258   5.909  46.944  1.00  0.00    -0.259 NA
HETATM   10  C18 UNL     1      22.904   5.217  47.906  1.00  0.00     0.071 A 
HETATM   11  C19 UNL     1      22.383   4.036  48.393  1.00  0.00     0.071 A 
HETATM   12  C20 UNL     1      23.013   3.305  49.376  1.00  0.00     0.097 A 
ENDROOT
BRANCH   4  13
HETATM   13  N2  UNL     1      25.878   7.423  48.416  1.00  0.00    -0.330 N 
HETATM   14  C10 UNL     1      25.622   8.342  49.505  1.00  0.00     0.093 A 
HETATM   15  C11 UNL     1      26.652   9.007  50.045  1.00  0.00    -0.004 A 
HETATM   16  C12 UNL     1      28.066   8.875  49.609  1.00  0.00     0.076 A 
HETATM   17  C13 UNL     1      28.213   7.910  48.488  1.00  0.00     0.008 A 
HETATM   18 BR1  UNL     1      29.955   7.599  47.780  1.00  0.00    -0.054 Br
HETATM   19  C14 UNL     1      27.209   7.246  47.944  1.00  0.00     0.111 A 
ENDBRANCH   4  13
BRANCH   1  20
HETATM   20  N1  UNL     1      24.849   3.037  50.889  1.00  0.00    -0.314 N 
HETATM   21  C5  UNL     1      26.116   2.687  51.360  1.00  0.00     0.301 C 
HETATM   22  O2  UNL     1      27.208   3.081  50.860  1.00  0.00    -0.258 OA
HETATM   23  H6  UNL     1      23.980   2.659  51.372  1.00  0.00     0.170 HD
BRANCH  21  24
HETATM   24  C4  UNL     1      26.179   1.805  52.508  1.00  0.00    -0.003 C 
HETATM   25  C3  UNL     1      26.236   1.052  53.453  1.00  0.00    -0.070 C 
BRANCH  25  26
HETATM   26  C2  UNL     1      26.290   0.122  54.589  1.00  0.00     0.261 C 
BRANCH  26  27
HETATM   27  O1  UNL     1      27.436  -0.639  54.612  1.00  0.00    -0.384 OA
HETATM   28  C1  UNL     1      28.583   0.131  54.829  1.00  0.00     0.202 C 
ENDBRANCH  26  27
ENDBRANCH  25  26
ENDBRANCH  21  24
ENDBRANCH   1  20
BRANCH  12  29
HETATM   29  O3  UNL     1      22.493   2.115  49.871  1.00  0.00    -0.354 OA
HETATM   30  C21 UNL     1      21.759   1.306  48.968  1.00  0.00     0.210 C 
ENDBRANCH  12  29
TORSDOF 6
ENDMDL
MODEL 8
REMARK VINA RESULT:      -6.9      3.477      5.978
REMARK  6 active torsions:
REMARK  status: ('A' for Active; 'I' for Inactive)
REMARK    1  A    between atoms: O1_2  and  C2_3 
REMARK    2  A    between atoms: C2_3  and  C3_4 
REMARK    3  A    between atoms: C4_5  and  C5_6 
REMARK       I    between atoms: C5_6  and  N1_8 
REMARK    4  A    between atoms: N1_8  and  C6_9 
REMARK    5  A    between atoms: C9_12  and  N2_13 
REMARK    6  A    between atoms: C20_27  and  O3_28 
ROOT
HETATM    1  C6  UNL     1      22.566   1.814  52.157  1.00  0.00     0.070 A 
HETATM    2  C7  UNL     1      22.277   2.834  51.275  1.00  0.00     0.048 A 
HETATM    3  C8  UNL     1      20.957   3.237  51.246  1.00  0.00     0.024 A 
HETATM    4  C9  UNL     1      20.656   4.261  50.368  1.00  0.00     0.073 A 
HETATM    5  C15 UNL     1      19.327   4.708  50.306  1.00  0.00     0.090 A 
HETATM    6  C16 UNL     1      18.946   5.784  49.400  1.00  0.00     0.103 C 
HETATM    7  N3  UNL     1      18.627   6.642  48.679  1.00  0.00    -0.191 NA
HETATM    8  C17 UNL     1      18.351   4.117  51.118  1.00  0.00     0.142 A 
HETATM    9  N4  UNL     1      18.681   3.118  51.964  1.00  0.00    -0.259 NA
HETATM   10  C18 UNL     1      19.958   2.686  52.027  1.00  0.00     0.071 A 
HETATM   11  C19 UNL     1      20.316   1.668  52.887  1.00  0.00     0.071 A 
HETATM   12  C20 UNL     1      21.610   1.205  52.980  1.00  0.00     0.097 A 
ENDROOT
BRANCH   4  13
HETATM   13  N2  UNL     1      21.535   4.932  49.489  1.00  0.00    -0.330 N 
HETATM   14  C10 UNL     1      21.561   4.253  48.211  1.00  0.00     0.093 A 
HETATM   15  C11 UNL     1      22.340   4.740  47.236  1.00  0.00    -0.004 A 
HETATM   16  C12 UNL     1      23.197   5.947  47.362  1.00  0.00     0.076 A 
HETATM   17  C13 UNL     1      23.094   6.563  48.710  1.00  0.00     0.008 A 
HETATM   18 BR1  UNL     1      24.120   8.126  49.077  1.00  0.00    -0.054 Br
HETATM   19  C14 UNL     1      22.331   6.096  49.683  1.00  0.00     0.111 A 
ENDBRANCH   4  13
BRANCH   1  20
HETATM   20  N1  UNL     1      23.895   1.316  52.275  1.00  0.00    -0.314 N 
HETATM   21  C5  UNL     1      25.186   1.542  51.792  1.00  0.00     0.301 C 
HETATM   22  O2  UNL     1      25.501   2.442  50.963  1.00  0.00    -0.258 OA
HETATM   23  H6  UNL     1      23.720   0.534  52.975  1.00  0.00     0.170 HD
BRANCH  21  24
HETATM   24  C4  UNL     1      26.240   0.677  52.282  1.00  0.00    -0.003 C 
HETATM   25  C3  UNL     1      27.133  -0.039  52.674  1.00  0.00    -0.070 C 
BRANCH  25  26
HETATM   26  C2  UNL     1      28.219  -0.918  53.127  1.00  0.00     0.261 C 
BRANCH  26  27
HETATM   27  O1  UNL     1      28.505  -0.779  54.466  1.00  0.00    -0.384 OA
HETATM   28  C1  UNL     1      28.850   0.534  54.803  1.00  0.00     0.202 C 
ENDBRANCH  26  27
ENDBRANCH  25  26
ENDBRANCH  21  24
ENDBRANCH   1  20
BRANCH  12  29
HETATM   29  O3  UNL     1      21.976   0.181  53.845  1.00  0.00    -0.354 OA
HETATM   30  C21 UNL     1      21.297  -1.056  53.707  1.00  0.00     0.210 C 
ENDBRANCH  12  29
TORSDOF 6
ENDMDL
MODEL 9
REMARK VINA RESULT:      -6.9      4.320      8.181
REMARK  6 active torsions:
REMARK  status: ('A' for Active; 'I' for Inactive)
REMARK    1  A    between atoms: O1_2  and  C2_3 
REMARK    2  A    between atoms: C2_3  and  C3_4 
REMARK    3  A    between atoms: C4_5  and  C5_6 
REMARK       I    between atoms: C5_6  and  N1_8 
REMARK    4  A    between atoms: N1_8  and  C6_9 
REMARK    5  A    between atoms: C9_12  and  N2_13 
REMARK    6  A    between atoms: C20_27  and  O3_28 
ROOT
HETATM    1  C6  UNL     1      20.209   1.155  52.525  1.00  0.00     0.070 A 
HETATM    2  C7  UNL     1      21.329   1.798  52.042  1.00  0.00     0.048 A 
HETATM    3  C8  UNL     1      22.538   1.262  52.442  1.00  0.00     0.024 A 
HETATM    4  C9  UNL     1      23.668   1.896  51.961  1.00  0.00     0.073 A 
HETATM    5  C15 UNL     1      24.921   1.386  52.337  1.00  0.00     0.090 A 
HETATM    6  C16 UNL     1      26.150   2.010  51.864  1.00  0.00     0.103 C 
HETATM    7  N3  UNL     1      27.141   2.501  51.495  1.00  0.00    -0.191 NA
HETATM    8  C17 UNL     1      24.998   0.267  53.176  1.00  0.00     0.142 A 
HETATM    9  N4  UNL     1      23.872  -0.326  53.627  1.00  0.00    -0.259 NA
HETATM   10  C18 UNL     1      22.667   0.162  53.267  1.00  0.00     0.071 A 
HETATM   11  C19 UNL     1      21.505  -0.433  53.715  1.00  0.00     0.071 A 
HETATM   12  C20 UNL     1      20.257   0.036  53.365  1.00  0.00     0.097 A 
ENDROOT
BRANCH   4  13
HETATM   13  N2  UNL     1      23.733   3.033  51.124  1.00  0.00    -0.330 N 
HETATM   14  C10 UNL     1      23.625   2.627  49.739  1.00  0.00     0.093 A 
HETATM   15  C11 UNL     1      23.665   3.566  48.785  1.00  0.00    -0.004 A 
HETATM   16  C12 UNL     1      23.814   5.022  49.038  1.00  0.00     0.076 A 
HETATM   17  C13 UNL     1      23.917   5.326  50.488  1.00  0.00     0.008 A 
HETATM   18 BR1  UNL     1      24.115   7.144  51.025  1.00  0.00    -0.054 Br
HETATM   19  C14 UNL     1      23.879   4.412  51.443  1.00  0.00     0.111 A 
ENDBRANCH   4  13
BRANCH   1  20
HETATM   20  N1  UNL     1      18.907   1.616  52.178  1.00  0.00    -0.314 N 
HETATM   21  C5  UNL     1      17.923   1.457  51.200  1.00  0.00     0.301 C 
HETATM   22  O2  UNL     1      18.018   0.693  50.196  1.00  0.00    -0.258 OA
HETATM   23  H6  UNL     1      18.742   2.281  52.992  1.00  0.00     0.170 HD
BRANCH  21  24
HETATM   24  C4  UNL     1      16.704   2.225  51.350  1.00  0.00    -0.003 C 
HETATM   25  C3  UNL     1      15.697   2.885  51.469  1.00  0.00    -0.070 C 
BRANCH  25  26
HETATM   26  C2  UNL     1      14.487   3.702  51.625  1.00  0.00     0.261 C 
BRANCH  26  27
HETATM   27  O1  UNL     1      13.965   3.660  52.898  1.00  0.00    -0.384 OA
HETATM   28  C1  UNL     1      13.408   2.415  53.204  1.00  0.00     0.202 C 
ENDBRANCH  26  27
ENDBRANCH  25  26
ENDBRANCH  21  24
ENDBRANCH   1  20
BRANCH  12  29
HETATM   29  O3  UNL     1      19.084  -0.560  53.813  1.00  0.00    -0.354 OA
HETATM   30  C21 UNL     1      18.863  -1.911  53.446  1.00  0.00     0.210 C 
ENDBRANCH  12  29
TORSDOF 6
ENDMDL
