MODEL 1
REMARK VINA RESULT:      -7.3      0.000      0.000
REMARK  6 active torsions:
REMARK  status: ('A' for Active; 'I' for Inactive)
REMARK    1  A    between atoms: C2_2  and  C3_3 
REMARK    2  A    between atoms: C3_3  and  C4_4 
REMARK    3  A    between atoms: C3_3  and  N4_19 
REMARK    4  A    between atoms: C7_7  and  N1_8 
REMARK    5  A    between atoms: N1_8  and  C8_9 
REMARK    6  A    between atoms: N4_19  and  C16_20 
ROOT
HETATM    1  C4  UNL     1      21.901   0.595  53.022  1.00  0.00     0.025 C 
HETATM    2  C5  UNL     1      22.853   1.240  52.361  1.00  0.00     0.041 A 
HETATM    3  C6  UNL     1      24.201   1.508  52.916  1.00  0.00     0.137 A 
HETATM    4  C7  UNL     1      25.002   2.229  51.883  1.00  0.00     0.111 A 
HETATM    5  N2  UNL     1      24.622   2.591  50.682  1.00  0.00    -0.228 NA
HETATM    6  C15 UNL     1      23.285   2.279  50.257  1.00  0.00     0.235 A 
HETATM    7  N3  UNL     1      22.496   1.658  51.053  1.00  0.00    -0.246 NA
ENDROOT
BRANCH   4   8
HETATM    8  N1  UNL     1      26.339   2.584  52.200  1.00  0.00    -0.347 N 
HETATM    9  H10 UNL     1      26.701   3.484  51.821  1.00  0.00     0.167 HD
BRANCH   8  10
HETATM   10  C8  UNL     1      27.264   1.898  52.965  1.00  0.00     0.021 A 
HETATM   11  C9  UNL     1      28.564   2.061  53.747  1.00  0.00     0.014 A 
HETATM   12  C10 UNL     1      28.620   0.585  53.993  1.00  0.00     0.015 A 
HETATM   13  C11 UNL     1      29.054  -0.623  53.593  1.00  0.00    -0.014 A 
HETATM   14  C14 UNL     1      27.300   0.292  54.802  1.00  0.00     0.040 A 
HETATM   15  C13 UNL     1      27.268   0.421  53.225  1.00  0.00     0.035 A 
HETATM   16  C12 UNL     1      27.599  -0.803  52.765  1.00  0.00    -0.012 A 
ENDBRANCH   8  10
ENDBRANCH   4   8
BRANCH   1  17
HETATM   17  C3  UNL     1      21.585  -0.073  54.294  1.00  0.00     0.108 C 
BRANCH  17  18
HETATM   18  C2  UNL     1      22.254  -1.435  54.457  1.00  0.00     0.025 C 
HETATM   19  C1  UNL     1      23.405  -1.197  55.427  1.00  0.00     0.007 C 
ENDBRANCH  17  18
BRANCH  17  20
HETATM   20  N4  UNL     1      20.143  -0.330  54.370  1.00  0.00    -0.360 N 
HETATM   21  H17 UNL     1      19.720  -0.387  55.320  1.00  0.00     0.162 HD
BRANCH  20  22
HETATM   22  C16 UNL     1      19.428  -0.482  53.144  1.00  0.00     0.349 C 
HETATM   23  O1  UNL     1      18.256  -0.876  53.048  1.00  0.00    -0.284 OA
ENDBRANCH  20  22
ENDBRANCH  17  20
ENDBRANCH   1  17
TORSDOF 6
ENDMDL
MODEL 2
REMARK VINA RESULT:      -7.2      2.337      5.768
REMARK  6 active torsions:
REMARK  status: ('A' for Active; 'I' for Inactive)
REMARK    1  A    between atoms: C2_2  and  C3_3 
REMARK    2  A    between atoms: C3_3  and  C4_4 
REMARK    3  A    between atoms: C3_3  and  N4_19 
REMARK    4  A    between atoms: C7_7  and  N1_8 
REMARK    5  A    between atoms: N1_8  and  C8_9 
REMARK    6  A    between atoms: N4_19  and  C16_20 
ROOT
HETATM    1  C4  UNL     1      27.566   1.707  52.666  1.00  0.00     0.025 C 
HETATM    2  C5  UNL     1      26.589   2.076  51.848  1.00  0.00     0.041 A 
HETATM    3  C6  UNL     1      25.221   1.507  51.894  1.00  0.00     0.137 A 
HETATM    4  C7  UNL     1      24.396   2.176  50.846  1.00  0.00     0.111 A 
HETATM    5  N2  UNL     1      24.772   3.106  50.002  1.00  0.00    -0.228 NA
HETATM    6  C15 UNL     1      26.130   3.574  50.049  1.00  0.00     0.235 A 
HETATM    7  N3  UNL     1      26.941   3.080  50.909  1.00  0.00    -0.246 NA
ENDROOT
BRANCH   4   8
HETATM    8  N1  UNL     1      23.037   1.788  50.714  1.00  0.00    -0.347 N 
HETATM    9  H10 UNL     1      22.672   1.634  49.751  1.00  0.00     0.167 HD
BRANCH   8  10
HETATM   10  C8  UNL     1      22.094   1.571  51.701  1.00  0.00     0.021 A 
HETATM   11  C9  UNL     1      21.065   2.273  52.584  1.00  0.00     0.014 A 
HETATM   12  C10 UNL     1      20.801   0.995  53.319  1.00  0.00     0.015 A 
HETATM   13  C11 UNL     1      21.094   0.196  54.360  1.00  0.00    -0.014 A 
HETATM   14  C14 UNL     1      20.276   0.021  52.198  1.00  0.00     0.040 A 
HETATM   15  C13 UNL     1      21.827   0.266  52.391  1.00  0.00     0.035 A 
HETATM   16  C12 UNL     1      22.200  -0.592  53.362  1.00  0.00    -0.012 A 
ENDBRANCH   8  10
ENDBRANCH   4   8
BRANCH   1  17
HETATM   17  C3  UNL     1      27.901   0.816  53.787  1.00  0.00     0.108 C 
BRANCH  17  18
HETATM   18  C2  UNL     1      28.044  -0.650  53.386  1.00  0.00     0.025 C 
HETATM   19  C1  UNL     1      29.533  -0.949  53.502  1.00  0.00     0.007 C 
ENDBRANCH  17  18
BRANCH  17  20
HETATM   20  N4  UNL     1      26.825   0.851  54.782  1.00  0.00    -0.360 N 
HETATM   21  H17 UNL     1      26.756   1.702  55.378  1.00  0.00     0.162 HD
BRANCH  20  22
HETATM   22  C16 UNL     1      25.956  -0.279  54.861  1.00  0.00     0.349 C 
HETATM   23  O1  UNL     1      25.636  -0.858  55.911  1.00  0.00    -0.284 OA
ENDBRANCH  20  22
ENDBRANCH  17  20
ENDBRANCH   1  17
TORSDOF 6
ENDMDL
MODEL 3
REMARK VINA RESULT:      -7.1      3.058      6.567
REMARK  6 active torsions:
REMARK  status: ('A' for Active; 'I' for Inactive)
REMARK    1  A    between atoms: C2_2  and  C3_3 
REMARK    2  A    between atoms: C3_3  and  C4_4 
REMARK    3  A    between atoms: C3_3  and  N4_19 
REMARK    4  A    between atoms: C7_7  and  N1_8 
REMARK    5  A    between atoms: N1_8  and  C8_9 
REMARK    6  A    between atoms: N4_19  and  C16_20 
ROOT
HETATM    1  C4  UNL     1      25.000  -0.452  54.258  1.00  0.00     0.025 C 
HETATM    2  C5  UNL     1      23.712  -0.482  53.942  1.00  0.00     0.041 A 
HETATM    3  C6  UNL     1      23.138   0.211  52.764  1.00  0.00     0.137 A 
HETATM    4  C7  UNL     1      21.672  -0.067  52.719  1.00  0.00     0.111 A 
HETATM    5  N2  UNL     1      20.967  -0.787  53.557  1.00  0.00    -0.228 NA
HETATM    6  C15 UNL     1      21.635  -1.407  54.668  1.00  0.00     0.235 A 
HETATM    7  N3  UNL     1      22.898  -1.247  54.818  1.00  0.00    -0.246 NA
ENDROOT
BRANCH   4   8
HETATM    8  N1  UNL     1      20.916   0.498  51.660  1.00  0.00    -0.347 N 
HETATM    9  H10 UNL     1      19.878   0.450  51.731  1.00  0.00     0.167 HD
BRANCH   8  10
HETATM   10  C8  UNL     1      21.360   1.128  50.512  1.00  0.00     0.021 A 
HETATM   11  C9  UNL     1      21.520   0.950  49.005  1.00  0.00     0.014 A 
HETATM   12  C10 UNL     1      22.243   2.258  48.912  1.00  0.00     0.015 A 
HETATM   13  C11 UNL     1      23.415   2.918  48.922  1.00  0.00    -0.014 A 
HETATM   14  C14 UNL     1      21.186   3.306  49.426  1.00  0.00     0.040 A 
HETATM   15  C13 UNL     1      22.047   2.460  50.449  1.00  0.00     0.035 A 
HETATM   16  C12 UNL     1      23.205   3.137  50.578  1.00  0.00    -0.012 A 
ENDBRANCH   8  10
ENDBRANCH   4   8
BRANCH   1  17
HETATM   17  C3  UNL     1      26.309   0.077  53.847  1.00  0.00     0.108 C 
BRANCH  17  18
HETATM   18  C2  UNL     1      26.669  -0.228  52.396  1.00  0.00     0.025 C 
HETATM   19  C1  UNL     1      26.591   1.114  51.678  1.00  0.00     0.007 C 
ENDBRANCH  17  18
BRANCH  17  20
HETATM   20  N4  UNL     1      27.365  -0.541  54.655  1.00  0.00    -0.360 N 
HETATM   21  H17 UNL     1      27.128  -1.426  55.150  1.00  0.00     0.162 HD
BRANCH  20  22
HETATM   22  C16 UNL     1      28.634   0.112  54.704  1.00  0.00     0.349 C 
HETATM   23  O1  UNL     1      28.814   1.292  55.041  1.00  0.00    -0.284 OA
ENDBRANCH  20  22
ENDBRANCH  17  20
ENDBRANCH   1  17
TORSDOF 6
ENDMDL
MODEL 4
REMARK VINA RESULT:      -7.1      1.526      2.306
REMARK  6 active torsions:
REMARK  status: ('A' for Active; 'I' for Inactive)
REMARK    1  A    between atoms: C2_2  and  C3_3 
REMARK    2  A    between atoms: C3_3  and  C4_4 
REMARK    3  A    between atoms: C3_3  and  N4_19 
REMARK    4  A    between atoms: C7_7  and  N1_8 
REMARK    5  A    between atoms: N1_8  and  C8_9 
REMARK    6  A    between atoms: N4_19  and  C16_20 
ROOT
HETATM    1  C4  UNL     1      20.976   1.318  52.633  1.00  0.00     0.025 C 
HETATM    2  C5  UNL     1      22.086   1.976  52.322  1.00  0.00     0.041 A 
HETATM    3  C6  UNL     1      23.393   1.318  52.087  1.00  0.00     0.137 A 
HETATM    4  C7  UNL     1      24.395   2.368  51.740  1.00  0.00     0.111 A 
HETATM    5  N2  UNL     1      24.203   3.662  51.654  1.00  0.00    -0.228 NA
HETATM    6  C15 UNL     1      22.890   4.185  51.912  1.00  0.00     0.235 A 
HETATM    7  N3  UNL     1      21.937   3.384  52.217  1.00  0.00    -0.246 NA
ENDROOT
BRANCH   4   8
HETATM    8  N1  UNL     1      25.726   1.959  51.465  1.00  0.00    -0.347 N 
HETATM    9  H10 UNL     1      26.053   2.016  50.478  1.00  0.00     0.167 HD
BRANCH   8  10
HETATM   10  C8  UNL     1      26.689   1.487  52.337  1.00  0.00     0.021 A 
HETATM   11  C9  UNL     1      27.988   1.864  53.044  1.00  0.00     0.014 A 
HETATM   12  C10 UNL     1      28.115   0.474  53.587  1.00  0.00     0.015 A 
HETATM   13  C11 UNL     1      28.602  -0.770  53.436  1.00  0.00    -0.014 A 
HETATM   14  C14 UNL     1      26.818   0.296  54.463  1.00  0.00     0.040 A 
HETATM   15  C13 UNL     1      26.765   0.096  52.895  1.00  0.00     0.035 A 
HETATM   16  C12 UNL     1      27.148  -1.180  52.690  1.00  0.00    -0.012 A 
ENDBRANCH   8  10
ENDBRANCH   4   8
BRANCH   1  17
HETATM   17  C3  UNL     1      20.423  -0.021  52.880  1.00  0.00     0.108 C 
BRANCH  17  18
HETATM   18  C2  UNL     1      18.973  -0.182  52.430  1.00  0.00     0.025 C 
HETATM   19  C1  UNL     1      18.920   0.436  51.038  1.00  0.00     0.007 C 
ENDBRANCH  17  18
BRANCH  17  20
HETATM   20  N4  UNL     1      20.422  -0.296  54.321  1.00  0.00    -0.360 N 
HETATM   21  H17 UNL     1      19.531  -0.132  54.835  1.00  0.00     0.162 HD
BRANCH  20  22
HETATM   22  C16 UNL     1      21.635  -0.763  54.910  1.00  0.00     0.349 C 
HETATM   23  O1  UNL     1      21.874  -1.944  55.204  1.00  0.00    -0.284 OA
ENDBRANCH  20  22
ENDBRANCH  17  20
ENDBRANCH   1  17
TORSDOF 6
ENDMDL
MODEL 5
REMARK VINA RESULT:      -6.9      3.064      6.355
REMARK  6 active torsions:
REMARK  status: ('A' for Active; 'I' for Inactive)
REMARK    1  A    between atoms: C2_2  and  C3_3 
REMARK    2  A    between atoms: C3_3  and  C4_4 
REMARK    3  A    between atoms: C3_3  and  N4_19 
REMARK    4  A    between atoms: C7_7  and  N1_8 
REMARK    5  A    between atoms: N1_8  and  C8_9 
REMARK    6  A    between atoms: N4_19  and  C16_20 
ROOT
HETATM    1  C4  UNL     1      26.118  -0.055  54.090  1.00  0.00     0.025 C 
HETATM    2  C5  UNL     1      24.895   0.207  53.648  1.00  0.00     0.041 A 
HETATM    3  C6  UNL     1      24.484   1.522  53.099  1.00  0.00     0.137 A 
HETATM    4  C7  UNL     1      23.052   1.434  52.685  1.00  0.00     0.111 A 
HETATM    5  N2  UNL     1      22.253   0.399  52.777  1.00  0.00    -0.228 NA
HETATM    6  C15 UNL     1      22.766  -0.823  53.334  1.00  0.00     0.235 A 
HETATM    7  N3  UNL     1      23.984  -0.879  53.726  1.00  0.00    -0.246 NA
ENDROOT
BRANCH   4   8
HETATM    8  N1  UNL     1      22.447   2.586  52.120  1.00  0.00    -0.347 N 
HETATM    9  H10 UNL     1      21.505   2.856  52.472  1.00  0.00     0.167 HD
BRANCH   8  10
HETATM   10  C8  UNL     1      22.934   3.437  51.147  1.00  0.00     0.021 A 
HETATM   11  C9  UNL     1      23.293   4.894  50.865  1.00  0.00     0.014 A 
HETATM   12  C10 UNL     1      23.572   4.564  49.431  1.00  0.00     0.015 A 
HETATM   13  C11 UNL     1      23.112   4.472  48.171  1.00  0.00    -0.014 A 
HETATM   14  C14 UNL     1      24.743   3.513  49.511  1.00  0.00     0.040 A 
HETATM   15  C13 UNL     1      23.242   3.065  49.726  1.00  0.00     0.035 A 
HETATM   16  C12 UNL     1      22.756   2.856  48.486  1.00  0.00    -0.012 A 
ENDBRANCH   8  10
ENDBRANCH   4   8
BRANCH   1  17
HETATM   17  C3  UNL     1      27.455   0.524  54.292  1.00  0.00     0.108 C 
BRANCH  17  18
HETATM   18  C2  UNL     1      28.006   1.242  53.063  1.00  0.00     0.025 C 
HETATM   19  C1  UNL     1      28.681   2.495  53.606  1.00  0.00     0.007 C 
ENDBRANCH  17  18
BRANCH  17  20
HETATM   20  N4  UNL     1      28.414  -0.545  54.589  1.00  0.00    -0.360 N 
HETATM   21  H17 UNL     1      28.648  -0.708  55.590  1.00  0.00     0.162 HD
BRANCH  20  22
HETATM   22  C16 UNL     1      28.954  -1.279  53.490  1.00  0.00     0.349 C 
HETATM   23  O1  UNL     1      28.756  -2.484  53.273  1.00  0.00    -0.284 OA
ENDBRANCH  20  22
ENDBRANCH  17  20
ENDBRANCH   1  17
TORSDOF 6
ENDMDL
MODEL 6
REMARK VINA RESULT:      -6.7      2.258      4.158
REMARK  6 active torsions:
REMARK  status: ('A' for Active; 'I' for Inactive)
REMARK    1  A    between atoms: C2_2  and  C3_3 
REMARK    2  A    between atoms: C3_3  and  C4_4 
REMARK    3  A    between atoms: C3_3  and  N4_19 
REMARK    4  A    between atoms: C7_7  and  N1_8 
REMARK    5  A    between atoms: N1_8  and  C8_9 
REMARK    6  A    between atoms: N4_19  and  C16_20 
ROOT
HETATM    1  C4  UNL     1      21.449   1.670  52.139  1.00  0.00     0.025 C 
HETATM    2  C5  UNL     1      21.940   0.756  52.966  1.00  0.00     0.041 A 
HETATM    3  C6  UNL     1      23.390   0.559  53.205  1.00  0.00     0.137 A 
HETATM    4  C7  UNL     1      23.559  -0.534  54.207  1.00  0.00     0.111 A 
HETATM    5  N2  UNL     1      22.620  -1.234  54.796  1.00  0.00    -0.228 NA
HETATM    6  C15 UNL     1      21.247  -0.955  54.477  1.00  0.00     0.235 A 
HETATM    7  N3  UNL     1      20.967  -0.034  53.631  1.00  0.00    -0.246 NA
ENDROOT
BRANCH   4   8
HETATM    8  N1  UNL     1      24.877  -0.890  54.594  1.00  0.00    -0.347 N 
HETATM    9  H10 UNL     1      25.017  -1.232  55.567  1.00  0.00     0.167 HD
BRANCH   8  10
HETATM   10  C8  UNL     1      26.042  -0.855  53.851  1.00  0.00     0.021 A 
HETATM   11  C9  UNL     1      26.759  -1.509  52.673  1.00  0.00     0.014 A 
HETATM   12  C10 UNL     1      27.987  -0.696  52.949  1.00  0.00     0.015 A 
HETATM   13  C11 UNL     1      29.175  -0.598  53.571  1.00  0.00    -0.014 A 
HETATM   14  C14 UNL     1      27.494   0.791  52.785  1.00  0.00     0.040 A 
HETATM   15  C13 UNL     1      27.241   0.002  54.132  1.00  0.00     0.035 A 
HETATM   16  C12 UNL     1      28.374   0.154  54.847  1.00  0.00    -0.012 A 
ENDBRANCH   8  10
ENDBRANCH   4   8
BRANCH   1  17
HETATM   17  C3  UNL     1      21.818   2.746  51.207  1.00  0.00     0.108 C 
BRANCH  17  18
HETATM   18  C2  UNL     1      21.418   4.139  51.686  1.00  0.00     0.025 C 
HETATM   19  C1  UNL     1      22.730   4.898  51.839  1.00  0.00     0.007 C 
ENDBRANCH  17  18
BRANCH  17  20
HETATM   20  N4  UNL     1      21.124   2.552  49.931  1.00  0.00    -0.360 N 
HETATM   21  H17 UNL     1      20.141   2.893  49.868  1.00  0.00     0.162 HD
BRANCH  20  22
HETATM   22  C16 UNL     1      21.840   1.913  48.874  1.00  0.00     0.349 C 
HETATM   23  O1  UNL     1      21.573   0.794  48.408  1.00  0.00    -0.284 OA
ENDBRANCH  20  22
ENDBRANCH  17  20
ENDBRANCH   1  17
TORSDOF 6
ENDMDL
MODEL 7
REMARK VINA RESULT:      -6.3      3.152      6.567
REMARK  6 active torsions:
REMARK  status: ('A' for Active; 'I' for Inactive)
REMARK    1  A    between atoms: C2_2  and  C3_3 
REMARK    2  A    between atoms: C3_3  and  C4_4 
REMARK    3  A    between atoms: C3_3  and  N4_19 
REMARK    4  A    between atoms: C7_7  and  N1_8 
REMARK    5  A    between atoms: N1_8  and  C8_9 
REMARK    6  A    between atoms: N4_19  and  C16_20 
ROOT
HETATM    1  C4  UNL     1      27.180   1.097  51.993  1.00  0.00     0.025 C 
HETATM    2  C5  UNL     1      26.262   1.909  51.486  1.00  0.00     0.041 A 
HETATM    3  C6  UNL     1      24.809   1.768  51.742  1.00  0.00     0.137 A 
HETATM    4  C7  UNL     1      24.095   2.868  51.029  1.00  0.00     0.111 A 
HETATM    5  N2  UNL     1      24.618   3.814  50.287  1.00  0.00    -0.228 NA
HETATM    6  C15 UNL     1      26.043   3.844  50.107  1.00  0.00     0.235 A 
HETATM    7  N3  UNL     1      26.772   2.953  50.671  1.00  0.00    -0.246 NA
ENDROOT
BRANCH   4   8
HETATM    8  N1  UNL     1      22.682   2.933  51.141  1.00  0.00    -0.347 N 
HETATM    9  H10 UNL     1      22.252   3.872  51.270  1.00  0.00     0.167 HD
BRANCH   8  10
HETATM   10  C8  UNL     1      21.758   1.906  51.099  1.00  0.00     0.021 A 
HETATM   11  C9  UNL     1      21.455   0.561  50.444  1.00  0.00     0.014 A 
HETATM   12  C10 UNL     1      20.114   0.521  51.109  1.00  0.00     0.015 A 
HETATM   13  C11 UNL     1      18.801   0.805  51.048  1.00  0.00    -0.014 A 
HETATM   14  C14 UNL     1      20.459   0.537  52.646  1.00  0.00     0.040 A 
HETATM   15  C13 UNL     1      20.437   1.880  51.810  1.00  0.00     0.035 A 
HETATM   16  C12 UNL     1      19.147   2.270  51.804  1.00  0.00    -0.012 A 
ENDBRANCH   8  10
ENDBRANCH   4   8
BRANCH   1  17
HETATM   17  C3  UNL     1      27.376  -0.084  52.849  1.00  0.00     0.108 C 
BRANCH  17  18
HETATM   18  C2  UNL     1      26.212  -1.070  52.813  1.00  0.00     0.025 C 
HETATM   19  C1  UNL     1      25.417  -0.792  54.082  1.00  0.00     0.007 C 
ENDBRANCH  17  18
BRANCH  17  20
HETATM   20  N4  UNL     1      27.495   0.337  54.248  1.00  0.00    -0.360 N 
HETATM   21  H17 UNL     1      26.619   0.365  54.812  1.00  0.00     0.162 HD
BRANCH  20  22
HETATM   22  C16 UNL     1      28.794   0.676  54.733  1.00  0.00     0.349 C 
HETATM   23  O1  UNL     1      29.251   1.828  54.796  1.00  0.00    -0.284 OA
ENDBRANCH  20  22
ENDBRANCH  17  20
ENDBRANCH   1  17
TORSDOF 6
ENDMDL
MODEL 8
REMARK VINA RESULT:      -6.3      3.265      5.234
REMARK  6 active torsions:
REMARK  status: ('A' for Active; 'I' for Inactive)
REMARK    1  A    between atoms: C2_2  and  C3_3 
REMARK    2  A    between atoms: C3_3  and  C4_4 
REMARK    3  A    between atoms: C3_3  and  N4_19 
REMARK    4  A    between atoms: C7_7  and  N1_8 
REMARK    5  A    between atoms: N1_8  and  C8_9 
REMARK    6  A    between atoms: N4_19  and  C16_20 
ROOT
HETATM    1  C4  UNL     1      23.579   1.069  53.062  1.00  0.00     0.025 C 
HETATM    2  C5  UNL     1      24.692   1.536  52.512  1.00  0.00     0.041 A 
HETATM    3  C6  UNL     1      24.721   2.317  51.252  1.00  0.00     0.137 A 
HETATM    4  C7  UNL     1      26.137   2.687  50.959  1.00  0.00     0.111 A 
HETATM    5  N2  UNL     1      27.205   2.391  51.659  1.00  0.00    -0.228 NA
HETATM    6  C15 UNL     1      27.051   1.620  52.862  1.00  0.00     0.235 A 
HETATM    7  N3  UNL     1      25.883   1.242  53.227  1.00  0.00    -0.246 NA
ENDROOT
BRANCH   4   8
HETATM    8  N1  UNL     1      26.402   3.451  49.792  1.00  0.00    -0.347 N 
HETATM    9  H10 UNL     1      27.137   3.101  49.144  1.00  0.00     0.167 HD
BRANCH   8  10
HETATM   10  C8  UNL     1      25.808   4.624  49.367  1.00  0.00     0.021 A 
HETATM   11  C9  UNL     1      24.485   5.225  48.900  1.00  0.00     0.014 A 
HETATM   12  C10 UNL     1      25.163   6.527  48.604  1.00  0.00     0.015 A 
HETATM   13  C11 UNL     1      25.792   7.309  47.708  1.00  0.00    -0.014 A 
HETATM   14  C14 UNL     1      25.730   6.980  50.002  1.00  0.00     0.040 A 
HETATM   15  C13 UNL     1      26.511   5.926  49.117  1.00  0.00     0.035 A 
HETATM   16  C12 UNL     1      27.246   6.663  48.260  1.00  0.00    -0.012 A 
ENDBRANCH   8  10
ENDBRANCH   4   8
BRANCH   1  17
HETATM   17  C3  UNL     1      22.118   0.999  52.905  1.00  0.00     0.108 C 
BRANCH  17  18
HETATM   18  C2  UNL     1      21.409   0.284  54.052  1.00  0.00     0.025 C 
HETATM   19  C1  UNL     1      22.078  -1.081  54.142  1.00  0.00     0.007 C 
ENDBRANCH  17  18
BRANCH  17  20
HETATM   20  N4  UNL     1      21.789   0.233  51.699  1.00  0.00    -0.360 N 
HETATM   21  H17 UNL     1      21.950  -0.795  51.730  1.00  0.00     0.162 HD
BRANCH  20  22
HETATM   22  C16 UNL     1      21.275   0.949  50.576  1.00  0.00     0.349 C 
HETATM   23  O1  UNL     1      21.526   0.687  49.389  1.00  0.00    -0.284 OA
ENDBRANCH  20  22
ENDBRANCH  17  20
ENDBRANCH   1  17
TORSDOF 6
ENDMDL
MODEL 9
REMARK VINA RESULT:      -6.3      4.667      6.869
REMARK  6 active torsions:
REMARK  status: ('A' for Active; 'I' for Inactive)
REMARK    1  A    between atoms: C2_2  and  C3_3 
REMARK    2  A    between atoms: C3_3  and  C4_4 
REMARK    3  A    between atoms: C3_3  and  N4_19 
REMARK    4  A    between atoms: C7_7  and  N1_8 
REMARK    5  A    between atoms: N1_8  and  C8_9 
REMARK    6  A    between atoms: N4_19  and  C16_20 
ROOT
HETATM    1  C4  UNL     1      24.128   6.824  50.538  1.00  0.00     0.025 C 
HETATM    2  C5  UNL     1      23.857   5.598  50.965  1.00  0.00     0.041 A 
HETATM    3  C6  UNL     1      24.702   4.417  50.666  1.00  0.00     0.137 A 
HETATM    4  C7  UNL     1      24.097   3.224  51.329  1.00  0.00     0.111 A 
HETATM    5  N2  UNL     1      23.006   3.176  52.055  1.00  0.00    -0.228 NA
HETATM    6  C15 UNL     1      22.266   4.389  52.270  1.00  0.00     0.235 A 
HETATM    7  N3  UNL     1      22.682   5.486  51.756  1.00  0.00    -0.246 NA
ENDROOT
BRANCH   4   8
HETATM    8  N1  UNL     1      24.750   1.973  51.181  1.00  0.00    -0.347 N 
HETATM    9  H10 UNL     1      24.936   1.639  50.213  1.00  0.00     0.167 HD
BRANCH   8  10
HETATM   10  C8  UNL     1      25.198   1.104  52.158  1.00  0.00     0.021 A 
HETATM   11  C9  UNL     1      24.740   0.250  53.337  1.00  0.00     0.014 A 
HETATM   12  C10 UNL     1      26.161  -0.098  53.657  1.00  0.00     0.015 A 
HETATM   13  C11 UNL     1      27.279   0.190  54.348  1.00  0.00    -0.014 A 
HETATM   14  C14 UNL     1      26.667  -0.835  52.360  1.00  0.00     0.040 A 
HETATM   15  C13 UNL     1      26.630   0.746  52.428  1.00  0.00     0.035 A 
HETATM   16  C12 UNL     1      27.787   1.099  53.024  1.00  0.00    -0.012 A 
ENDBRANCH   8  10
ENDBRANCH   4   8
BRANCH   1  17
HETATM   17  C3  UNL     1      25.086   7.622  49.757  1.00  0.00     0.108 C 
BRANCH  17  18
HETATM   18  C2  UNL     1      25.501   6.971  48.440  1.00  0.00     0.025 C 
HETATM   19  C1  UNL     1      24.302   7.146  47.517  1.00  0.00     0.007 C 
ENDBRANCH  17  18
BRANCH  17  20
HETATM   20  N4  UNL     1      26.326   7.790  50.523  1.00  0.00    -0.360 N 
HETATM   21  H17 UNL     1      26.471   7.157  51.337  1.00  0.00     0.162 HD
BRANCH  20  22
HETATM   22  C16 UNL     1      27.238   8.803  50.099  1.00  0.00     0.349 C 
HETATM   23  O1  UNL     1      27.125  10.012  50.350  1.00  0.00    -0.284 OA
ENDBRANCH  20  22
ENDBRANCH  17  20
ENDBRANCH   1  17
TORSDOF 6
ENDMDL
