MODEL 1
REMARK VINA RESULT:      -9.3      0.000      0.000
REMARK  1 active torsions:
REMARK  status: ('A' for Active; 'I' for Inactive)
REMARK    1  A    between atoms: C3_3  and  N1_5 
ROOT
HETATM    1  N1  UNL     1      24.573   0.339  53.517  1.00  0.00    -0.354 N 
HETATM    2  C4  UNL     1      24.085   0.690  52.195  1.00  0.00     0.090 C 
HETATM    3  C5  UNL     1      23.470   1.878  51.984  1.00  0.00     0.033 C 
HETATM    4  C6  UNL     1      22.892   2.378  50.718  1.00  0.00     0.019 A 
HETATM    5  C7  UNL     1      23.764   2.766  49.854  1.00  0.00     0.071 A 
HETATM    6  N2  UNL     1      23.086   2.834  48.692  1.00  0.00    -0.241 NA
HETATM    7  C8  UNL     1      21.799   2.572  48.445  1.00  0.00     0.234 A 
HETATM    8  N3  UNL     1      20.982   2.173  49.482  1.00  0.00    -0.245 NA
HETATM    9  C9  UNL     1      21.556   2.072  50.701  1.00  0.00     0.058 A 
HETATM   10  C10 UNL     1      20.957   1.957  52.026  1.00  0.00     0.086 C 
HETATM   11  C11 UNL     1      20.706   3.402  52.502  1.00  0.00    -0.014 C 
HETATM   12  C12 UNL     1      21.575   4.374  52.137  1.00  0.00    -0.007 C 
HETATM   13  C13 UNL     1      22.689   5.141  51.561  1.00  0.00    -0.016 C 
HETATM   14  C14 UNL     1      23.537   4.462  50.759  1.00  0.00     0.061 C 
HETATM   15  C15 UNL     1      24.754   4.462  49.918  1.00  0.00    -0.001 C 
HETATM   16 BR1  UNL     1      26.235   5.470  49.306  1.00  0.00    -0.055 Br
HETATM   17  C16 UNL     1      24.975   3.264  49.276  1.00  0.00     0.048 C 
HETATM   18  C17 UNL     1      19.897   1.040  52.361  1.00  0.00     0.116 C 
HETATM   19  C18 UNL     1      19.359   0.159  51.259  1.00  0.00     0.193 C 
HETATM   20  O2  UNL     1      18.066  -0.229  51.607  1.00  0.00    -0.387 OA
HETATM   21  C19 UNL     1      17.993  -0.764  52.880  1.00  0.00     0.187 C 
HETATM   22  C20 UNL     1      19.374  -0.955  53.484  1.00  0.00     0.143 C 
HETATM   23  N4  UNL     1      20.123   0.240  53.517  1.00  0.00    -0.403 N 
HETATM   24  C21 UNL     1      21.408   0.120  54.099  1.00  0.00     0.119 C 
HETATM   25  C22 UNL     1      22.283  -0.673  53.210  1.00  0.00     0.039 C 
HETATM   26  C23 UNL     1      23.727  -0.818  53.455  1.00  0.00     0.127 C 
ENDROOT
BRANCH   1  27
HETATM   27  C3  UNL     1      25.386   1.479  53.386  1.00  0.00     0.176 A 
HETATM   28  C2  UNL     1      26.622   0.991  52.742  1.00  0.00     0.038 A 
HETATM   29  C1  UNL     1      26.758   2.298  52.944  1.00  0.00     0.235 A 
HETATM   30  O1  UNL     1      25.344   2.680  53.640  1.00  0.00    -0.349 OA
ENDBRANCH   1  27
TORSDOF 1
ENDMDL
MODEL 2
REMARK VINA RESULT:      -8.7      2.796      5.130
REMARK  1 active torsions:
REMARK  status: ('A' for Active; 'I' for Inactive)
REMARK    1  A    between atoms: C3_3  and  N1_5 
ROOT
HETATM    1  N1  UNL     1      20.832   0.546  50.955  1.00  0.00    -0.354 N 
HETATM    2  C4  UNL     1      22.193   0.934  50.629  1.00  0.00     0.090 C 
HETATM    3  C5  UNL     1      22.811   1.918  51.323  1.00  0.00     0.033 C 
HETATM    4  C6  UNL     1      24.173   2.454  51.104  1.00  0.00     0.019 A 
HETATM    5  C7  UNL     1      25.117   1.681  51.515  1.00  0.00     0.071 A 
HETATM    6  N2  UNL     1      26.229   2.156  50.920  1.00  0.00    -0.241 NA
HETATM    7  C8  UNL     1      26.367   3.195  50.090  1.00  0.00     0.234 A 
HETATM    8  N3  UNL     1      25.257   3.937  49.749  1.00  0.00    -0.245 NA
HETATM    9  C9  UNL     1      24.081   3.553  50.291  1.00  0.00     0.058 A 
HETATM   10  C10 UNL     1      22.801   4.247  50.375  1.00  0.00     0.086 C 
HETATM   11  C11 UNL     1      22.867   5.098  51.658  1.00  0.00    -0.014 C 
HETATM   12  C12 UNL     1      23.552   4.626  52.726  1.00  0.00    -0.007 C 
HETATM   13  C13 UNL     1      24.361   3.819  53.651  1.00  0.00    -0.016 C 
HETATM   14  C14 UNL     1      24.870   2.668  53.161  1.00  0.00     0.061 C 
HETATM   15  C15 UNL     1      25.657   1.437  53.388  1.00  0.00    -0.001 C 
HETATM   16 BR1  UNL     1      26.585   0.382  54.657  1.00  0.00    -0.055 Br
HETATM   17  C16 UNL     1      25.833   0.683  52.249  1.00  0.00     0.048 C 
HETATM   18  C17 UNL     1      22.164   4.912  49.265  1.00  0.00     0.116 C 
HETATM   19  C18 UNL     1      22.883   4.905  47.939  1.00  0.00     0.193 C 
HETATM   20  O2  UNL     1      22.422   5.987  47.190  1.00  0.00    -0.387 OA
HETATM   21  C19 UNL     1      21.041   6.033  47.114  1.00  0.00     0.187 C 
HETATM   22  C20 UNL     1      20.409   4.788  47.712  1.00  0.00     0.143 C 
HETATM   23  N4  UNL     1      20.800   4.567  49.049  1.00  0.00    -0.403 N 
HETATM   24  C21 UNL     1      20.212   3.433  49.660  1.00  0.00     0.119 C 
HETATM   25  C22 UNL     1      20.763   2.203  49.055  1.00  0.00     0.039 C 
HETATM   26  C23 UNL     1      20.481   0.866  49.602  1.00  0.00     0.127 C 
ENDROOT
BRANCH   1  27
HETATM   27  C3  UNL     1      21.358   0.221  52.219  1.00  0.00     0.176 A 
HETATM   28  C2  UNL     1      20.374   0.747  53.186  1.00  0.00     0.038 A 
HETATM   29  C1  UNL     1      21.359   0.182  53.876  1.00  0.00     0.235 A 
HETATM   30  O1  UNL     1      22.340  -0.343  52.696  1.00  0.00    -0.349 OA
ENDBRANCH   1  27
TORSDOF 1
ENDMDL
MODEL 3
REMARK VINA RESULT:      -8.5      2.246      3.488
REMARK  1 active torsions:
REMARK  status: ('A' for Active; 'I' for Inactive)
REMARK    1  A    between atoms: C3_3  and  N1_5 
ROOT
HETATM    1  N1  UNL     1      26.243   3.471  50.515  1.00  0.00    -0.354 N 
HETATM    2  C4  UNL     1      25.038   3.074  49.806  1.00  0.00     0.090 C 
HETATM    3  C5  UNL     1      23.853   3.670  50.081  1.00  0.00     0.033 C 
HETATM    4  C6  UNL     1      22.536   3.368  49.479  1.00  0.00     0.019 A 
HETATM    5  C7  UNL     1      22.389   3.811  48.279  1.00  0.00     0.071 A 
HETATM    6  N2  UNL     1      21.318   3.147  47.800  1.00  0.00    -0.241 NA
HETATM    7  C8  UNL     1      20.550   2.233  48.401  1.00  0.00     0.234 A 
HETATM    8  N3  UNL     1      20.829   1.868  49.701  1.00  0.00    -0.245 NA
HETATM    9  C9  UNL     1      21.885   2.473  50.287  1.00  0.00     0.058 A 
HETATM   10  C10 UNL     1      22.284   2.540  51.689  1.00  0.00     0.086 C 
HETATM   11  C11 UNL     1      21.536   3.750  52.283  1.00  0.00    -0.014 C 
HETATM   12  C12 UNL     1      21.307   4.831  51.501  1.00  0.00    -0.007 C 
HETATM   13  C13 UNL     1      21.239   5.792  50.391  1.00  0.00    -0.016 C 
HETATM   14  C14 UNL     1      21.735   5.380  49.204  1.00  0.00     0.061 C 
HETATM   15  C15 UNL     1      22.038   5.680  47.788  1.00  0.00    -0.001 C 
HETATM   16 BR1  UNL     1      22.035   7.001  46.432  1.00  0.00    -0.055 Br
HETATM   17  C16 UNL     1      22.536   4.600  47.094  1.00  0.00     0.048 C 
HETATM   18  C17 UNL     1      22.346   1.401  52.571  1.00  0.00     0.116 C 
HETATM   19  C18 UNL     1      21.949   0.058  52.008  1.00  0.00     0.193 C 
HETATM   20  O2  UNL     1      21.564  -0.760  53.069  1.00  0.00    -0.387 OA
HETATM   21  C19 UNL     1      22.506  -0.798  54.082  1.00  0.00     0.187 C 
HETATM   22  C20 UNL     1      23.786  -0.085  53.679  1.00  0.00     0.143 C 
HETATM   23  N4  UNL     1      23.564   1.253  53.292  1.00  0.00    -0.403 N 
HETATM   24  C21 UNL     1      24.733   1.970  52.937  1.00  0.00     0.119 C 
HETATM   25  C22 UNL     1      25.265   1.449  51.660  1.00  0.00     0.039 C 
HETATM   26  C23 UNL     1      26.367   2.108  50.942  1.00  0.00     0.127 C 
ENDROOT
BRANCH   1  27
HETATM   27  C3  UNL     1      26.006   4.740  49.956  1.00  0.00     0.176 A 
HETATM   28  C2  UNL     1      26.939   4.834  48.816  1.00  0.00     0.038 A 
HETATM   29  C1  UNL     1      26.250   5.969  48.870  1.00  0.00     0.235 A 
HETATM   30  O1  UNL     1      25.282   5.715  50.146  1.00  0.00    -0.349 OA
ENDBRANCH   1  27
TORSDOF 1
ENDMDL
MODEL 4
REMARK VINA RESULT:      -8.5      2.163      5.381
REMARK  1 active torsions:
REMARK  status: ('A' for Active; 'I' for Inactive)
REMARK    1  A    between atoms: C3_3  and  N1_5 
ROOT
HETATM    1  N1  UNL     1      20.789  -0.536  53.232  1.00  0.00    -0.354 N 
HETATM    2  C4  UNL     1      21.071   0.889  53.242  1.00  0.00     0.090 C 
HETATM    3  C5  UNL     1      21.587   1.494  52.146  1.00  0.00     0.033 C 
HETATM    4  C6  UNL     1      21.958   2.918  51.996  1.00  0.00     0.019 A 
HETATM    5  C7  UNL     1      20.955   3.715  51.866  1.00  0.00     0.071 A 
HETATM    6  N2  UNL     1      21.462   4.941  52.103  1.00  0.00    -0.241 NA
HETATM    7  C8  UNL     1      22.715   5.296  52.404  1.00  0.00     0.234 A 
HETATM    8  N3  UNL     1      23.686   4.323  52.499  1.00  0.00    -0.245 NA
HETATM    9  C9  UNL     1      23.293   3.050  52.277  1.00  0.00     0.058 A 
HETATM   10  C10 UNL     1      24.074   1.844  52.023  1.00  0.00     0.086 C 
HETATM   11  C11 UNL     1      24.311   1.808  50.501  1.00  0.00    -0.014 C 
HETATM   12  C12 UNL     1      23.351   2.284  49.674  1.00  0.00    -0.007 C 
HETATM   13  C13 UNL     1      22.129   2.871  49.105  1.00  0.00    -0.016 C 
HETATM   14  C14 UNL     1      21.215   3.332  49.986  1.00  0.00     0.061 C 
HETATM   15  C15 UNL     1      19.896   3.956  50.228  1.00  0.00    -0.001 C 
HETATM   16 BR1  UNL     1      18.293   4.587  49.442  1.00  0.00    -0.055 Br
HETATM   17  C16 UNL     1      19.652   4.219  51.558  1.00  0.00     0.048 C 
HETATM   18  C17 UNL     1      25.217   1.439  52.803  1.00  0.00     0.116 C 
HETATM   19  C18 UNL     1      25.643   2.337  53.939  1.00  0.00     0.193 C 
HETATM   20  O2  UNL     1      26.991   2.094  54.202  1.00  0.00    -0.387 OA
HETATM   21  C19 UNL     1      27.266   0.749  54.375  1.00  0.00     0.187 C 
HETATM   22  C20 UNL     1      25.994  -0.080  54.415  1.00  0.00     0.143 C 
HETATM   23  N4  UNL     1      25.195   0.093  53.266  1.00  0.00    -0.403 N 
HETATM   24  C21 UNL     1      24.011  -0.683  53.244  1.00  0.00     0.119 C 
HETATM   25  C22 UNL     1      23.065  -0.173  54.258  1.00  0.00     0.039 C 
HETATM   26  C23 UNL     1      21.678  -0.657  54.351  1.00  0.00     0.127 C 
ENDROOT
BRANCH   1  27
HETATM   27  C3  UNL     1      19.907  -0.230  52.181  1.00  0.00     0.176 A 
HETATM   28  C2  UNL     1      18.565  -0.555  52.704  1.00  0.00     0.038 A 
HETATM   29  C1  UNL     1      18.418  -0.107  51.462  1.00  0.00     0.235 A 
HETATM   30  O1  UNL     1      19.950   0.206  51.033  1.00  0.00    -0.349 OA
ENDBRANCH   1  27
TORSDOF 1
ENDMDL
MODEL 5
REMARK VINA RESULT:      -8.3      8.777     12.321
REMARK  1 active torsions:
REMARK  status: ('A' for Active; 'I' for Inactive)
REMARK    1  A    between atoms: C3_3  and  N1_5 
ROOT
HETATM    1  N1  UNL     1      31.827   8.495  44.173  1.00  0.00    -0.354 N 
HETATM    2  C4  UNL     1      30.870   7.728  44.953  1.00  0.00     0.090 C 
HETATM    3  C5  UNL     1      30.755   7.930  46.287  1.00  0.00     0.033 C 
HETATM    4  C6  UNL     1      29.861   7.222  47.229  1.00  0.00     0.019 A 
HETATM    5  C7  UNL     1      28.625   7.573  47.150  1.00  0.00     0.071 A 
HETATM    6  N2  UNL     1      27.953   6.599  47.795  1.00  0.00    -0.241 NA
HETATM    7  C8  UNL     1      28.422   5.503  48.400  1.00  0.00     0.234 A 
HETATM    8  N3  UNL     1      29.780   5.269  48.409  1.00  0.00    -0.245 NA
HETATM    9  C9  UNL     1      30.558   6.184  47.791  1.00  0.00     0.058 A 
HETATM   10  C10 UNL     1      32.000   6.400  47.847  1.00  0.00     0.086 C 
HETATM   11  C11 UNL     1      32.241   7.327  49.054  1.00  0.00    -0.014 C 
HETATM   12  C12 UNL     1      31.315   8.267  49.356  1.00  0.00    -0.007 C 
HETATM   13  C13 UNL     1      30.131   9.138  49.383  1.00  0.00    -0.016 C 
HETATM   14  C14 UNL     1      29.170   8.878  48.471  1.00  0.00     0.061 C 
HETATM   15  C15 UNL     1      27.861   9.230  47.878  1.00  0.00    -0.001 C 
HETATM   16 BR1  UNL     1      26.420  10.457  47.880  1.00  0.00    -0.055 Br
HETATM   17  C16 UNL     1      27.445   8.345  46.908  1.00  0.00     0.048 C 
HETATM   18  C17 UNL     1      32.983   5.354  47.708  1.00  0.00     0.116 C 
HETATM   19  C18 UNL     1      32.481   3.943  47.515  1.00  0.00     0.193 C 
HETATM   20  O2  UNL     1      33.483   3.067  47.930  1.00  0.00    -0.387 OA
HETATM   21  C19 UNL     1      34.708   3.344  47.348  1.00  0.00     0.187 C 
HETATM   22  C20 UNL     1      34.586   4.412  46.275  1.00  0.00     0.143 C 
HETATM   23  N4  UNL     1      34.014   5.607  46.759  1.00  0.00    -0.403 N 
HETATM   24  C21 UNL     1      33.907   6.645  45.802  1.00  0.00     0.119 C 
HETATM   25  C22 UNL     1      32.881   6.290  44.799  1.00  0.00     0.039 C 
HETATM   26  C23 UNL     1      32.415   7.246  43.782  1.00  0.00     0.127 C 
ENDROOT
BRANCH   1  27
HETATM   27  C3  UNL     1      31.093   9.615  44.602  1.00  0.00     0.176 A 
HETATM   28  C2  UNL     1      32.112  10.626  44.949  1.00  0.00     0.038 A 
HETATM   29  C1  UNL     1      30.917  11.161  45.175  1.00  0.00     0.235 A 
HETATM   30  O1  UNL     1      29.921   9.953  44.750  1.00  0.00    -0.349 OA
ENDBRANCH   1  27
TORSDOF 1
ENDMDL
MODEL 6
REMARK VINA RESULT:      -7.9      2.768      5.802
REMARK  1 active torsions:
REMARK  status: ('A' for Active; 'I' for Inactive)
REMARK    1  A    between atoms: C3_3  and  N1_5 
ROOT
HETATM    1  N1  UNL     1      24.439   0.943  52.869  1.00  0.00    -0.354 N 
HETATM    2  C4  UNL     1      23.470   1.981  52.562  1.00  0.00     0.090 C 
HETATM    3  C5  UNL     1      22.760   1.937  51.410  1.00  0.00     0.033 C 
HETATM    4  C6  UNL     1      21.763   2.920  50.932  1.00  0.00     0.019 A 
HETATM    5  C7  UNL     1      20.630   2.862  51.539  1.00  0.00     0.071 A 
HETATM    6  N2  UNL     1      20.017   4.022  51.228  1.00  0.00    -0.241 NA
HETATM    7  C8  UNL     1      20.449   5.029  50.463  1.00  0.00     0.234 A 
HETATM    8  N3  UNL     1      21.689   4.939  49.867  1.00  0.00    -0.245 NA
HETATM    9  C9  UNL     1      22.396   3.813  50.107  1.00  0.00     0.058 A 
HETATM   10  C10 UNL     1      23.577   3.272  49.442  1.00  0.00     0.086 C 
HETATM   11  C11 UNL     1      23.048   2.431  48.264  1.00  0.00    -0.014 C 
HETATM   12  C12 UNL     1      21.877   1.766  48.404  1.00  0.00    -0.007 C 
HETATM   13  C13 UNL     1      20.614   1.203  48.902  1.00  0.00    -0.016 C 
HETATM   14  C14 UNL     1      20.223   1.595  50.134  1.00  0.00     0.061 C 
HETATM   15  C15 UNL     1      19.241   1.505  51.237  1.00  0.00    -0.001 C 
HETATM   16 BR1  UNL     1      17.674   0.655  51.874  1.00  0.00    -0.055 Br
HETATM   17  C16 UNL     1      19.507   2.369  52.277  1.00  0.00     0.048 C 
HETATM   18  C17 UNL     1      24.755   4.041  49.128  1.00  0.00     0.116 C 
HETATM   19  C18 UNL     1      24.753   5.505  49.493  1.00  0.00     0.193 C 
HETATM   20  O2  UNL     1      25.675   6.157  48.675  1.00  0.00    -0.387 OA
HETATM   21  C19 UNL     1      26.917   5.548  48.679  1.00  0.00     0.187 C 
HETATM   22  C20 UNL     1      26.992   4.443  49.718  1.00  0.00     0.143 C 
HETATM   23  N4  UNL     1      25.989   3.466  49.547  1.00  0.00    -0.403 N 
HETATM   24  C21 UNL     1      26.036   2.397  50.475  1.00  0.00     0.119 C 
HETATM   25  C22 UNL     1      25.650   2.887  51.814  1.00  0.00     0.039 C 
HETATM   26  C23 UNL     1      25.430   1.977  52.949  1.00  0.00     0.127 C 
ENDROOT
BRANCH   1  27
HETATM   27  C3  UNL     1      23.337   0.070  52.815  1.00  0.00     0.176 A 
HETATM   28  C2  UNL     1      23.340  -0.626  54.117  1.00  0.00     0.038 A 
HETATM   29  C1  UNL     1      22.314  -1.090  53.412  1.00  0.00     0.235 A 
HETATM   30  O1  UNL     1      22.439  -0.241  52.036  1.00  0.00    -0.349 OA
ENDBRANCH   1  27
TORSDOF 1
ENDMDL
MODEL 7
REMARK VINA RESULT:      -7.8      3.192      5.764
REMARK  1 active torsions:
REMARK  status: ('A' for Active; 'I' for Inactive)
REMARK    1  A    between atoms: C3_3  and  N1_5 
ROOT
HETATM    1  N1  UNL     1      24.553   4.411  51.337  1.00  0.00    -0.354 N 
HETATM    2  C4  UNL     1      23.132   4.230  51.583  1.00  0.00     0.090 C 
HETATM    3  C5  UNL     1      22.455   3.222  50.983  1.00  0.00     0.033 C 
HETATM    4  C6  UNL     1      21.013   2.915  51.099  1.00  0.00     0.019 A 
HETATM    5  C7  UNL     1      20.676   2.371  52.216  1.00  0.00     0.071 A 
HETATM    6  N2  UNL     1      19.336   2.503  52.268  1.00  0.00    -0.241 NA
HETATM    7  C8  UNL     1      18.504   3.061  51.383  1.00  0.00     0.234 A 
HETATM    8  N3  UNL     1      19.018   3.596  50.221  1.00  0.00    -0.245 NA
HETATM    9  C9  UNL     1      20.357   3.518  50.058  1.00  0.00     0.058 A 
HETATM   10  C10 UNL     1      21.183   3.716  48.871  1.00  0.00     0.086 C 
HETATM   11  C11 UNL     1      21.233   2.350  48.160  1.00  0.00    -0.014 C 
HETATM   12  C12 UNL     1      21.224   1.220  48.905  1.00  0.00    -0.007 C 
HETATM   13  C13 UNL     1      21.196   0.241  50.001  1.00  0.00    -0.016 C 
HETATM   14  C14 UNL     1      21.062   0.739  51.250  1.00  0.00     0.061 C 
HETATM   15  C15 UNL     1      20.980   0.493  52.706  1.00  0.00    -0.001 C 
HETATM   16 BR1  UNL     1      21.073  -0.802  54.084  1.00  0.00    -0.055 Br
HETATM   17  C16 UNL     1      20.737   1.633  53.440  1.00  0.00     0.048 C 
HETATM   18  C17 UNL     1      21.059   4.838  47.974  1.00  0.00     0.116 C 
HETATM   19  C18 UNL     1      19.988   5.859  48.274  1.00  0.00     0.193 C 
HETATM   20  O2  UNL     1      19.673   6.518  47.086  1.00  0.00    -0.387 OA
HETATM   21  C19 UNL     1      20.791   7.008  46.436  1.00  0.00     0.187 C 
HETATM   22  C20 UNL     1      22.041   6.856  47.285  1.00  0.00     0.143 C 
HETATM   23  N4  UNL     1      22.272   5.521  47.679  1.00  0.00    -0.403 N 
HETATM   24  C21 UNL     1      23.445   5.324  48.449  1.00  0.00     0.119 C 
HETATM   25  C22 UNL     1      23.268   5.929  49.785  1.00  0.00     0.039 C 
HETATM   26  C23 UNL     1      24.241   5.732  50.871  1.00  0.00     0.127 C 
ENDROOT
BRANCH   1  27
HETATM   27  C3  UNL     1      24.686   3.122  51.882  1.00  0.00     0.176 A 
HETATM   28  C2  UNL     1      25.752   2.481  51.086  1.00  0.00     0.038 A 
HETATM   29  C1  UNL     1      25.340   1.602  51.993  1.00  0.00     0.235 A 
HETATM   30  O1  UNL     1      24.193   2.439  52.777  1.00  0.00    -0.349 OA
ENDBRANCH   1  27
TORSDOF 1
ENDMDL
MODEL 8
REMARK VINA RESULT:      -7.8      2.817      5.586
REMARK  1 active torsions:
REMARK  status: ('A' for Active; 'I' for Inactive)
REMARK    1  A    between atoms: C3_3  and  N1_5 
ROOT
HETATM    1  N1  UNL     1      19.292   2.664  51.490  1.00  0.00    -0.354 N 
HETATM    2  C4  UNL     1      20.223   3.773  51.598  1.00  0.00     0.090 C 
HETATM    3  C5  UNL     1      21.019   4.105  50.554  1.00  0.00     0.033 C 
HETATM    4  C6  UNL     1      22.036   5.178  50.505  1.00  0.00     0.019 A 
HETATM    5  C7  UNL     1      21.548   6.365  50.407  1.00  0.00     0.071 A 
HETATM    6  N2  UNL     1      22.570   7.181  50.734  1.00  0.00    -0.241 NA
HETATM    7  C8  UNL     1      23.823   6.872  51.081  1.00  0.00     0.234 A 
HETATM    8  N3  UNL     1      24.201   5.547  51.132  1.00  0.00    -0.245 NA
HETATM    9  C9  UNL     1      23.255   4.635  50.819  1.00  0.00     0.058 A 
HETATM   10  C10 UNL     1      23.371   3.215  50.503  1.00  0.00     0.086 C 
HETATM   11  C11 UNL     1      23.635   3.142  48.986  1.00  0.00    -0.014 C 
HETATM   12  C12 UNL     1      23.064   4.062  48.174  1.00  0.00    -0.007 C 
HETATM   13  C13 UNL     1      22.305   5.192  47.621  1.00  0.00    -0.016 C 
HETATM   14  C14 UNL     1      21.683   5.995  48.512  1.00  0.00     0.061 C 
HETATM   15  C15 UNL     1      20.817   7.165  48.769  1.00  0.00    -0.001 C 
HETATM   16 BR1  UNL     1      19.756   8.529  47.995  1.00  0.00    -0.055 Br
HETATM   17  C16 UNL     1      20.665   7.450  50.108  1.00  0.00     0.048 C 
HETATM   18  C17 UNL     1      24.139   2.271  51.277  1.00  0.00     0.116 C 
HETATM   19  C18 UNL     1      24.888   2.796  52.477  1.00  0.00     0.193 C 
HETATM   20  O2  UNL     1      25.938   1.920  52.749  1.00  0.00    -0.387 OA
HETATM   21  C19 UNL     1      25.524   0.603  52.840  1.00  0.00     0.187 C 
HETATM   22  C20 UNL     1      24.010   0.491  52.801  1.00  0.00     0.143 C 
HETATM   23  N4  UNL     1      23.450   1.083  51.650  1.00  0.00    -0.403 N 
HETATM   24  C21 UNL     1      22.041   0.978  51.554  1.00  0.00     0.119 C 
HETATM   25  C22 UNL     1      21.409   1.833  52.581  1.00  0.00     0.039 C 
HETATM   26  C23 UNL     1      19.958   2.075  52.616  1.00  0.00     0.127 C 
ENDROOT
BRANCH   1  27
HETATM   27  C3  UNL     1      18.718   3.408  50.444  1.00  0.00     0.176 A 
HETATM   28  C2  UNL     1      18.454   2.423  49.376  1.00  0.00     0.038 A 
HETATM   29  C1  UNL     1      18.054   3.612  48.938  1.00  0.00     0.235 A 
HETATM   30  O1  UNL     1      18.398   4.570  50.201  1.00  0.00    -0.349 OA
ENDBRANCH   1  27
TORSDOF 1
ENDMDL
MODEL 9
REMARK VINA RESULT:      -7.7      2.620      4.971
REMARK  1 active torsions:
REMARK  status: ('A' for Active; 'I' for Inactive)
REMARK    1  A    between atoms: C3_3  and  N1_5 
ROOT
HETATM    1  N1  UNL     1      18.126   4.702  50.084  1.00  0.00    -0.354 N 
HETATM    2  C4  UNL     1      19.359   4.433  50.805  1.00  0.00     0.090 C 
HETATM    3  C5  UNL     1      20.333   3.681  50.241  1.00  0.00     0.033 C 
HETATM    4  C6  UNL     1      21.626   3.289  50.842  1.00  0.00     0.019 A 
HETATM    5  C7  UNL     1      22.497   4.236  50.891  1.00  0.00     0.071 A 
HETATM    6  N2  UNL     1      23.427   3.800  51.763  1.00  0.00    -0.241 NA
HETATM    7  C8  UNL     1      23.478   2.650  52.442  1.00  0.00     0.234 A 
HETATM    8  N3  UNL     1      22.471   1.724  52.276  1.00  0.00    -0.245 NA
HETATM    9  C9  UNL     1      21.480   2.054  51.418  1.00  0.00     0.058 A 
HETATM   10  C10 UNL     1      20.441   1.233  50.805  1.00  0.00     0.086 C 
HETATM   11  C11 UNL     1      21.066   0.653  49.521  1.00  0.00    -0.014 C 
HETATM   12  C12 UNL     1      21.959   1.399  48.829  1.00  0.00    -0.007 C 
HETATM   13  C13 UNL     1      22.862   2.459  48.357  1.00  0.00    -0.016 C 
HETATM   14  C14 UNL     1      22.971   3.552  49.144  1.00  0.00     0.061 C 
HETATM   15  C15 UNL     1      23.553   4.893  49.370  1.00  0.00    -0.001 C 
HETATM   16 BR1  UNL     1      24.631   6.274  48.653  1.00  0.00    -0.055 Br
HETATM   17  C16 UNL     1      23.217   5.436  50.590  1.00  0.00     0.048 C 
HETATM   18  C17 UNL     1      19.614   0.298  51.526  1.00  0.00     0.116 C 
HETATM   19  C18 UNL     1      19.859   0.145  53.008  1.00  0.00     0.193 C 
HETATM   20  O2  UNL     1      19.386  -1.107  53.399  1.00  0.00    -0.387 OA
HETATM   21  C19 UNL     1      18.086  -1.338  52.987  1.00  0.00     0.187 C 
HETATM   22  C20 UNL     1      17.463  -0.092  52.381  1.00  0.00     0.143 C 
HETATM   23  N4  UNL     1      18.214   0.423  51.303  1.00  0.00    -0.403 N 
HETATM   24  C21 UNL     1      17.657   1.569  50.685  1.00  0.00     0.119 C 
HETATM   25  C22 UNL     1      17.755   2.723  51.603  1.00  0.00     0.039 C 
HETATM   26  C23 UNL     1      17.426   4.093  51.178  1.00  0.00     0.127 C 
ENDROOT
BRANCH   1  27
HETATM   27  C3  UNL     1      18.961   5.321  49.136  1.00  0.00     0.176 A 
HETATM   28  C2  UNL     1      18.402   4.930  47.827  1.00  0.00     0.038 A 
HETATM   29  C1  UNL     1      19.461   5.701  47.602  1.00  0.00     0.235 A 
HETATM   30  O1  UNL     1      19.952   6.047  49.108  1.00  0.00    -0.349 OA
ENDBRANCH   1  27
TORSDOF 1
ENDMDL
