MODEL 1
REMARK VINA RESULT:      -9.2      0.000      0.000
REMARK  2 active torsions:
REMARK  status: ('A' for Active; 'I' for Inactive)
REMARK    1  A    between atoms: C6_7  and  N1_8 
REMARK    2  A    between atoms: N1_8  and  C7_9 
ROOT
HETATM    1  C7  UNL     1      24.211   3.166  50.751  1.00  0.00     0.137 C 
HETATM    2  C8  UNL     1      23.128   2.143  50.512  1.00  0.00     0.030 C 
HETATM    3  C9  UNL     1      22.668   1.470  51.587  1.00  0.00     0.037 C 
HETATM    4  C10 UNL     1      22.537   2.391  52.777  1.00  0.00     0.086 C 
HETATM    5  C11 UNL     1      23.961   2.829  53.064  1.00  0.00    -0.014 C 
HETATM    6  C12 UNL     1      24.842   2.759  52.034  1.00  0.00    -0.029 C 
HETATM    7  C13 UNL     1      26.273   2.337  52.077  1.00  0.00     0.310 C 
HETATM    8  N2  UNL     1      26.652   1.768  53.344  1.00  0.00     0.128 N 
HETATM    9  C14 UNL     1      26.047   0.493  53.632  1.00  0.00     0.316 C 
HETATM   10  C15 UNL     1      26.183   0.149  55.079  1.00  0.00     0.197 C 
HETATM   11  N3  UNL     1      27.470  -0.514  54.816  1.00  0.00    -0.180 NA
HETATM   12  O1  UNL     1      28.414   0.344  54.308  1.00  0.00    -0.301 OA
HETATM   13  C16 UNL     1      28.398  -0.255  53.028  1.00  0.00     0.221 C 
HETATM   14  C17 UNL     1      27.012  -0.655  53.445  1.00  0.00     0.181 C 
HETATM   15  O2  UNL     1      24.871   0.233  52.993  1.00  0.00    -0.233 OA
HETATM   16  N4  UNL     1      23.816  -0.031  53.761  1.00  0.00    -0.257 N 
HETATM   17  C18 UNL     1      22.830  -0.537  52.850  1.00  0.00     0.230 C 
HETATM   18  N5  UNL     1      22.290   0.105  51.861  1.00  0.00    -0.247 NA
HETATM   19  H13 UNL     1      26.643   2.432  54.122  1.00  0.00     0.320 HD
HETATM   20  H19 UNL     1      23.683   0.089  54.799  1.00  0.00     0.195 HD
ENDROOT
BRANCH   1  21
HETATM   21  N1  UNL     1      25.087   3.357  49.663  1.00  0.00    -0.377 N 
HETATM   22  H5  UNL     1      25.144   2.471  49.112  1.00  0.00     0.160 HD
BRANCH  21  23
HETATM   23  C6  UNL     1      25.862   4.436  49.186  1.00  0.00     0.046 A 
HETATM   24  C1  UNL     1      25.385   5.679  48.835  1.00  0.00     0.037 A 
HETATM   25 BR1  UNL     1      23.529   6.057  49.028  1.00  0.00    -0.049 Br
HETATM   26  C2  UNL     1      26.151   6.718  48.354  1.00  0.00     0.021 A 
HETATM   27  C3  UNL     1      27.494   6.448  48.233  1.00  0.00     0.002 A 
HETATM   28  C4  UNL     1      28.065   5.241  48.556  1.00  0.00     0.002 A 
HETATM   29  C5  UNL     1      27.220   4.268  49.027  1.00  0.00     0.030 A 
ENDBRANCH  21  23
ENDBRANCH   1  21
TORSDOF 2
ENDMDL
MODEL 2
REMARK VINA RESULT:      -8.7      1.847      4.094
REMARK  2 active torsions:
REMARK  status: ('A' for Active; 'I' for Inactive)
REMARK    1  A    between atoms: C6_7  and  N1_8 
REMARK    2  A    between atoms: N1_8  and  C7_9 
ROOT
HETATM    1  C7  UNL     1      25.952   1.796  52.026  1.00  0.00     0.137 C 
HETATM    2  C8  UNL     1      26.751   1.827  53.307  1.00  0.00     0.030 C 
HETATM    3  C9  UNL     1      26.790   0.693  54.036  1.00  0.00     0.037 C 
HETATM    4  C10 UNL     1      26.919  -0.514  53.138  1.00  0.00     0.086 C 
HETATM    5  C11 UNL     1      25.635  -0.513  52.330  1.00  0.00    -0.014 C 
HETATM    6  C12 UNL     1      24.991   0.676  52.205  1.00  0.00    -0.029 C 
HETATM    7  C13 UNL     1      23.522   0.933  52.234  1.00  0.00     0.310 C 
HETATM    8  N2  UNL     1      22.759  -0.221  52.635  1.00  0.00     0.128 N 
HETATM    9  C14 UNL     1      22.933  -0.605  54.012  1.00  0.00     0.316 C 
HETATM   10  C15 UNL     1      22.423  -1.987  54.254  1.00  0.00     0.197 C 
HETATM   11  N3  UNL     1      21.086  -1.456  54.565  1.00  0.00    -0.180 NA
HETATM   12  O1  UNL     1      20.526  -0.781  53.508  1.00  0.00    -0.301 OA
HETATM   13  C16 UNL     1      20.639   0.478  54.139  1.00  0.00     0.221 C 
HETATM   14  C17 UNL     1      21.757  -0.205  54.873  1.00  0.00     0.181 C 
HETATM   15  O2  UNL     1      24.103  -0.213  54.597  1.00  0.00    -0.233 OA
HETATM   16  N4  UNL     1      24.873  -1.176  55.099  1.00  0.00    -0.257 N 
HETATM   17  C18 UNL     1      25.852  -0.476  55.881  1.00  0.00     0.230 C 
HETATM   18  N5  UNL     1      26.730   0.371  55.441  1.00  0.00    -0.247 NA
HETATM   19  H13 UNL     1      22.787  -0.995  51.968  1.00  0.00     0.320 HD
HETATM   20  H19 UNL     1      24.822  -2.221  54.979  1.00  0.00     0.195 HD
ENDROOT
BRANCH   1  21
HETATM   21  N1  UNL     1      25.396   3.037  51.653  1.00  0.00    -0.377 N 
HETATM   22  H5  UNL     1      24.603   3.261  52.296  1.00  0.00     0.160 HD
BRANCH  21  23
HETATM   23  C6  UNL     1      25.668   3.988  50.647  1.00  0.00     0.046 A 
HETATM   24  C1  UNL     1      24.901   5.092  50.350  1.00  0.00     0.037 A 
HETATM   25 BR1  UNL     1      23.342   5.451  51.383  1.00  0.00    -0.049 Br
HETATM   26  C2  UNL     1      25.169   6.003  49.353  1.00  0.00     0.021 A 
HETATM   27  C3  UNL     1      26.306   5.750  48.621  1.00  0.00     0.002 A 
HETATM   28  C4  UNL     1      27.136   4.678  48.838  1.00  0.00     0.002 A 
HETATM   29  C5  UNL     1      26.785   3.826  49.855  1.00  0.00     0.030 A 
ENDBRANCH  21  23
ENDBRANCH   1  21
TORSDOF 2
ENDMDL
MODEL 3
REMARK VINA RESULT:      -8.5      3.163      6.248
REMARK  2 active torsions:
REMARK  status: ('A' for Active; 'I' for Inactive)
REMARK    1  A    between atoms: C6_7  and  N1_8 
REMARK    2  A    between atoms: N1_8  and  C7_9 
ROOT
HETATM    1  C7  UNL     1      24.209   0.962  51.912  1.00  0.00     0.137 C 
HETATM    2  C8  UNL     1      23.019   0.937  52.839  1.00  0.00     0.030 C 
HETATM    3  C9  UNL     1      21.860   1.439  52.366  1.00  0.00     0.037 C 
HETATM    4  C10 UNL     1      21.656   1.042  50.923  1.00  0.00     0.086 C 
HETATM    5  C11 UNL     1      22.800   1.716  50.189  1.00  0.00    -0.014 C 
HETATM    6  C12 UNL     1      23.899   2.027  50.922  1.00  0.00    -0.029 C 
HETATM    7  C13 UNL     1      24.749   3.250  50.830  1.00  0.00     0.310 C 
HETATM    8  N2  UNL     1      24.179   4.266  49.983  1.00  0.00     0.128 N 
HETATM    9  C14 UNL     1      22.984   4.878  50.504  1.00  0.00     0.316 C 
HETATM   10  C15 UNL     1      22.257   5.631  49.438  1.00  0.00     0.197 C 
HETATM   11  N3  UNL     1      23.025   6.847  49.753  1.00  0.00    -0.180 NA
HETATM   12  O1  UNL     1      24.375   6.684  49.564  1.00  0.00    -0.301 OA
HETATM   13  C16 UNL     1      24.664   6.732  50.946  1.00  0.00     0.221 C 
HETATM   14  C17 UNL     1      23.243   6.258  51.063  1.00  0.00     0.181 C 
HETATM   15  O2  UNL     1      22.272   4.132  51.397  1.00  0.00    -0.233 OA
HETATM   16  N4  UNL     1      21.004   3.874  51.086  1.00  0.00    -0.257 N 
HETATM   17  C18 UNL     1      20.441   3.345  52.296  1.00  0.00     0.230 C 
HETATM   18  N5  UNL     1      20.797   2.256  52.901  1.00  0.00    -0.247 NA
HETATM   19  H13 UNL     1      24.133   4.011  48.994  1.00  0.00     0.320 HD
HETATM   20  H19 UNL     1      20.485   4.005  50.179  1.00  0.00     0.195 HD
ENDROOT
BRANCH   1  21
HETATM   21  N1  UNL     1      25.456   1.065  52.562  1.00  0.00    -0.377 N 
HETATM   22  H5  UNL     1      25.559   2.030  52.950  1.00  0.00     0.160 HD
BRANCH  21  23
HETATM   23  C6  UNL     1      26.537   0.187  52.788  1.00  0.00     0.046 A 
HETATM   24  C1  UNL     1      27.803   0.550  53.189  1.00  0.00     0.037 A 
HETATM   25 BR1  UNL     1      28.183   2.385  53.531  1.00  0.00    -0.049 Br
HETATM   26  C2  UNL     1      28.855  -0.316  53.388  1.00  0.00     0.021 A 
HETATM   27  C3  UNL     1      28.571  -1.642  53.157  1.00  0.00     0.002 A 
HETATM   28  C4  UNL     1      27.342  -2.105  52.756  1.00  0.00     0.002 A 
HETATM   29  C5  UNL     1      26.357  -1.164  52.584  1.00  0.00     0.030 A 
ENDBRANCH  21  23
ENDBRANCH   1  21
TORSDOF 2
ENDMDL
MODEL 4
REMARK VINA RESULT:      -8.3      3.223      5.785
REMARK  2 active torsions:
REMARK  status: ('A' for Active; 'I' for Inactive)
REMARK    1  A    between atoms: C6_7  and  N1_8 
REMARK    2  A    between atoms: N1_8  and  C7_9 
ROOT
HETATM    1  C7  UNL     1      25.670   2.888  51.409  1.00  0.00     0.137 C 
HETATM    2  C8  UNL     1      25.430   3.157  49.944  1.00  0.00     0.030 C 
HETATM    3  C9  UNL     1      24.293   3.804  49.615  1.00  0.00     0.037 C 
HETATM    4  C10 UNL     1      24.001   4.906  50.605  1.00  0.00     0.086 C 
HETATM    5  C11 UNL     1      23.769   4.175  51.914  1.00  0.00    -0.014 C 
HETATM    6  C12 UNL     1      24.321   2.941  52.032  1.00  0.00    -0.029 C 
HETATM    7  C13 UNL     1      23.734   1.729  52.676  1.00  0.00     0.310 C 
HETATM    8  N2  UNL     1      22.346   1.897  53.024  1.00  0.00     0.128 N 
HETATM    9  C14 UNL     1      21.454   1.990  51.897  1.00  0.00     0.316 C 
HETATM   10  C15 UNL     1      20.122   2.524  52.310  1.00  0.00     0.197 C 
HETATM   11  N3  UNL     1      19.643   1.160  52.584  1.00  0.00    -0.180 NA
HETATM   12  O1  UNL     1      20.371   0.530  53.563  1.00  0.00    -0.301 OA
HETATM   13  C16 UNL     1      20.962  -0.382  52.660  1.00  0.00     0.221 C 
HETATM   14  C17 UNL     1      20.680   0.713  51.671  1.00  0.00     0.181 C 
HETATM   15  O2  UNL     1      22.012   2.420  50.729  1.00  0.00    -0.233 OA
HETATM   16  N4  UNL     1      21.483   3.510  50.177  1.00  0.00    -0.257 N 
HETATM   17  C18 UNL     1      22.053   3.555  48.861  1.00  0.00     0.230 C 
HETATM   18  N5  UNL     1      23.308   3.685  48.567  1.00  0.00    -0.247 NA
HETATM   19  H13 UNL     1      22.179   2.585  53.762  1.00  0.00     0.320 HD
HETATM   20  H19 UNL     1      20.804   4.212  50.572  1.00  0.00     0.195 HD
ENDROOT
BRANCH   1  21
HETATM   21  N1  UNL     1      26.431   1.731  51.676  1.00  0.00    -0.377 N 
HETATM   22  H5  UNL     1      26.191   0.997  50.973  1.00  0.00     0.160 HD
BRANCH  21  23
HETATM   23  C6  UNL     1      27.397   1.376  52.641  1.00  0.00     0.046 A 
HETATM   24  C1  UNL     1      27.619   0.109  53.132  1.00  0.00     0.037 A 
HETATM   25 BR1  UNL     1      26.595  -1.348  52.456  1.00  0.00    -0.049 Br
HETATM   26  C2  UNL     1      28.553  -0.222  54.089  1.00  0.00     0.021 A 
HETATM   27  C3  UNL     1      29.303   0.829  54.561  1.00  0.00     0.002 A 
HETATM   28  C4  UNL     1      29.159   2.127  54.135  1.00  0.00     0.002 A 
HETATM   29  C5  UNL     1      28.201   2.357  53.180  1.00  0.00     0.030 A 
ENDBRANCH  21  23
ENDBRANCH   1  21
TORSDOF 2
ENDMDL
MODEL 5
REMARK VINA RESULT:      -8.3      4.248      7.892
REMARK  2 active torsions:
REMARK  status: ('A' for Active; 'I' for Inactive)
REMARK    1  A    between atoms: C6_7  and  N1_8 
REMARK    2  A    between atoms: N1_8  and  C7_9 
ROOT
HETATM    1  C7  UNL     1      25.860   5.881  49.466  1.00  0.00     0.137 C 
HETATM    2  C8  UNL     1      25.723   7.124  50.311  1.00  0.00     0.030 C 
HETATM    3  C9  UNL     1      26.210   8.273  49.799  1.00  0.00     0.037 C 
HETATM    4  C10 UNL     1      25.907   8.370  48.323  1.00  0.00     0.086 C 
HETATM    5  C11 UNL     1      26.675   7.214  47.711  1.00  0.00    -0.014 C 
HETATM    6  C12 UNL     1      26.978   6.177  48.532  1.00  0.00    -0.029 C 
HETATM    7  C13 UNL     1      28.237   5.378  48.577  1.00  0.00     0.310 C 
HETATM    8  N2  UNL     1      29.286   5.939  47.765  1.00  0.00     0.128 N 
HETATM    9  C14 UNL     1      29.813   7.189  48.249  1.00  0.00     0.316 C 
HETATM   10  C15 UNL     1      30.609   7.881  47.191  1.00  0.00     0.197 C 
HETATM   11  N3  UNL     1      31.829   7.189  47.635  1.00  0.00    -0.180 NA
HETATM   12  O1  UNL     1      31.734   5.824  47.523  1.00  0.00    -0.301 OA
HETATM   13  C16 UNL     1      31.696   5.623  48.921  1.00  0.00     0.221 C 
HETATM   14  C17 UNL     1      31.160   7.026  48.914  1.00  0.00     0.181 C 
HETATM   15  O2  UNL     1      28.978   7.921  49.042  1.00  0.00    -0.233 OA
HETATM   16  N4  UNL     1      28.692   9.155  48.633  1.00  0.00    -0.257 N 
HETATM   17  C18 UNL     1      28.059   9.767  49.766  1.00  0.00     0.230 C 
HETATM   18  N5  UNL     1      26.945   9.401  50.319  1.00  0.00    -0.247 NA
HETATM   19  H13 UNL     1      29.099   5.912  46.760  1.00  0.00     0.320 HD
HETATM   20  H19 UNL     1      28.866   9.623  47.705  1.00  0.00     0.195 HD
ENDROOT
BRANCH   1  21
HETATM   21  N1  UNL     1      25.967   4.682  50.201  1.00  0.00    -0.377 N 
HETATM   22  H5  UNL     1      26.945   4.586  50.554  1.00  0.00     0.160 HD
BRANCH  21  23
HETATM   23  C6  UNL     1      25.078   3.641  50.541  1.00  0.00     0.046 A 
HETATM   24  C1  UNL     1      25.378   2.545  51.319  1.00  0.00     0.037 A 
HETATM   25 BR1  UNL     1      27.120   2.383  52.072  1.00  0.00    -0.049 Br
HETATM   26  C2  UNL     1      24.506   1.525  51.628  1.00  0.00     0.021 A 
HETATM   27  C3  UNL     1      23.244   1.654  51.097  1.00  0.00     0.002 A 
HETATM   28  C4  UNL     1      22.847   2.708  50.311  1.00  0.00     0.002 A 
HETATM   29  C5  UNL     1      23.788   3.675  50.058  1.00  0.00     0.030 A 
ENDBRANCH  21  23
ENDBRANCH   1  21
TORSDOF 2
ENDMDL
MODEL 6
REMARK VINA RESULT:      -8.3      3.450      7.349
REMARK  2 active torsions:
REMARK  status: ('A' for Active; 'I' for Inactive)
REMARK    1  A    between atoms: C6_7  and  N1_8 
REMARK    2  A    between atoms: N1_8  and  C7_9 
ROOT
HETATM    1  C7  UNL     1      22.942   1.143  52.477  1.00  0.00     0.137 C 
HETATM    2  C8  UNL     1      24.349   0.657  52.231  1.00  0.00     0.030 C 
HETATM    3  C9  UNL     1      25.331   1.582  52.239  1.00  0.00     0.037 C 
HETATM    4  C10 UNL     1      25.101   2.594  53.337  1.00  0.00     0.086 C 
HETATM    5  C11 UNL     1      23.806   3.279  52.944  1.00  0.00    -0.014 C 
HETATM    6  C12 UNL     1      22.972   2.588  52.126  1.00  0.00    -0.029 C 
HETATM    7  C13 UNL     1      22.153   3.111  50.993  1.00  0.00     0.310 C 
HETATM    8  N2  UNL     1      22.471   4.475  50.656  1.00  0.00     0.128 N 
HETATM    9  C14 UNL     1      23.776   4.658  50.075  1.00  0.00     0.316 C 
HETATM   10  C15 UNL     1      24.177   6.097  50.097  1.00  0.00     0.197 C 
HETATM   11  N3  UNL     1      23.554   6.306  48.779  1.00  0.00    -0.180 NA
HETATM   12  O1  UNL     1      22.205   6.054  48.785  1.00  0.00    -0.301 OA
HETATM   13  C16 UNL     1      22.329   4.886  48.000  1.00  0.00     0.221 C 
HETATM   14  C17 UNL     1      23.714   4.876  48.581  1.00  0.00     0.181 C 
HETATM   15  O2  UNL     1      24.703   3.703  50.377  1.00  0.00    -0.233 OA
HETATM   16  N4  UNL     1      25.822   4.119  50.966  1.00  0.00    -0.257 N 
HETATM   17  C18 UNL     1      26.701   2.987  50.898  1.00  0.00     0.230 C 
HETATM   18  N5  UNL     1      26.517   1.832  51.455  1.00  0.00    -0.247 NA
HETATM   19  H13 UNL     1      22.224   5.155  51.378  1.00  0.00     0.320 HD
HETATM   20  H19 UNL     1      26.058   5.050  51.399  1.00  0.00     0.195 HD
ENDROOT
BRANCH   1  21
HETATM   21  N1  UNL     1      21.939   0.374  51.852  1.00  0.00    -0.377 N 
HETATM   22  H5  UNL     1      22.300   0.024  50.936  1.00  0.00     0.160 HD
BRANCH  21  23
HETATM   23  C6  UNL     1      20.620  -0.002  52.185  1.00  0.00     0.046 A 
HETATM   24  C1  UNL     1      20.236  -0.680  53.320  1.00  0.00     0.037 A 
HETATM   25 BR1  UNL     1      21.549  -1.143  54.620  1.00  0.00    -0.049 Br
HETATM   26  C2  UNL     1      18.947  -1.057  53.624  1.00  0.00     0.021 A 
HETATM   27  C3  UNL     1      18.000  -0.705  52.692  1.00  0.00     0.002 A 
HETATM   28  C4  UNL     1      18.281  -0.029  51.530  1.00  0.00     0.002 A 
HETATM   29  C5  UNL     1      19.596   0.303  51.315  1.00  0.00     0.030 A 
ENDBRANCH  21  23
ENDBRANCH   1  21
TORSDOF 2
ENDMDL
MODEL 7
REMARK VINA RESULT:      -8.0      3.846      6.942
REMARK  2 active torsions:
REMARK  status: ('A' for Active; 'I' for Inactive)
REMARK    1  A    between atoms: C6_7  and  N1_8 
REMARK    2  A    between atoms: N1_8  and  C7_9 
ROOT
HETATM    1  C7  UNL     1      22.312   1.177  51.803  1.00  0.00     0.137 C 
HETATM    2  C8  UNL     1      21.325   1.906  52.682  1.00  0.00     0.030 C 
HETATM    3  C9  UNL     1      20.077   2.072  52.199  1.00  0.00     0.037 C 
HETATM    4  C10 UNL     1      19.614   0.830  51.475  1.00  0.00     0.086 C 
HETATM    5  C11 UNL     1      20.566   0.711  50.300  1.00  0.00    -0.014 C 
HETATM    6  C12 UNL     1      21.773   1.320  50.425  1.00  0.00    -0.029 C 
HETATM    7  C13 UNL     1      22.538   2.065  49.383  1.00  0.00     0.310 C 
HETATM    8  N2  UNL     1      21.774   2.296  48.184  1.00  0.00     0.128 N 
HETATM    9  C14 UNL     1      20.679   3.218  48.341  1.00  0.00     0.316 C 
HETATM   10  C15 UNL     1      19.730   3.124  47.191  1.00  0.00     0.197 C 
HETATM   11  N3  UNL     1      20.493   4.147  46.458  1.00  0.00    -0.180 NA
HETATM   12  O1  UNL     1      21.787   3.762  46.206  1.00  0.00    -0.301 OA
HETATM   13  C16 UNL     1      22.336   4.699  47.111  1.00  0.00     0.221 C 
HETATM   14  C17 UNL     1      20.984   4.577  47.756  1.00  0.00     0.181 C 
HETATM   15  O2  UNL     1      20.184   3.347  49.606  1.00  0.00    -0.233 OA
HETATM   16  N4  UNL     1      18.891   3.078  49.774  1.00  0.00    -0.257 N 
HETATM   17  C18 UNL     1      18.595   3.565  51.091  1.00  0.00     0.230 C 
HETATM   18  N5  UNL     1      19.106   3.140  52.204  1.00  0.00    -0.247 NA
HETATM   19  H13 UNL     1      21.549   1.447  47.661  1.00  0.00     0.320 HD
HETATM   20  H19 UNL     1      18.202   2.615  49.125  1.00  0.00     0.195 HD
ENDROOT
BRANCH   1  21
HETATM   21  N1  UNL     1      23.656   1.563  51.986  1.00  0.00    -0.377 N 
HETATM   22  H5  UNL     1      23.744   2.588  51.800  1.00  0.00     0.160 HD
BRANCH  21  23
HETATM   23  C6  UNL     1      24.844   0.893  52.347  1.00  0.00     0.046 A 
HETATM   24  C1  UNL     1      26.113   1.214  51.921  1.00  0.00     0.037 A 
HETATM   25 BR1  UNL     1      26.363   2.714  50.775  1.00  0.00    -0.049 Br
HETATM   26  C2  UNL     1      27.264   0.540  52.267  1.00  0.00     0.021 A 
HETATM   27  C3  UNL     1      27.082  -0.532  53.109  1.00  0.00     0.002 A 
HETATM   28  C4  UNL     1      25.858  -0.932  53.589  1.00  0.00     0.002 A 
HETATM   29  C5  UNL     1      24.771  -0.197  53.187  1.00  0.00     0.030 A 
ENDBRANCH  21  23
ENDBRANCH   1  21
TORSDOF 2
ENDMDL
MODEL 8
REMARK VINA RESULT:      -8.0      8.273     10.785
REMARK  2 active torsions:
REMARK  status: ('A' for Active; 'I' for Inactive)
REMARK    1  A    between atoms: C6_7  and  N1_8 
REMARK    2  A    between atoms: N1_8  and  C7_9 
ROOT
HETATM    1  C7  UNL     1      32.443   7.900  47.764  1.00  0.00     0.137 C 
HETATM    2  C8  UNL     1      32.174   7.981  46.281  1.00  0.00     0.030 C 
HETATM    3  C9  UNL     1      31.622   9.121  45.817  1.00  0.00     0.037 C 
HETATM    4  C10 UNL     1      32.221  10.324  46.506  1.00  0.00     0.086 C 
HETATM    5  C11 UNL     1      31.817  10.158  47.958  1.00  0.00    -0.014 C 
HETATM    6  C12 UNL     1      31.524   8.899  48.372  1.00  0.00    -0.029 C 
HETATM    7  C13 UNL     1      30.442   8.466  49.305  1.00  0.00     0.310 C 
HETATM    8  N2  UNL     1      29.517   9.525  49.619  1.00  0.00     0.128 N 
HETATM    9  C14 UNL     1      28.690   9.943  48.516  1.00  0.00     0.316 C 
HETATM   10  C15 UNL     1      28.040  11.257  48.801  1.00  0.00     0.197 C 
HETATM   11  N3  UNL     1      26.889  10.572  49.412  1.00  0.00    -0.180 NA
HETATM   12  O1  UNL     1      27.240   9.821  50.507  1.00  0.00    -0.301 OA
HETATM   13  C16 UNL     1      27.003   8.592  49.851  1.00  0.00     0.221 C 
HETATM   14  C17 UNL     1      27.278   9.415  48.625  1.00  0.00     0.181 C 
HETATM   15  O2  UNL     1      29.191   9.703  47.270  1.00  0.00    -0.233 OA
HETATM   16  N4  UNL     1      29.344  10.757  46.472  1.00  0.00    -0.257 N 
HETATM   17  C18 UNL     1      29.597  10.190  45.178  1.00  0.00     0.230 C 
HETATM   18  N5  UNL     1      30.608   9.451  44.844  1.00  0.00    -0.247 NA
HETATM   19  H13 UNL     1      29.922  10.288  50.164  1.00  0.00     0.320 HD
HETATM   20  H19 UNL     1      29.301  11.787  46.689  1.00  0.00     0.195 HD
ENDROOT
BRANCH   1  21
HETATM   21  N1  UNL     1      32.384   6.597  48.299  1.00  0.00    -0.377 N 
HETATM   22  H5  UNL     1      31.931   6.636  49.240  1.00  0.00     0.160 HD
BRANCH  21  23
HETATM   23  C6  UNL     1      32.788   5.320  47.856  1.00  0.00     0.046 A 
HETATM   24  C1  UNL     1      34.048   4.780  47.991  1.00  0.00     0.037 A 
HETATM   25 BR1  UNL     1      35.400   5.776  48.889  1.00  0.00    -0.049 Br
HETATM   26  C2  UNL     1      34.434   3.538  47.538  1.00  0.00     0.021 A 
HETATM   27  C3  UNL     1      33.450   2.814  46.907  1.00  0.00     0.002 A 
HETATM   28  C4  UNL     1      32.165   3.264  46.722  1.00  0.00     0.002 A 
HETATM   29  C5  UNL     1      31.877   4.515  47.209  1.00  0.00     0.030 A 
ENDBRANCH  21  23
ENDBRANCH   1  21
TORSDOF 2
ENDMDL
MODEL 9
REMARK VINA RESULT:      -7.8      9.244     11.583
REMARK  2 active torsions:
REMARK  status: ('A' for Active; 'I' for Inactive)
REMARK    1  A    between atoms: C6_7  and  N1_8 
REMARK    2  A    between atoms: N1_8  and  C7_9 
ROOT
HETATM    1  C7  UNL     1      33.336   4.535  44.368  1.00  0.00     0.137 C 
HETATM    2  C8  UNL     1      34.573   3.927  44.984  1.00  0.00     0.030 C 
HETATM    3  C9  UNL     1      34.491   3.536  46.273  1.00  0.00     0.037 C 
HETATM    4  C10 UNL     1      33.156   2.885  46.549  1.00  0.00     0.086 C 
HETATM    5  C11 UNL     1      32.149   3.997  46.324  1.00  0.00    -0.014 C 
HETATM    6  C12 UNL     1      32.536   5.022  45.523  1.00  0.00    -0.029 C 
HETATM    7  C13 UNL     1      32.255   6.477  45.692  1.00  0.00     0.310 C 
HETATM    8  N2  UNL     1      31.666   6.789  46.969  1.00  0.00     0.128 N 
HETATM    9  C14 UNL     1      32.548   6.613  48.094  1.00  0.00     0.316 C 
HETATM   10  C15 UNL     1      31.784   6.592  49.377  1.00  0.00     0.197 C 
HETATM   11  N3  UNL     1      31.914   8.053  49.496  1.00  0.00    -0.180 NA
HETATM   12  O1  UNL     1      31.325   8.724  48.453  1.00  0.00    -0.301 OA
HETATM   13  C16 UNL     1      32.560   9.147  47.911  1.00  0.00     0.221 C 
HETATM   14  C17 UNL     1      33.070   7.928  48.625  1.00  0.00     0.181 C 
HETATM   15  O2  UNL     1      33.575   5.733  47.914  1.00  0.00    -0.233 OA
HETATM   16  N4  UNL     1      33.642   4.710  48.763  1.00  0.00    -0.257 N 
HETATM   17  C18 UNL     1      34.938   4.139  48.528  1.00  0.00     0.230 C 
HETATM   18  N5  UNL     1      35.357   3.602  47.425  1.00  0.00    -0.247 NA
HETATM   19  H13 UNL     1      30.724   6.414  47.099  1.00  0.00     0.320 HD
HETATM   20  H19 UNL     1      32.938   4.357  49.462  1.00  0.00     0.195 HD
ENDROOT
BRANCH   1  21
HETATM   21  N1  UNL     1      33.591   5.476  43.350  1.00  0.00    -0.377 N 
HETATM   22  H5  UNL     1      32.908   6.262  43.434  1.00  0.00     0.160 HD
BRANCH  21  23
HETATM   23  C6  UNL     1      34.525   5.574  42.296  1.00  0.00     0.046 A 
HETATM   24  C1  UNL     1      34.423   4.961  41.068  1.00  0.00     0.037 A 
HETATM   25 BR1  UNL     1      32.886   3.909  40.674  1.00  0.00    -0.049 Br
HETATM   26  C2  UNL     1      35.351   5.051  40.054  1.00  0.00     0.021 A 
HETATM   27  C3  UNL     1      36.451   5.826  40.335  1.00  0.00     0.002 A 
HETATM   28  C4  UNL     1      36.645   6.478  41.529  1.00  0.00     0.002 A 
HETATM   29  C5  UNL     1      35.664   6.328  42.477  1.00  0.00     0.030 A 
ENDBRANCH  21  23
ENDBRANCH   1  21
TORSDOF 2
ENDMDL
