MODEL 1
REMARK VINA RESULT:      -8.1      0.000      0.000
REMARK  6 active torsions:
REMARK  status: ('A' for Active; 'I' for Inactive)
REMARK    1  A    between atoms: C2_2  and  C3_3 
REMARK    2  A    between atoms: C3_3  and  C4_4 
REMARK    3  A    between atoms: C4_4  and  C5_5 
REMARK    4  A    between atoms: C6_8  and  N1_10 
REMARK    5  A    between atoms: N1_10  and  C8_11 
REMARK    6  A    between atoms: C8_11  and  C9_12 
ROOT
HETATM    1  N1  UNL     1      24.234   1.813  52.633  1.00  0.00    -0.390 N 
HETATM    2  H12 UNL     1      24.491   0.739  52.821  1.00  0.00     0.159 HD
ENDROOT
BRANCH   1   3
HETATM    3  C6  UNL     1      23.145   1.396  51.740  1.00  0.00     0.003 C 
HETATM    4  C3  UNL     1      22.669   0.445  52.564  1.00  0.00    -0.055 C 
HETATM    5  C7  UNL     1      23.459   2.333  50.688  1.00  0.00     0.068 C 
BRANCH   4   6
HETATM    6  C2  UNL     1      21.581  -0.028  51.639  1.00  0.00     0.031 C 
HETATM    7  C1  UNL     1      20.397   0.933  51.709  1.00  0.00     0.010 C 
ENDBRANCH   4   6
BRANCH   4   8
HETATM    8  C4  UNL     1      22.831  -0.137  53.887  1.00  0.00     0.084 C 
BRANCH   8   9
HETATM    9  C5  UNL     1      21.610  -0.999  54.215  1.00  0.00     0.175 A 
HETATM   10  O1  UNL     1      22.029  -1.575  55.278  1.00  0.00    -0.221 OA
HETATM   11  O2  UNL     1      20.836  -1.900  54.896  1.00  0.00     0.000 OA
HETATM   12  H8  UNL     1      20.151  -2.434  54.302  1.00  0.00     0.000 HD
ENDBRANCH   8   9
ENDBRANCH   4   8
ENDBRANCH   1   3
BRANCH   1  13
HETATM   13  C8  UNL     1      25.323   2.223  53.527  1.00  0.00     0.147 C 
BRANCH  13  14
HETATM   14  C9  UNL     1      26.333   1.128  53.746  1.00  0.00     0.006 C 
HETATM   15  C10 UNL     1      27.613   1.045  53.991  1.00  0.00     0.021 C 
HETATM   16  C11 UNL     1      29.105   0.803  54.276  1.00  0.00     0.252 C 
HETATM   17  C16 UNL     1      27.705   0.022  52.917  1.00  0.00     0.096 A 
HETATM   18  O3  UNL     1      29.382   1.895  54.881  1.00  0.00    -0.268 OA
HETATM   19  N2  UNL     1      29.569  -0.441  53.804  1.00  0.00    -0.326 N 
HETATM   20  C12 UNL     1      28.565  -1.065  53.268  1.00  0.00     0.024 A 
HETATM   21  H16 UNL     1      30.642  -0.455  54.039  1.00  0.00     0.169 HD
HETATM   22  C13 UNL     1      28.430  -2.319  53.103  1.00  0.00     0.026 A 
HETATM   23  C14 UNL     1      27.032  -2.043  52.475  1.00  0.00    -0.001 A 
HETATM   24  C15 UNL     1      26.580  -0.712  52.359  1.00  0.00    -0.011 A 
ENDBRANCH  13  14
ENDBRANCH   1  13
TORSDOF 6
ENDMDL
MODEL 2
REMARK VINA RESULT:      -7.5      2.375      3.022
REMARK  6 active torsions:
REMARK  status: ('A' for Active; 'I' for Inactive)
REMARK    1  A    between atoms: C2_2  and  C3_3 
REMARK    2  A    between atoms: C3_3  and  C4_4 
REMARK    3  A    between atoms: C4_4  and  C5_5 
REMARK    4  A    between atoms: C6_8  and  N1_10 
REMARK    5  A    between atoms: N1_10  and  C8_11 
REMARK    6  A    between atoms: C8_11  and  C9_12 
ROOT
HETATM    1  N1  UNL     1      24.111   1.574  52.969  1.00  0.00    -0.390 N 
HETATM    2  H12 UNL     1      23.552   2.429  53.428  1.00  0.00     0.159 HD
ENDROOT
BRANCH   1   3
HETATM    3  C6  UNL     1      22.850   1.024  52.456  1.00  0.00     0.003 C 
HETATM    4  C3  UNL     1      22.657   1.994  51.542  1.00  0.00    -0.055 C 
HETATM    5  C7  UNL     1      22.820  -0.112  53.345  1.00  0.00     0.068 C 
BRANCH   4   6
HETATM    6  C2  UNL     1      21.338   1.471  51.041  1.00  0.00     0.031 C 
HETATM    7  C1  UNL     1      21.511   0.916  49.630  1.00  0.00     0.010 C 
ENDBRANCH   4   6
BRANCH   4   8
HETATM    8  C4  UNL     1      23.265   3.176  50.954  1.00  0.00     0.084 C 
BRANCH   8   9
HETATM    9  C5  UNL     1      22.532   4.424  51.451  1.00  0.00     0.175 A 
HETATM   10  O1  UNL     1      23.064   4.542  52.609  1.00  0.00    -0.221 OA
HETATM   11  O2  UNL     1      22.178   5.435  52.304  1.00  0.00     0.000 OA
HETATM   12  H8  UNL     1      21.191   5.781  52.194  1.00  0.00     0.000 HD
ENDBRANCH   8   9
ENDBRANCH   4   8
ENDBRANCH   1   3
BRANCH   1  13
HETATM   13  C8  UNL     1      25.368   2.129  53.484  1.00  0.00     0.147 C 
BRANCH  13  14
HETATM   14  C9  UNL     1      26.410   1.071  53.727  1.00  0.00     0.006 C 
HETATM   15  C10 UNL     1      27.693   1.031  53.966  1.00  0.00     0.021 C 
HETATM   16  C11 UNL     1      29.193   0.840  54.249  1.00  0.00     0.252 C 
HETATM   17  C16 UNL     1      27.810  -0.017  52.919  1.00  0.00     0.096 A 
HETATM   18  O3  UNL     1      29.442   1.955  54.824  1.00  0.00    -0.268 OA
HETATM   19  N2  UNL     1      29.691  -0.402  53.808  1.00  0.00    -0.326 N 
HETATM   20  C12 UNL     1      28.703  -1.069  53.294  1.00  0.00     0.024 A 
HETATM   21  H16 UNL     1      30.765  -0.379  54.038  1.00  0.00     0.169 HD
HETATM   22  C13 UNL     1      28.603  -2.330  53.163  1.00  0.00     0.026 A 
HETATM   23  C14 UNL     1      27.195  -2.112  52.536  1.00  0.00    -0.001 A 
HETATM   24  C15 UNL     1      26.704  -0.798  52.388  1.00  0.00    -0.011 A 
ENDBRANCH  13  14
ENDBRANCH   1  13
TORSDOF 6
ENDMDL
MODEL 3
REMARK VINA RESULT:      -7.4      2.685      3.577
REMARK  6 active torsions:
REMARK  status: ('A' for Active; 'I' for Inactive)
REMARK    1  A    between atoms: C2_2  and  C3_3 
REMARK    2  A    between atoms: C3_3  and  C4_4 
REMARK    3  A    between atoms: C4_4  and  C5_5 
REMARK    4  A    between atoms: C6_8  and  N1_10 
REMARK    5  A    between atoms: N1_10  and  C8_11 
REMARK    6  A    between atoms: C8_11  and  C9_12 
ROOT
HETATM    1  N1  UNL     1      24.302   1.012  52.342  1.00  0.00    -0.390 N 
HETATM    2  H12 UNL     1      24.352   1.917  53.001  1.00  0.00     0.159 HD
ENDROOT
BRANCH   1   3
HETATM    3  C6  UNL     1      23.072   0.585  53.019  1.00  0.00     0.003 C 
HETATM    4  C3  UNL     1      22.277   1.480  52.404  1.00  0.00    -0.055 C 
HETATM    5  C7  UNL     1      23.696  -0.449  53.808  1.00  0.00     0.068 C 
BRANCH   4   6
HETATM    6  C2  UNL     1      21.017   1.088  53.127  1.00  0.00     0.031 C 
HETATM    7  C1  UNL     1      19.966   0.639  52.116  1.00  0.00     0.010 C 
ENDBRANCH   4   6
BRANCH   4   8
HETATM    8  C4  UNL     1      22.262   2.513  51.380  1.00  0.00     0.084 C 
BRANCH   8   9
HETATM    9  C5  UNL     1      22.089   3.881  52.043  1.00  0.00     0.175 A 
HETATM   10  O1  UNL     1      23.245   4.012  52.576  1.00  0.00    -0.221 OA
HETATM   11  O2  UNL     1      22.422   4.991  52.773  1.00  0.00     0.000 OA
HETATM   12  H8  UNL     1      21.616   5.458  53.261  1.00  0.00     0.000 HD
ENDBRANCH   8   9
ENDBRANCH   4   8
ENDBRANCH   1   3
BRANCH   1  13
HETATM   13  C8  UNL     1      25.533   1.445  51.669  1.00  0.00     0.147 C 
BRANCH  13  14
HETATM   14  C9  UNL     1      26.699   0.538  51.958  1.00  0.00     0.006 C 
HETATM   15  C10 UNL     1      26.889  -0.739  52.153  1.00  0.00     0.021 C 
HETATM   16  C11 UNL     1      27.254  -2.212  52.403  1.00  0.00     0.252 C 
HETATM   17  C16 UNL     1      27.705  -0.389  53.344  1.00  0.00     0.096 A 
HETATM   18  O3  UNL     1      26.304  -2.776  51.758  1.00  0.00    -0.268 OA
HETATM   19  N2  UNL     1      28.414  -2.375  53.186  1.00  0.00    -0.326 N 
HETATM   20  C12 UNL     1      28.880  -1.195  53.461  1.00  0.00     0.024 A 
HETATM   21  H16 UNL     1      28.525  -3.461  53.312  1.00  0.00     0.169 HD
HETATM   22  C13 UNL     1      30.075  -0.885  53.766  1.00  0.00     0.026 A 
HETATM   23  C14 UNL     1      29.621   0.602  53.861  1.00  0.00    -0.001 A 
HETATM   24  C15 UNL     1      28.269   0.925  53.617  1.00  0.00    -0.011 A 
ENDBRANCH  13  14
ENDBRANCH   1  13
TORSDOF 6
ENDMDL
MODEL 4
REMARK VINA RESULT:      -7.4      3.014      3.609
REMARK  6 active torsions:
REMARK  status: ('A' for Active; 'I' for Inactive)
REMARK    1  A    between atoms: C2_2  and  C3_3 
REMARK    2  A    between atoms: C3_3  and  C4_4 
REMARK    3  A    between atoms: C4_4  and  C5_5 
REMARK    4  A    between atoms: C6_8  and  N1_10 
REMARK    5  A    between atoms: N1_10  and  C8_11 
REMARK    6  A    between atoms: C8_11  and  C9_12 
ROOT
HETATM    1  N1  UNL     1      25.269   2.755  51.994  1.00  0.00    -0.390 N 
HETATM    2  H12 UNL     1      24.177   2.959  52.133  1.00  0.00     0.159 HD
ENDROOT
BRANCH   1   3
HETATM    3  C6  UNL     1      25.148   3.074  50.566  1.00  0.00     0.003 C 
HETATM    4  C3  UNL     1      23.808   3.193  50.581  1.00  0.00    -0.055 C 
HETATM    5  C7  UNL     1      26.562   3.000  50.285  1.00  0.00     0.068 C 
BRANCH   4   6
HETATM    6  C2  UNL     1      23.663   3.470  49.109  1.00  0.00     0.031 C 
HETATM    7  C1  UNL     1      24.008   4.930  48.829  1.00  0.00     0.010 C 
ENDBRANCH   4   6
BRANCH   4   8
HETATM    8  C4  UNL     1      22.648   3.183  51.458  1.00  0.00     0.084 C 
BRANCH   8   9
HETATM    9  C5  UNL     1      22.191   4.621  51.709  1.00  0.00     0.175 A 
HETATM   10  O1  UNL     1      23.172   5.041  52.416  1.00  0.00    -0.221 OA
HETATM   11  O2  UNL     1      22.233   5.902  52.191  1.00  0.00     0.000 OA
HETATM   12  H8  UNL     1      21.293   6.338  52.373  1.00  0.00     0.000 HD
ENDBRANCH   8   9
ENDBRANCH   4   8
ENDBRANCH   1   3
BRANCH   1  13
HETATM   13  C8  UNL     1      25.383   2.437  53.423  1.00  0.00     0.147 C 
BRANCH  13  14
HETATM   14  C9  UNL     1      26.415   1.377  53.698  1.00  0.00     0.006 C 
HETATM   15  C10 UNL     1      27.697   1.334  53.944  1.00  0.00     0.021 C 
HETATM   16  C11 UNL     1      29.194   1.138  54.237  1.00  0.00     0.252 C 
HETATM   17  C16 UNL     1      27.810   0.257  52.926  1.00  0.00     0.096 A 
HETATM   18  O3  UNL     1      29.450   2.267  54.782  1.00  0.00    -0.268 OA
HETATM   19  N2  UNL     1      29.684  -0.119  53.832  1.00  0.00    -0.326 N 
HETATM   20  C12 UNL     1      28.692  -0.792  53.333  1.00  0.00     0.024 A 
HETATM   21  H16 UNL     1      30.757  -0.098  54.065  1.00  0.00     0.169 HD
HETATM   22  C13 UNL     1      28.583  -2.055  53.236  1.00  0.00     0.026 A 
HETATM   23  C14 UNL     1      27.178  -1.843  52.598  1.00  0.00    -0.001 A 
HETATM   24  C15 UNL     1      26.698  -0.530  52.412  1.00  0.00    -0.011 A 
ENDBRANCH  13  14
ENDBRANCH   1  13
TORSDOF 6
ENDMDL
MODEL 5
REMARK VINA RESULT:      -7.4      3.075      4.198
REMARK  6 active torsions:
REMARK  status: ('A' for Active; 'I' for Inactive)
REMARK    1  A    between atoms: C2_2  and  C3_3 
REMARK    2  A    between atoms: C3_3  and  C4_4 
REMARK    3  A    between atoms: C4_4  and  C5_5 
REMARK    4  A    between atoms: C6_8  and  N1_10 
REMARK    5  A    between atoms: N1_10  and  C8_11 
REMARK    6  A    between atoms: C8_11  and  C9_12 
ROOT
HETATM    1  N1  UNL     1      24.327   2.552  52.089  1.00  0.00    -0.390 N 
HETATM    2  H12 UNL     1      24.137   3.655  52.044  1.00  0.00     0.159 HD
ENDROOT
BRANCH   1   3
HETATM    3  C6  UNL     1      23.608   2.375  50.821  1.00  0.00     0.003 C 
HETATM    4  C3  UNL     1      24.120   3.473  50.236  1.00  0.00    -0.055 C 
HETATM    5  C7  UNL     1      22.920   1.169  51.216  1.00  0.00     0.068 C 
BRANCH   4   6
HETATM    6  C2  UNL     1      23.350   3.334  48.950  1.00  0.00     0.031 C 
HETATM    7  C1  UNL     1      22.432   4.540  48.772  1.00  0.00     0.010 C 
ENDBRANCH   4   6
BRANCH   4   8
HETATM    8  C4  UNL     1      25.075   4.554  50.423  1.00  0.00     0.084 C 
BRANCH   8   9
HETATM    9  C5  UNL     1      26.279   4.329  49.505  1.00  0.00     0.175 A 
HETATM   10  O1  UNL     1      26.912   3.451  50.187  1.00  0.00    -0.221 OA
HETATM   11  O2  UNL     1      27.466   3.803  49.072  1.00  0.00     0.000 OA
HETATM   12  H8  UNL     1      28.042   4.444  48.469  1.00  0.00     0.000 HD
ENDBRANCH   8   9
ENDBRANCH   4   8
ENDBRANCH   1   3
BRANCH   1  13
HETATM   13  C8  UNL     1      25.046   2.736  53.356  1.00  0.00     0.147 C 
BRANCH  13  14
HETATM   14  C9  UNL     1      26.075   1.665  53.596  1.00  0.00     0.006 C 
HETATM   15  C10 UNL     1      27.368   1.606  53.771  1.00  0.00     0.021 C 
HETATM   16  C11 UNL     1      28.876   1.391  53.985  1.00  0.00     0.252 C 
HETATM   17  C16 UNL     1      27.406   0.506  52.772  1.00  0.00     0.096 A 
HETATM   18  O3  UNL     1      29.179   2.527  54.489  1.00  0.00    -0.268 OA
HETATM   19  N2  UNL     1      29.322   0.118  53.580  1.00  0.00    -0.326 N 
HETATM   20  C12 UNL     1      28.294  -0.549  53.152  1.00  0.00     0.024 A 
HETATM   21  H16 UNL     1      30.407   0.126  53.753  1.00  0.00     0.169 HD
HETATM   22  C13 UNL     1      28.160  -1.812  53.089  1.00  0.00     0.026 A 
HETATM   23  C14 UNL     1      26.726  -1.590  52.526  1.00  0.00    -0.001 A 
HETATM   24  C15 UNL     1      26.256  -0.273  52.338  1.00  0.00    -0.011 A 
ENDBRANCH  13  14
ENDBRANCH   1  13
TORSDOF 6
ENDMDL
MODEL 6
REMARK VINA RESULT:      -7.3      2.337      6.448
REMARK  6 active torsions:
REMARK  status: ('A' for Active; 'I' for Inactive)
REMARK    1  A    between atoms: C2_2  and  C3_3 
REMARK    2  A    between atoms: C3_3  and  C4_4 
REMARK    3  A    between atoms: C4_4  and  C5_5 
REMARK    4  A    between atoms: C6_8  and  N1_10 
REMARK    5  A    between atoms: N1_10  and  C8_11 
REMARK    6  A    between atoms: C8_11  and  C9_12 
ROOT
HETATM    1  N1  UNL     1      25.544   1.101  52.833  1.00  0.00    -0.390 N 
HETATM    2  H12 UNL     1      26.178   0.527  52.110  1.00  0.00     0.159 HD
ENDROOT
BRANCH   1   3
HETATM    3  C6  UNL     1      26.695   1.245  53.732  1.00  0.00     0.003 C 
HETATM    4  C3  UNL     1      27.185   0.013  53.501  1.00  0.00    -0.055 C 
HETATM    5  C7  UNL     1      26.380   2.590  54.151  1.00  0.00     0.068 C 
BRANCH   4   6
HETATM    6  C2  UNL     1      28.341   0.127  54.457  1.00  0.00     0.031 C 
HETATM    7  C1  UNL     1      29.559   0.680  53.722  1.00  0.00     0.010 C 
ENDBRANCH   4   6
BRANCH   4   8
HETATM    8  C4  UNL     1      26.993  -1.184  52.698  1.00  0.00     0.084 C 
BRANCH   8   9
HETATM    9  C5  UNL     1      27.869  -2.310  53.251  1.00  0.00     0.175 A 
HETATM   10  O1  UNL     1      27.811  -3.132  52.272  1.00  0.00    -0.221 OA
HETATM   11  O2  UNL     1      28.521  -3.514  53.284  1.00  0.00     0.000 OA
HETATM   12  H8  UNL     1      28.646  -3.924  54.244  1.00  0.00     0.000 HD
ENDBRANCH   8   9
ENDBRANCH   4   8
ENDBRANCH   1   3
BRANCH   1  13
HETATM   13  C8  UNL     1      24.396   0.954  51.929  1.00  0.00     0.147 C 
BRANCH  13  14
HETATM   14  C9  UNL     1      23.126   0.613  52.660  1.00  0.00     0.006 C 
HETATM   15  C10 UNL     1      22.766  -0.185  53.629  1.00  0.00     0.021 C 
HETATM   16  C11 UNL     1      22.207  -1.076  54.751  1.00  0.00     0.252 C 
HETATM   17  C16 UNL     1      21.628  -0.627  52.782  1.00  0.00     0.096 A 
HETATM   18  O3  UNL     1      23.266  -1.213  55.456  1.00  0.00    -0.268 OA
HETATM   19  N2  UNL     1      20.841  -1.380  54.595  1.00  0.00    -0.326 N 
HETATM   20  C12 UNL     1      20.416  -0.777  53.527  1.00  0.00     0.024 A 
HETATM   21  H16 UNL     1      20.597  -2.045  55.435  1.00  0.00     0.169 HD
HETATM   22  C13 UNL     1      19.222  -0.441  53.248  1.00  0.00     0.026 A 
HETATM   23  C14 UNL     1      19.748   0.166  51.914  1.00  0.00    -0.001 A 
HETATM   24  C15 UNL     1      21.125   0.084  51.617  1.00  0.00    -0.011 A 
ENDBRANCH  13  14
ENDBRANCH   1  13
TORSDOF 6
ENDMDL
MODEL 7
REMARK VINA RESULT:      -7.2      2.704      6.873
REMARK  6 active torsions:
REMARK  status: ('A' for Active; 'I' for Inactive)
REMARK    1  A    between atoms: C2_2  and  C3_3 
REMARK    2  A    between atoms: C3_3  and  C4_4 
REMARK    3  A    between atoms: C4_4  and  C5_5 
REMARK    4  A    between atoms: C6_8  and  N1_10 
REMARK    5  A    between atoms: N1_10  and  C8_11 
REMARK    6  A    between atoms: C8_11  and  C9_12 
ROOT
HETATM    1  N1  UNL     1      24.174   0.761  53.014  1.00  0.00    -0.390 N 
HETATM    2  H12 UNL     1      23.266   1.353  52.732  1.00  0.00     0.159 HD
ENDROOT
BRANCH   1   3
HETATM    3  C6  UNL     1      25.031   1.890  52.632  1.00  0.00     0.003 C 
HETATM    4  C3  UNL     1      26.080   1.129  52.269  1.00  0.00    -0.055 C 
HETATM    5  C7  UNL     1      24.068   2.915  52.957  1.00  0.00     0.068 C 
BRANCH   4   6
HETATM    6  C2  UNL     1      26.988   2.278  51.921  1.00  0.00     0.031 C 
HETATM    7  C1  UNL     1      26.625   2.817  50.541  1.00  0.00     0.010 C 
ENDBRANCH   4   6
BRANCH   4   8
HETATM    8  C4  UNL     1      26.514  -0.248  52.092  1.00  0.00     0.084 C 
BRANCH   8   9
HETATM    9  C5  UNL     1      27.624  -0.561  53.096  1.00  0.00     0.175 A 
HETATM   10  O1  UNL     1      27.531  -1.837  53.133  1.00  0.00    -0.221 OA
HETATM   11  O2  UNL     1      28.444  -1.319  53.889  1.00  0.00     0.000 OA
HETATM   12  H8  UNL     1      28.782  -0.840  54.763  1.00  0.00     0.000 HD
ENDBRANCH   8   9
ENDBRANCH   4   8
ENDBRANCH   1   3
BRANCH   1  13
HETATM   13  C8  UNL     1      23.311  -0.364  53.395  1.00  0.00     0.147 C 
BRANCH  13  14
HETATM   14  C9  UNL     1      22.040  -0.415  52.591  1.00  0.00     0.006 C 
HETATM   15  C10 UNL     1      21.532   0.218  51.568  1.00  0.00     0.021 C 
HETATM   16  C11 UNL     1      20.815   0.880  50.379  1.00  0.00     0.252 C 
HETATM   17  C16 UNL     1      20.269   0.357  52.339  1.00  0.00     0.096 A 
HETATM   18  O3  UNL     1      21.834   1.280  49.716  1.00  0.00    -0.268 OA
HETATM   19  N2  UNL     1      19.411   0.798  50.457  1.00  0.00    -0.326 N 
HETATM   20  C12 UNL     1      19.108   0.139  51.533  1.00  0.00     0.024 A 
HETATM   21  H16 UNL     1      19.042   1.339  49.575  1.00  0.00     0.169 HD
HETATM   22  C13 UNL     1      18.038  -0.505  51.774  1.00  0.00     0.026 A 
HETATM   23  C14 UNL     1      18.633  -0.895  53.159  1.00  0.00    -0.001 A 
HETATM   24  C15 UNL     1      19.915  -0.425  53.514  1.00  0.00    -0.011 A 
ENDBRANCH  13  14
ENDBRANCH   1  13
TORSDOF 6
ENDMDL
MODEL 8
REMARK VINA RESULT:      -7.1      3.195      5.520
REMARK  6 active torsions:
REMARK  status: ('A' for Active; 'I' for Inactive)
REMARK    1  A    between atoms: C2_2  and  C3_3 
REMARK    2  A    between atoms: C3_3  and  C4_4 
REMARK    3  A    between atoms: C4_4  and  C5_5 
REMARK    4  A    between atoms: C6_8  and  N1_10 
REMARK    5  A    between atoms: N1_10  and  C8_11 
REMARK    6  A    between atoms: C8_11  and  C9_12 
ROOT
HETATM    1  N1  UNL     1      24.125   3.330  51.441  1.00  0.00    -0.390 N 
HETATM    2  H12 UNL     1      23.072   3.189  51.797  1.00  0.00     0.159 HD
ENDROOT
BRANCH   1   3
HETATM    3  C6  UNL     1      24.026   4.769  51.714  1.00  0.00     0.003 C 
HETATM    4  C3  UNL     1      24.615   5.151  50.566  1.00  0.00    -0.055 C 
HETATM    5  C7  UNL     1      23.382   4.626  52.997  1.00  0.00     0.068 C 
BRANCH   4   6
HETATM    6  C2  UNL     1      24.568   6.627  50.854  1.00  0.00     0.031 C 
HETATM    7  C1  UNL     1      23.267   7.212  50.309  1.00  0.00     0.010 C 
ENDBRANCH   4   6
BRANCH   4   8
HETATM    8  C4  UNL     1      25.154   4.651  49.311  1.00  0.00     0.084 C 
BRANCH   8   9
HETATM    9  C5  UNL     1      26.642   4.993  49.226  1.00  0.00     0.175 A 
HETATM   10  O1  UNL     1      27.145   3.857  49.533  1.00  0.00    -0.221 OA
HETATM   11  O2  UNL     1      27.996   4.800  49.286  1.00  0.00     0.000 OA
HETATM   12  H8  UNL     1      28.555   5.654  49.542  1.00  0.00     0.000 HD
ENDBRANCH   8   9
ENDBRANCH   4   8
ENDBRANCH   1   3
BRANCH   1  13
HETATM   13  C8  UNL     1      24.217   1.890  51.172  1.00  0.00     0.147 C 
BRANCH  13  14
HETATM   14  C9  UNL     1      25.204   1.196  52.072  1.00  0.00     0.006 C 
HETATM   15  C10 UNL     1      25.161   0.486  53.168  1.00  0.00     0.021 C 
HETATM   16  C11 UNL     1      25.256  -0.356  54.451  1.00  0.00     0.252 C 
HETATM   17  C16 UNL     1      26.257   1.333  53.705  1.00  0.00     0.096 A 
HETATM   18  O3  UNL     1      24.099  -0.901  54.430  1.00  0.00    -0.268 OA
HETATM   19  N2  UNL     1      26.492  -0.226  55.115  1.00  0.00    -0.326 N 
HETATM   20  C12 UNL     1      27.238   0.574  54.417  1.00  0.00     0.024 A 
HETATM   21  H16 UNL     1      26.398  -0.843  56.019  1.00  0.00     0.169 HD
HETATM   22  C13 UNL     1      28.508   0.643  54.411  1.00  0.00     0.026 A 
HETATM   23  C14 UNL     1      28.401   1.771  53.342  1.00  0.00    -0.001 A 
HETATM   24  C15 UNL     1      27.125   2.187  52.908  1.00  0.00    -0.011 A 
ENDBRANCH  13  14
ENDBRANCH   1  13
TORSDOF 6
ENDMDL
MODEL 9
REMARK VINA RESULT:      -7.0      2.259      6.935
REMARK  6 active torsions:
REMARK  status: ('A' for Active; 'I' for Inactive)
REMARK    1  A    between atoms: C2_2  and  C3_3 
REMARK    2  A    between atoms: C3_3  and  C4_4 
REMARK    3  A    between atoms: C4_4  and  C5_5 
REMARK    4  A    between atoms: C6_8  and  N1_10 
REMARK    5  A    between atoms: N1_10  and  C8_11 
REMARK    6  A    between atoms: C8_11  and  C9_12 
ROOT
HETATM    1  N1  UNL     1      24.678   1.635  52.740  1.00  0.00    -0.390 N 
HETATM    2  H12 UNL     1      25.574   1.739  52.077  1.00  0.00     0.159 HD
ENDROOT
BRANCH   1   3
HETATM    3  C6  UNL     1      25.189   0.349  53.232  1.00  0.00     0.003 C 
HETATM    4  C3  UNL     1      26.474   0.604  52.924  1.00  0.00    -0.055 C 
HETATM    5  C7  UNL     1      23.906  -0.165  53.646  1.00  0.00     0.068 C 
BRANCH   4   6
HETATM    6  C2  UNL     1      27.007  -0.729  53.376  1.00  0.00     0.031 C 
HETATM    7  C1  UNL     1      26.834  -1.753  52.258  1.00  0.00     0.010 C 
ENDBRANCH   4   6
BRANCH   4   8
HETATM    8  C4  UNL     1      27.368   1.633  52.415  1.00  0.00     0.084 C 
BRANCH   8   9
HETATM    9  C5  UNL     1      28.488   1.878  53.427  1.00  0.00     0.175 A 
HETATM   10  O1  UNL     1      27.883   2.667  54.234  1.00  0.00    -0.221 OA
HETATM   11  O2  UNL     1      29.110   2.388  54.535  1.00  0.00     0.000 OA
HETATM   12  H8  UNL     1      30.152   2.506  54.443  1.00  0.00     0.000 HD
ENDBRANCH   8   9
ENDBRANCH   4   8
ENDBRANCH   1   3
BRANCH   1  13
HETATM   13  C8  UNL     1      24.172   2.921  52.245  1.00  0.00     0.147 C 
BRANCH  13  14
HETATM   14  C9  UNL     1      23.130   2.756  51.172  1.00  0.00     0.006 C 
HETATM   15  C10 UNL     1      22.377   1.794  50.710  1.00  0.00     0.021 C 
HETATM   16  C11 UNL     1      21.441   0.755  50.071  1.00  0.00     0.252 C 
HETATM   17  C16 UNL     1      22.790   2.190  49.339  1.00  0.00     0.096 A 
HETATM   18  O3  UNL     1      21.289  -0.032  51.067  1.00  0.00    -0.268 OA
HETATM   19  N2  UNL     1      21.120   1.043  48.729  1.00  0.00    -0.326 N 
HETATM   20  C12 UNL     1      21.704   2.158  48.409  1.00  0.00     0.024 A 
HETATM   21  H16 UNL     1      20.488   0.208  48.399  1.00  0.00     0.169 HD
HETATM   22  C13 UNL     1      21.373   2.971  47.489  1.00  0.00     0.026 A 
HETATM   23  C14 UNL     1      22.564   3.876  47.918  1.00  0.00    -0.001 A 
HETATM   24  C15 UNL     1      23.395   3.464  48.981  1.00  0.00    -0.011 A 
ENDBRANCH  13  14
ENDBRANCH   1  13
TORSDOF 6
ENDMDL
