MODEL 1
REMARK VINA RESULT:      -9.2      0.000      0.000
REMARK  4 active torsions:
REMARK  status: ('A' for Active; 'I' for Inactive)
REMARK    1  A    between atoms: C2_2  and  C3_5 
REMARK    2  A    between atoms: C5_7  and  N1_8 
REMARK       I    between atoms: N1_8  and  C6_9 
REMARK       I    between atoms: C6_9  and  N2_11 
REMARK    3  A    between atoms: N2_11  and  C7_12 
REMARK    4  A    between atoms: C15_21  and  C16_22 
ROOT
HETATM    1  N1  UNL     1      24.316   1.761  51.224  1.00  0.00    -0.309 N 
HETATM    2  C6  UNL     1      24.715   3.068  50.887  1.00  0.00     0.321 C 
HETATM    3  O1  UNL     1      24.912   3.777  51.896  1.00  0.00    -0.247 OA
HETATM    4  N2  UNL     1      24.829   3.381  49.491  1.00  0.00    -0.334 N 
HETATM    5  H5  UNL     1      24.099   1.052  50.462  1.00  0.00     0.170 HD
HETATM    6  H6  UNL     1      24.622   2.619  48.775  1.00  0.00     0.165 HD
ENDROOT
BRANCH   4   7
HETATM    7  C7  UNL     1      25.223   4.768  49.294  1.00  0.00     0.042 C 
HETATM    8  C8  UNL     1      26.501   4.495  49.000  1.00  0.00     0.095 C 
HETATM    9  C9  UNL     1      27.891   4.699  48.645  1.00  0.00     0.046 C 
HETATM   10  C10 UNL     1      28.174   6.110  48.303  1.00  0.00    -0.054 A 
HETATM   11  C11 UNL     1      29.382   6.727  48.108  1.00  0.00     0.026 A 
HETATM   12  C14 UNL     1      27.308   7.160  48.112  1.00  0.00     0.037 A 
HETATM   13  C12 UNL     1      29.393   8.097  47.802  1.00  0.00     0.117 A 
HETATM   14  N3  UNL     1      28.333   8.913  47.674  1.00  0.00    -0.262 NA
HETATM   15  C13 UNL     1      27.070   8.486  47.832  1.00  0.00     0.070 A 
HETATM   16  C15 UNL     1      25.546   8.643  47.918  1.00  0.00     0.240 C 
HETATM   17  O3  UNL     1      25.109   7.805  48.947  1.00  0.00    -0.345 OA
HETATM   18  C17 UNL     1      24.063   7.094  49.299  1.00  0.00     0.134 C 
HETATM   19  C18 UNL     1      24.094   5.740  49.462  1.00  0.00     0.023 C 
BRANCH  16  20
HETATM   20  C16 UNL     1      25.387  10.101  48.271  1.00  0.00     0.269 C 
HETATM   21  O2  UNL     1      25.977  10.372  49.329  1.00  0.00    -0.304 OA
ENDBRANCH  16  20
ENDBRANCH   4   7
BRANCH   1  22
HETATM   22  C5  UNL     1      24.049   0.898  52.320  1.00  0.00     0.037 A 
HETATM   23  C4  UNL     1      22.702   0.738  52.680  1.00  0.00     0.046 A 
HETATM   24  C3  UNL     1      22.371  -0.091  53.742  1.00  0.00     0.053 A 
HETATM   25  C21 UNL     1      23.404  -0.725  54.401  1.00  0.00     0.128 A 
HETATM   26  C20 UNL     1      24.713  -0.579  54.061  1.00  0.00     0.045 A 
HETATM   27  F3  UNL     1      23.152  -1.561  55.458  1.00  0.00    -0.205 F 
HETATM   28  C19 UNL     1      25.041   0.246  53.003  1.00  0.00     0.032 A 
BRANCH  24  29
HETATM   29  C2  UNL     1      20.977  -0.310  54.201  1.00  0.00     0.270 C 
HETATM   30  C1  UNL     1      19.946   0.115  53.174  1.00  0.00     0.096 C 
HETATM   31  F1  UNL     1      20.794   0.390  55.381  1.00  0.00    -0.201 F 
HETATM   32  F2  UNL     1      20.804  -1.663  54.407  1.00  0.00    -0.201 F 
ENDBRANCH  24  29
ENDBRANCH   1  22
TORSDOF 4
ENDMDL
MODEL 2
REMARK VINA RESULT:      -8.8      5.113      9.816
REMARK  4 active torsions:
REMARK  status: ('A' for Active; 'I' for Inactive)
REMARK    1  A    between atoms: C2_2  and  C3_5 
REMARK    2  A    between atoms: C5_7  and  N1_8 
REMARK       I    between atoms: N1_8  and  C6_9 
REMARK       I    between atoms: C6_9  and  N2_11 
REMARK    3  A    between atoms: N2_11  and  C7_12 
REMARK    4  A    between atoms: C15_21  and  C16_22 
ROOT
HETATM    1  N1  UNL     1      25.117   7.129  50.922  1.00  0.00    -0.309 N 
HETATM    2  C6  UNL     1      24.351   5.952  51.004  1.00  0.00     0.321 C 
HETATM    3  O1  UNL     1      24.320   5.332  49.920  1.00  0.00    -0.247 OA
HETATM    4  N2  UNL     1      23.739   5.652  52.267  1.00  0.00    -0.334 N 
HETATM    5  H5  UNL     1      25.217   7.766  51.768  1.00  0.00     0.170 HD
HETATM    6  H6  UNL     1      23.898   6.317  53.085  1.00  0.00     0.165 HD
ENDROOT
BRANCH   4   7
HETATM    7  C7  UNL     1      22.961   4.425  52.196  1.00  0.00     0.042 C 
HETATM    8  C8  UNL     1      23.932   3.633  52.669  1.00  0.00     0.095 C 
HETATM    9  C9  UNL     1      24.621   2.436  53.108  1.00  0.00     0.046 C 
HETATM   10  C10 UNL     1      23.719   1.265  53.162  1.00  0.00    -0.054 A 
HETATM   11  C11 UNL     1      24.029  -0.058  53.339  1.00  0.00     0.026 A 
HETATM   12  C14 UNL     1      22.352   1.201  53.033  1.00  0.00     0.037 A 
HETATM   13  C12 UNL     1      22.984  -0.996  53.338  1.00  0.00     0.117 A 
HETATM   14  N3  UNL     1      21.672  -0.756  53.179  1.00  0.00    -0.262 NA
HETATM   15  C13 UNL     1      21.181   0.479  52.992  1.00  0.00     0.070 A 
HETATM   16  C15 UNL     1      20.083   1.517  52.722  1.00  0.00     0.240 C 
HETATM   17  O3  UNL     1      20.631   2.471  51.862  1.00  0.00    -0.345 OA
HETATM   18  C17 UNL     1      20.531   3.748  51.569  1.00  0.00     0.134 C 
HETATM   19  C18 UNL     1      21.559   4.634  51.709  1.00  0.00     0.023 C 
BRANCH  16  20
HETATM   20  C16 UNL     1      19.015   0.694  52.047  1.00  0.00     0.269 C 
HETATM   21  O2  UNL     1      19.298   0.483  50.856  1.00  0.00    -0.304 OA
ENDBRANCH  16  20
ENDBRANCH   4   7
BRANCH   1  22
HETATM   22  C5  UNL     1      25.913   7.912  50.044  1.00  0.00     0.037 A 
HETATM   23  C4  UNL     1      26.943   7.243  49.364  1.00  0.00     0.046 A 
HETATM   24  C3  UNL     1      27.759   7.949  48.492  1.00  0.00     0.053 A 
HETATM   25  C21 UNL     1      27.510   9.297  48.336  1.00  0.00     0.128 A 
HETATM   26  C20 UNL     1      26.514   9.956  48.988  1.00  0.00     0.045 A 
HETATM   27  F3  UNL     1      28.274  10.058  47.489  1.00  0.00    -0.205 F 
HETATM   28  C19 UNL     1      25.702   9.253  49.856  1.00  0.00     0.032 A 
BRANCH  24  29
HETATM   29  C2  UNL     1      28.878   7.329  47.742  1.00  0.00     0.270 C 
HETATM   30  C1  UNL     1      29.026   5.846  48.023  1.00  0.00     0.096 C 
HETATM   31  F1  UNL     1      30.045   7.997  48.074  1.00  0.00    -0.201 F 
HETATM   32  F2  UNL     1      28.612   7.458  46.395  1.00  0.00    -0.201 F 
ENDBRANCH  24  29
ENDBRANCH   1  22
TORSDOF 4
ENDMDL
MODEL 3
REMARK VINA RESULT:      -8.7      4.957      7.767
REMARK  4 active torsions:
REMARK  status: ('A' for Active; 'I' for Inactive)
REMARK    1  A    between atoms: C2_2  and  C3_5 
REMARK    2  A    between atoms: C5_7  and  N1_8 
REMARK       I    between atoms: N1_8  and  C6_9 
REMARK       I    between atoms: C6_9  and  N2_11 
REMARK    3  A    between atoms: N2_11  and  C7_12 
REMARK    4  A    between atoms: C15_21  and  C16_22 
ROOT
HETATM    1  N1  UNL     1      19.264  -0.751  53.754  1.00  0.00    -0.309 N 
HETATM    2  C6  UNL     1      20.616  -0.553  53.420  1.00  0.00     0.321 C 
HETATM    3  O1  UNL     1      20.891  -0.991  52.282  1.00  0.00    -0.247 OA
HETATM    4  N2  UNL     1      21.448   0.093  54.395  1.00  0.00    -0.334 N 
HETATM    5  H5  UNL     1      18.894  -0.440  54.701  1.00  0.00     0.170 HD
HETATM    6  H6  UNL     1      21.011   0.403  55.316  1.00  0.00     0.165 HD
ENDROOT
BRANCH   4   7
HETATM    7  C7  UNL     1      22.820   0.206  53.924  1.00  0.00     0.042 C 
HETATM    8  C8  UNL     1      22.580   1.218  53.080  1.00  0.00     0.095 C 
HETATM    9  C9  UNL     1      22.812   2.250  52.090  1.00  0.00     0.046 C 
HETATM   10  C10 UNL     1      24.250   2.412  51.784  1.00  0.00    -0.054 A 
HETATM   11  C11 UNL     1      24.846   3.133  50.783  1.00  0.00     0.026 A 
HETATM   12  C14 UNL     1      25.349   1.872  52.409  1.00  0.00     0.037 A 
HETATM   13  C12 UNL     1      26.246   3.119  50.690  1.00  0.00     0.117 A 
HETATM   14  N3  UNL     1      27.110   2.465  51.483  1.00  0.00    -0.262 NA
HETATM   15  C13 UNL     1      26.710   1.705  52.515  1.00  0.00     0.070 A 
HETATM   16  C15 UNL     1      26.903   0.743  53.695  1.00  0.00     0.240 C 
HETATM   17  O3  UNL     1      25.844  -0.167  53.653  1.00  0.00    -0.345 OA
HETATM   18  C17 UNL     1      25.110  -0.904  54.454  1.00  0.00     0.134 C 
HETATM   19  C18 UNL     1      23.761  -0.755  54.587  1.00  0.00     0.023 C 
BRANCH  16  20
HETATM   20  C16 UNL     1      28.223   0.090  53.371  1.00  0.00     0.269 C 
HETATM   21  O2  UNL     1      29.052   0.282  54.275  1.00  0.00    -0.304 OA
ENDBRANCH  16  20
ENDBRANCH   4   7
BRANCH   1  22
HETATM   22  C5  UNL     1      18.034  -1.271  53.269  1.00  0.00     0.037 A 
HETATM   23  C4  UNL     1      17.794  -2.635  53.500  1.00  0.00     0.046 A 
HETATM   24  C3  UNL     1      16.613  -3.207  53.052  1.00  0.00     0.053 A 
HETATM   25  C21 UNL     1      15.719  -2.390  52.391  1.00  0.00     0.128 A 
HETATM   26  C20 UNL     1      15.940  -1.067  52.162  1.00  0.00     0.045 A 
HETATM   27  F3  UNL     1      14.530  -2.886  51.922  1.00  0.00    -0.205 F 
HETATM   28  C19 UNL     1      17.117  -0.498  52.608  1.00  0.00     0.032 A 
BRANCH  24  29
HETATM   29  C2  UNL     1      16.280  -4.640  53.240  1.00  0.00     0.270 C 
HETATM   30  C1  UNL     1      15.300  -4.874  54.373  1.00  0.00     0.096 C 
HETATM   31  F1  UNL     1      17.457  -5.331  53.475  1.00  0.00    -0.201 F 
HETATM   32  F2  UNL     1      15.674  -5.092  52.085  1.00  0.00    -0.201 F 
ENDBRANCH  24  29
ENDBRANCH   1  22
TORSDOF 4
ENDMDL
MODEL 4
REMARK VINA RESULT:      -8.7      3.442      5.094
REMARK  4 active torsions:
REMARK  status: ('A' for Active; 'I' for Inactive)
REMARK    1  A    between atoms: C2_2  and  C3_5 
REMARK    2  A    between atoms: C5_7  and  N1_8 
REMARK       I    between atoms: N1_8  and  C6_9 
REMARK       I    between atoms: C6_9  and  N2_11 
REMARK    3  A    between atoms: N2_11  and  C7_12 
REMARK    4  A    between atoms: C15_21  and  C16_22 
ROOT
HETATM    1  N1  UNL     1      26.209   3.458  51.380  1.00  0.00    -0.309 N 
HETATM    2  C6  UNL     1      26.154   4.220  50.199  1.00  0.00     0.321 C 
HETATM    3  O1  UNL     1      26.489   3.557  49.194  1.00  0.00    -0.247 OA
HETATM    4  N2  UNL     1      25.740   5.589  50.317  1.00  0.00    -0.334 N 
HETATM    5  H5  UNL     1      25.965   3.900  52.316  1.00  0.00     0.170 HD
HETATM    6  H6  UNL     1      25.484   5.966  51.280  1.00  0.00     0.165 HD
ENDROOT
BRANCH   4   7
HETATM    7  C7  UNL     1      25.755   6.256  49.024  1.00  0.00     0.042 C 
HETATM    8  C8  UNL     1      24.461   6.039  48.756  1.00  0.00     0.095 C 
HETATM    9  C9  UNL     1      23.194   6.052  48.052  1.00  0.00     0.046 C 
HETATM   10  C10 UNL     1      23.248   6.885  46.830  1.00  0.00    -0.054 A 
HETATM   11  C11 UNL     1      22.333   6.991  45.816  1.00  0.00     0.026 A 
HETATM   12  C14 UNL     1      24.227   7.744  46.394  1.00  0.00     0.037 A 
HETATM   13  C12 UNL     1      22.621   7.849  44.742  1.00  0.00     0.117 A 
HETATM   14  N3  UNL     1      23.718   8.605  44.574  1.00  0.00    -0.262 NA
HETATM   15  C13 UNL     1      24.723   8.629  45.464  1.00  0.00     0.070 A 
HETATM   16  C15 UNL     1      26.100   9.041  46.001  1.00  0.00     0.240 C 
HETATM   17  O3  UNL     1      26.650   7.913  46.613  1.00  0.00    -0.345 OA
HETATM   18  C17 UNL     1      27.466   7.586  47.589  1.00  0.00     0.134 C 
HETATM   19  C18 UNL     1      27.087   6.846  48.670  1.00  0.00     0.023 C 
BRANCH  16  20
HETATM   20  C16 UNL     1      26.840   9.420  44.743  1.00  0.00     0.269 C 
HETATM   21  O2  UNL     1      27.108   8.417  44.061  1.00  0.00    -0.304 OA
ENDBRANCH  16  20
ENDBRANCH   4   7
BRANCH   1  22
HETATM   22  C5  UNL     1      26.504   2.166  51.891  1.00  0.00     0.037 A 
HETATM   23  C4  UNL     1      27.616   2.064  52.741  1.00  0.00     0.046 A 
HETATM   24  C3  UNL     1      27.961   0.830  53.274  1.00  0.00     0.053 A 
HETATM   25  C21 UNL     1      27.175  -0.252  52.933  1.00  0.00     0.128 A 
HETATM   26  C20 UNL     1      26.094  -0.166  52.112  1.00  0.00     0.045 A 
HETATM   27  F3  UNL     1      27.453  -1.502  53.424  1.00  0.00    -0.205 F 
HETATM   28  C19 UNL     1      25.753   1.063  51.582  1.00  0.00     0.032 A 
BRANCH  24  29
HETATM   29  C2  UNL     1      29.125   0.626  54.169  1.00  0.00     0.270 C 
HETATM   30  C1  UNL     1      30.215  -0.216  53.535  1.00  0.00     0.096 C 
HETATM   31  F1  UNL     1      28.676   0.028  55.334  1.00  0.00    -0.201 F 
HETATM   32  F2  UNL     1      29.678   1.861  54.438  1.00  0.00    -0.201 F 
ENDBRANCH  24  29
ENDBRANCH   1  22
TORSDOF 4
ENDMDL
MODEL 5
REMARK VINA RESULT:      -8.6      1.187      2.346
REMARK  4 active torsions:
REMARK  status: ('A' for Active; 'I' for Inactive)
REMARK    1  A    between atoms: C2_2  and  C3_5 
REMARK    2  A    between atoms: C5_7  and  N1_8 
REMARK       I    between atoms: N1_8  and  C6_9 
REMARK       I    between atoms: C6_9  and  N2_11 
REMARK    3  A    between atoms: N2_11  and  C7_12 
REMARK    4  A    between atoms: C15_21  and  C16_22 
ROOT
HETATM    1  N1  UNL     1      23.777   2.490  50.849  1.00  0.00    -0.309 N 
HETATM    2  C6  UNL     1      24.515   3.670  50.645  1.00  0.00     0.321 C 
HETATM    3  O1  UNL     1      25.167   4.001  51.658  1.00  0.00    -0.247 OA
HETATM    4  N2  UNL     1      24.413   4.296  49.357  1.00  0.00    -0.334 N 
HETATM    5  H5  UNL     1      23.163   2.099  50.074  1.00  0.00     0.170 HD
HETATM    6  H6  UNL     1      23.799   3.842  48.614  1.00  0.00     0.165 HD
ENDROOT
BRANCH   4   7
HETATM    7  C7  UNL     1      25.206   5.514  49.300  1.00  0.00     0.042 C 
HETATM    8  C8  UNL     1      26.345   4.906  48.945  1.00  0.00     0.095 C 
HETATM    9  C9  UNL     1      27.735   4.724  48.577  1.00  0.00     0.046 C 
HETATM   10  C10 UNL     1      28.430   6.015  48.381  1.00  0.00    -0.054 A 
HETATM   11  C11 UNL     1      29.769   6.260  48.221  1.00  0.00     0.026 A 
HETATM   12  C14 UNL     1      27.920   7.290  48.327  1.00  0.00     0.037 A 
HETATM   13  C12 UNL     1      30.191   7.590  48.064  1.00  0.00     0.117 A 
HETATM   14  N3  UNL     1      29.426   8.693  48.053  1.00  0.00    -0.262 NA
HETATM   15  C13 UNL     1      28.092   8.649  48.198  1.00  0.00     0.070 A 
HETATM   16  C15 UNL     1      26.685   9.243  48.341  1.00  0.00     0.240 C 
HETATM   17  O3  UNL     1      26.010   8.466  49.285  1.00  0.00    -0.345 OA
HETATM   18  C17 UNL     1      24.796   8.065  49.587  1.00  0.00     0.134 C 
HETATM   19  C18 UNL     1      24.419   6.755  49.602  1.00  0.00     0.023 C 
BRANCH  16  20
HETATM   20  C16 UNL     1      26.968  10.633  48.852  1.00  0.00     0.269 C 
HETATM   21  O2  UNL     1      26.010  11.394  48.637  1.00  0.00    -0.304 OA
ENDBRANCH  16  20
ENDBRANCH   4   7
BRANCH   1  22
HETATM   22  C5  UNL     1      23.484   1.480  51.804  1.00  0.00     0.037 A 
HETATM   23  C4  UNL     1      24.570   0.963  52.526  1.00  0.00     0.046 A 
HETATM   24  C3  UNL     1      24.354  -0.027  53.474  1.00  0.00     0.053 A 
HETATM   25  C21 UNL     1      23.057  -0.459  53.659  1.00  0.00     0.128 A 
HETATM   26  C20 UNL     1      21.995   0.035  52.965  1.00  0.00     0.045 A 
HETATM   27  F3  UNL     1      22.767  -1.433  54.579  1.00  0.00    -0.205 F 
HETATM   28  C19 UNL     1      22.212   1.020  52.023  1.00  0.00     0.032 A 
BRANCH  24  29
HETATM   29  C2  UNL     1      25.442  -0.640  54.274  1.00  0.00     0.270 C 
HETATM   30  C1  UNL     1      26.451   0.376  54.772  1.00  0.00     0.096 C 
HETATM   31  F1  UNL     1      26.070  -1.595  53.493  1.00  0.00    -0.201 F 
HETATM   32  F2  UNL     1      24.875  -1.222  55.389  1.00  0.00    -0.201 F 
ENDBRANCH  24  29
ENDBRANCH   1  22
TORSDOF 4
ENDMDL
MODEL 6
REMARK VINA RESULT:      -8.6      4.624      7.482
REMARK  4 active torsions:
REMARK  status: ('A' for Active; 'I' for Inactive)
REMARK    1  A    between atoms: C2_2  and  C3_5 
REMARK    2  A    between atoms: C5_7  and  N1_8 
REMARK       I    between atoms: N1_8  and  C6_9 
REMARK       I    between atoms: C6_9  and  N2_11 
REMARK    3  A    between atoms: N2_11  and  C7_12 
REMARK    4  A    between atoms: C15_21  and  C16_22 
ROOT
HETATM    1  N1  UNL     1      18.546  -1.535  53.788  1.00  0.00    -0.309 N 
HETATM    2  C6  UNL     1      19.473  -0.618  53.261  1.00  0.00     0.321 C 
HETATM    3  O1  UNL     1      19.381  -0.513  52.019  1.00  0.00    -0.247 OA
HETATM    4  N2  UNL     1      20.354   0.034  54.187  1.00  0.00    -0.334 N 
HETATM    5  H5  UNL     1      18.522  -1.735  54.832  1.00  0.00     0.170 HD
HETATM    6  H6  UNL     1      20.264  -0.190  55.225  1.00  0.00     0.165 HD
ENDROOT
BRANCH   4   7
HETATM    7  C7  UNL     1      21.270   0.931  53.499  1.00  0.00     0.042 C 
HETATM    8  C8  UNL     1      22.348   0.151  53.653  1.00  0.00     0.095 C 
HETATM    9  C9  UNL     1      23.720  -0.309  53.570  1.00  0.00     0.046 C 
HETATM   10  C10 UNL     1      24.550   0.573  52.719  1.00  0.00    -0.054 A 
HETATM   11  C11 UNL     1      25.910   0.584  52.554  1.00  0.00     0.026 A 
HETATM   12  C14 UNL     1      24.176   1.609  51.898  1.00  0.00     0.037 A 
HETATM   13  C12 UNL     1      26.472   1.539  51.692  1.00  0.00     0.117 A 
HETATM   14  N3  UNL     1      25.825   2.480  50.984  1.00  0.00    -0.262 NA
HETATM   15  C13 UNL     1      24.491   2.622  51.021  1.00  0.00     0.070 A 
HETATM   16  C15 UNL     1      23.149   3.286  50.682  1.00  0.00     0.240 C 
HETATM   17  O3  UNL     1      22.376   3.255  51.844  1.00  0.00    -0.345 OA
HETATM   18  C17 UNL     1      21.120   3.192  52.225  1.00  0.00     0.134 C 
HETATM   19  C18 UNL     1      20.609   2.166  52.965  1.00  0.00     0.023 C 
BRANCH  16  20
HETATM   20  C16 UNL     1      23.563   4.689  50.316  1.00  0.00     0.269 C 
HETATM   21  O2  UNL     1      23.712   5.391  51.329  1.00  0.00    -0.304 OA
ENDBRANCH  16  20
ENDBRANCH   4   7
BRANCH   1  22
HETATM   22  C5  UNL     1      17.492  -2.420  53.437  1.00  0.00     0.037 A 
HETATM   23  C4  UNL     1      16.435  -1.874  52.691  1.00  0.00     0.046 A 
HETATM   24  C3  UNL     1      15.372  -2.683  52.316  1.00  0.00     0.053 A 
HETATM   25  C21 UNL     1      15.412  -4.007  52.703  1.00  0.00     0.128 A 
HETATM   26  C20 UNL     1      16.431  -4.547  53.424  1.00  0.00     0.045 A 
HETATM   27  F3  UNL     1      14.398  -4.866  52.366  1.00  0.00    -0.205 F 
HETATM   28  C19 UNL     1      17.488  -3.741  53.797  1.00  0.00     0.032 A 
BRANCH  24  29
HETATM   29  C2  UNL     1      14.209  -2.190  51.540  1.00  0.00     0.270 C 
HETATM   30  C1  UNL     1      14.334  -0.730  51.153  1.00  0.00     0.096 C 
HETATM   31  F1  UNL     1      13.067  -2.387  52.298  1.00  0.00    -0.201 F 
HETATM   32  F2  UNL     1      14.142  -2.912  50.366  1.00  0.00    -0.201 F 
ENDBRANCH  24  29
ENDBRANCH   1  22
TORSDOF 4
ENDMDL
MODEL 7
REMARK VINA RESULT:      -8.5      4.175      7.457
REMARK  4 active torsions:
REMARK  status: ('A' for Active; 'I' for Inactive)
REMARK    1  A    between atoms: C2_2  and  C3_5 
REMARK    2  A    between atoms: C5_7  and  N1_8 
REMARK       I    between atoms: N1_8  and  C6_9 
REMARK       I    between atoms: C6_9  and  N2_11 
REMARK    3  A    between atoms: N2_11  and  C7_12 
REMARK    4  A    between atoms: C15_21  and  C16_22 
ROOT
HETATM    1  N1  UNL     1      18.511  -0.909  53.517  1.00  0.00    -0.309 N 
HETATM    2  C6  UNL     1      19.613  -0.172  53.046  1.00  0.00     0.321 C 
HETATM    3  O1  UNL     1      19.599  -0.044  51.803  1.00  0.00    -0.247 OA
HETATM    4  N2  UNL     1      20.553   0.303  54.020  1.00  0.00    -0.334 N 
HETATM    5  H5  UNL     1      18.404  -1.109  54.556  1.00  0.00     0.170 HD
HETATM    6  H6  UNL     1      20.376   0.091  55.050  1.00  0.00     0.165 HD
ENDROOT
BRANCH   4   7
HETATM    7  C7  UNL     1      21.648   1.023  53.388  1.00  0.00     0.042 C 
HETATM    8  C8  UNL     1      22.584   0.112  53.681  1.00  0.00     0.095 C 
HETATM    9  C9  UNL     1      23.878  -0.537  53.754  1.00  0.00     0.046 C 
HETATM   10  C10 UNL     1      24.900   0.171  52.952  1.00  0.00    -0.054 A 
HETATM   11  C11 UNL     1      26.257  -0.016  52.922  1.00  0.00     0.026 A 
HETATM   12  C14 UNL     1      24.754   1.200  52.053  1.00  0.00     0.037 A 
HETATM   13  C12 UNL     1      27.026   0.801  52.078  1.00  0.00     0.117 A 
HETATM   14  N3  UNL     1      26.588   1.780  51.269  1.00  0.00    -0.262 NA
HETATM   15  C13 UNL     1      25.290   2.108  51.168  1.00  0.00     0.070 A 
HETATM   16  C15 UNL     1      24.095   2.930  50.669  1.00  0.00     0.240 C 
HETATM   17  O3  UNL     1      23.221   3.073  51.750  1.00  0.00    -0.345 OA
HETATM   18  C17 UNL     1      21.940   3.206  52.006  1.00  0.00     0.134 C 
HETATM   19  C18 UNL     1      21.222   2.305  52.737  1.00  0.00     0.023 C 
BRANCH  16  20
HETATM   20  C16 UNL     1      24.737   4.239  50.285  1.00  0.00     0.269 C 
HETATM   21  O2  UNL     1      24.455   4.550  49.116  1.00  0.00    -0.304 OA
ENDBRANCH  16  20
ENDBRANCH   4   7
BRANCH   1  22
HETATM   22  C5  UNL     1      17.332  -1.586  53.106  1.00  0.00     0.037 A 
HETATM   23  C4  UNL     1      17.213  -2.931  53.489  1.00  0.00     0.046 A 
HETATM   24  C3  UNL     1      16.086  -3.651  53.119  1.00  0.00     0.053 A 
HETATM   25  C21 UNL     1      15.124  -2.994  52.380  1.00  0.00     0.128 A 
HETATM   26  C20 UNL     1      15.227  -1.690  52.005  1.00  0.00     0.045 A 
HETATM   27  F3  UNL     1      13.983  -3.641  51.982  1.00  0.00    -0.205 F 
HETATM   28  C19 UNL     1      16.349  -0.974  52.373  1.00  0.00     0.032 A 
BRANCH  24  29
HETATM   29  C2  UNL     1      15.882  -5.078  53.467  1.00  0.00     0.270 C 
HETATM   30  C1  UNL     1      15.004  -5.266  54.689  1.00  0.00     0.096 C 
HETATM   31  F1  UNL     1      17.123  -5.656  53.676  1.00  0.00    -0.201 F 
HETATM   32  F2  UNL     1      15.234  -5.686  52.411  1.00  0.00    -0.201 F 
ENDBRANCH  24  29
ENDBRANCH   1  22
TORSDOF 4
ENDMDL
MODEL 8
REMARK VINA RESULT:      -8.4      5.715     10.040
REMARK  4 active torsions:
REMARK  status: ('A' for Active; 'I' for Inactive)
REMARK    1  A    between atoms: C2_2  and  C3_5 
REMARK    2  A    between atoms: C5_7  and  N1_8 
REMARK       I    between atoms: N1_8  and  C6_9 
REMARK       I    between atoms: C6_9  and  N2_11 
REMARK    3  A    between atoms: N2_11  and  C7_12 
REMARK    4  A    between atoms: C15_21  and  C16_22 
ROOT
HETATM    1  N1  UNL     1      22.439   0.029  52.598  1.00  0.00    -0.309 N 
HETATM    2  C6  UNL     1      21.071   0.272  52.819  1.00  0.00     0.321 C 
HETATM    3  O1  UNL     1      20.832   0.587  54.004  1.00  0.00    -0.247 OA
HETATM    4  N2  UNL     1      20.187   0.126  51.698  1.00  0.00    -0.334 N 
HETATM    5  H5  UNL     1      22.784  -0.264  51.636  1.00  0.00     0.170 HD
HETATM    6  H6  UNL     1      20.598  -0.146  50.753  1.00  0.00     0.165 HD
ENDROOT
BRANCH   4   7
HETATM    7  C7  UNL     1      18.807   0.383  52.080  1.00  0.00     0.042 C 
HETATM    8  C8  UNL     1      18.803   1.663  51.683  1.00  0.00     0.095 C 
HETATM    9  C9  UNL     1      18.329   3.007  51.424  1.00  0.00     0.046 C 
HETATM   10  C10 UNL     1      16.879   3.144  51.685  1.00  0.00    -0.054 A 
HETATM   11  C11 UNL     1      16.114   4.279  51.743  1.00  0.00     0.026 A 
HETATM   12  C14 UNL     1      15.938   2.178  51.950  1.00  0.00     0.037 A 
HETATM   13  C12 UNL     1      14.745   4.150  52.023  1.00  0.00     0.117 A 
HETATM   14  N3  UNL     1      14.062   3.016  52.253  1.00  0.00    -0.262 NA
HETATM   15  C13 UNL     1      14.645   1.807  52.240  1.00  0.00     0.070 A 
HETATM   16  C15 UNL     1      14.696   0.282  52.402  1.00  0.00     0.240 C 
HETATM   17  O3  UNL     1      15.919  -0.021  53.004  1.00  0.00    -0.345 OA
HETATM   18  C17 UNL     1      16.816  -0.979  53.049  1.00  0.00     0.134 C 
HETATM   19  C18 UNL     1      18.109  -0.817  52.644  1.00  0.00     0.023 C 
BRANCH  16  20
HETATM   20  C16 UNL     1      13.531   0.013  53.321  1.00  0.00     0.269 C 
HETATM   21  O2  UNL     1      12.502  -0.245  52.676  1.00  0.00    -0.304 OA
ENDBRANCH  16  20
ENDBRANCH   4   7
BRANCH   1  22
HETATM   22  C5  UNL     1      23.711   0.013  53.231  1.00  0.00     0.037 A 
HETATM   23  C4  UNL     1      24.690   0.863  52.694  1.00  0.00     0.046 A 
HETATM   24  C3  UNL     1      25.955   0.895  53.263  1.00  0.00     0.053 A 
HETATM   25  C21 UNL     1      26.187   0.074  54.348  1.00  0.00     0.128 A 
HETATM   26  C20 UNL     1      25.245  -0.753  54.878  1.00  0.00     0.045 A 
HETATM   27  F3  UNL     1      27.411   0.055  54.964  1.00  0.00    -0.205 F 
HETATM   28  C19 UNL     1      23.987  -0.784  54.310  1.00  0.00     0.032 A 
BRANCH  24  29
HETATM   29  C2  UNL     1      27.055   1.751  52.756  1.00  0.00     0.270 C 
HETATM   30  C1  UNL     1      26.681   2.503  51.494  1.00  0.00     0.096 C 
HETATM   31  F1  UNL     1      28.158   0.948  52.525  1.00  0.00    -0.201 F 
HETATM   32  F2  UNL     1      27.337   2.698  53.719  1.00  0.00    -0.201 F 
ENDBRANCH  24  29
ENDBRANCH   1  22
TORSDOF 4
ENDMDL
MODEL 9
REMARK VINA RESULT:      -8.3      3.177      4.439
REMARK  4 active torsions:
REMARK  status: ('A' for Active; 'I' for Inactive)
REMARK    1  A    between atoms: C2_2  and  C3_5 
REMARK    2  A    between atoms: C5_7  and  N1_8 
REMARK       I    between atoms: N1_8  and  C6_9 
REMARK       I    between atoms: C6_9  and  N2_11 
REMARK    3  A    between atoms: N2_11  and  C7_12 
REMARK    4  A    between atoms: C15_21  and  C16_22 
ROOT
HETATM    1  N1  UNL     1      24.481   3.640  52.836  1.00  0.00    -0.309 N 
HETATM    2  C6  UNL     1      24.052   4.547  51.849  1.00  0.00     0.321 C 
HETATM    3  O1  UNL     1      23.980   4.016  50.720  1.00  0.00    -0.247 OA
HETATM    4  N2  UNL     1      23.775   5.891  52.266  1.00  0.00    -0.334 N 
HETATM    5  H5  UNL     1      24.602   3.960  53.843  1.00  0.00     0.170 HD
HETATM    6  H6  UNL     1      23.892   6.144  53.295  1.00  0.00     0.165 HD
ENDROOT
BRANCH   4   7
HETATM    7  C7  UNL     1      23.368   6.718  51.140  1.00  0.00     0.042 C 
HETATM    8  C8  UNL     1      24.599   7.167  50.863  1.00  0.00     0.095 C 
HETATM    9  C9  UNL     1      25.670   7.891  50.207  1.00  0.00     0.046 C 
HETATM   10  C10 UNL     1      25.207   8.573  48.979  1.00  0.00    -0.054 A 
HETATM   11  C11 UNL     1      25.859   9.497  48.204  1.00  0.00     0.026 A 
HETATM   12  C14 UNL     1      24.008   8.472  48.315  1.00  0.00     0.037 A 
HETATM   13  C12 UNL     1      25.196  10.017  47.082  1.00  0.00     0.117 A 
HETATM   14  N3  UNL     1      23.959   9.718  46.654  1.00  0.00    -0.262 NA
HETATM   15  C13 UNL     1      23.168   8.836  47.287  1.00  0.00     0.070 A 
HETATM   16  C15 UNL     1      21.873   8.051  47.534  1.00  0.00     0.240 C 
HETATM   17  O3  UNL     1      21.694   7.990  48.918  1.00  0.00    -0.345 OA
HETATM   18  C17 UNL     1      21.173   7.213  49.839  1.00  0.00     0.134 C 
HETATM   19  C18 UNL     1      21.902   6.638  50.838  1.00  0.00     0.023 C 
BRANCH  16  20
HETATM   20  C16 UNL     1      20.835   8.918  46.868  1.00  0.00     0.269 C 
HETATM   21  O2  UNL     1      20.566   9.911  47.563  1.00  0.00    -0.304 OA
ENDBRANCH  16  20
ENDBRANCH   4   7
BRANCH   1  22
HETATM   22  C5  UNL     1      24.871   2.292  53.054  1.00  0.00     0.037 A 
HETATM   23  C4  UNL     1      26.218   2.072  53.378  1.00  0.00     0.046 A 
HETATM   24  C3  UNL     1      26.667   0.778  53.603  1.00  0.00     0.053 A 
HETATM   25  C21 UNL     1      25.745  -0.243  53.493  1.00  0.00     0.128 A 
HETATM   26  C20 UNL     1      24.436  -0.042  53.181  1.00  0.00     0.045 A 
HETATM   27  F3  UNL     1      26.115  -1.546  53.704  1.00  0.00    -0.205 F 
HETATM   28  C19 UNL     1      23.992   1.246  52.957  1.00  0.00     0.032 A 
BRANCH  24  29
HETATM   29  C2  UNL     1      28.074   0.450  53.937  1.00  0.00     0.270 C 
HETATM   30  C1  UNL     1      28.966   1.675  53.994  1.00  0.00     0.096 C 
HETATM   31  F1  UNL     1      28.547  -0.443  52.992  1.00  0.00    -0.201 F 
HETATM   32  F2  UNL     1      28.092  -0.118  55.194  1.00  0.00    -0.201 F 
ENDBRANCH  24  29
ENDBRANCH   1  22
TORSDOF 4
ENDMDL
