MODEL 1
REMARK VINA RESULT:      -8.7      0.000      0.000
REMARK  4 active torsions:
REMARK  status: ('A' for Active; 'I' for Inactive)
REMARK    1  A    between atoms: N1_1  and  C1_2 
REMARK    2  A    between atoms: N2_8  and  C6_9 
REMARK    3  A    between atoms: C11_15  and  C12_16 
REMARK    4  A    between atoms: C12_16  and  O2_18 
ROOT
HETATM    1  C6  UNL     1      25.449   2.534  51.614  1.00  0.00     0.068 A 
HETATM    2  C7  UNL     1      24.324   1.847  51.699  1.00  0.00     0.107 A 
HETATM    3  N3  UNL     1      23.140   1.998  50.928  1.00  0.00    -0.380 N 
HETATM    4  C8  UNL     1      22.092   1.014  50.720  1.00  0.00     0.161 C 
HETATM    5  C9  UNL     1      21.705   0.288  51.935  1.00  0.00    -0.006 A 
HETATM    6  C10 UNL     1      20.328   0.040  51.938  1.00  0.00     0.029 A 
HETATM    7  C11 UNL     1      19.678  -0.625  52.954  1.00  0.00     0.038 A 
HETATM    8  C13 UNL     1      20.374  -1.087  54.038  1.00  0.00     0.021 A 
HETATM    9  C14 UNL     1      21.715  -0.867  54.076  1.00  0.00     0.039 A 
HETATM   10  C15 UNL     1      22.367  -0.191  53.043  1.00  0.00     0.086 A 
HETATM   11  O3  UNL     1      23.735  -0.076  53.282  1.00  0.00    -0.290 OA
HETATM   12  C16 UNL     1      24.602   0.903  52.774  1.00  0.00     0.194 A 
HETATM   13  N4  UNL     1      25.780   1.014  53.283  1.00  0.00    -0.259 NA
HETATM   14  C17 UNL     1      26.469   2.084  52.594  1.00  0.00     0.212 A 
HETATM   15  H5  UNL     1      23.099   2.961  50.496  1.00  0.00     0.160 HD
ENDROOT
BRANCH   1  16
HETATM   16  N2  UNL     1      25.662   3.603  50.674  1.00  0.00    -0.306 N 
HETATM   17  C1  UNL     1      24.997   4.845  50.958  1.00  0.00     0.123 C 
HETATM   18  C2  UNL     1      25.168   5.854  50.114  1.00  0.00     0.056 C 
HETATM   19 BR1  UNL     1      24.326   7.549  50.405  1.00  0.00    -0.047 Br
HETATM   20  C3  UNL     1      26.011   5.689  48.935  1.00  0.00     0.036 C 
HETATM   21  C4  UNL     1      26.843   4.666  48.974  1.00  0.00    -0.007 C 
HETATM   22  C5  UNL     1      26.465   3.534  49.498  1.00  0.00     0.111 C 
BRANCH  17  23
HETATM   23  N1  UNL     1      24.167   5.032  52.105  1.00  0.00    -0.384 N 
HETATM   24  H1  UNL     1      24.703   4.688  52.949  1.00  0.00     0.157 HD
HETATM   25  H2  UNL     1      23.204   5.421  52.206  1.00  0.00     0.157 HD
ENDBRANCH  17  23
ENDBRANCH   1  16
BRANCH   7  26
HETATM   26  C12 UNL     1      18.241  -0.834  52.863  1.00  0.00     0.176 C 
HETATM   27  O1  UNL     1      17.661  -0.694  51.753  1.00  0.00    -0.646 OA
BRANCH  26  28
HETATM   28  O2  UNL     1      17.495  -1.186  53.980  1.00  0.00    -0.773 OA
HETATM   29  H9  UNL     1      17.529  -2.151  54.327  1.00  0.00     0.167 HD
ENDBRANCH  26  28
ENDBRANCH   7  26
TORSDOF 4
ENDMDL
MODEL 2
REMARK VINA RESULT:      -8.6      2.649      4.118
REMARK  4 active torsions:
REMARK  status: ('A' for Active; 'I' for Inactive)
REMARK    1  A    between atoms: N1_1  and  C1_2 
REMARK    2  A    between atoms: N2_8  and  C6_9 
REMARK    3  A    between atoms: C11_15  and  C12_16 
REMARK    4  A    between atoms: C12_16  and  O2_18 
ROOT
HETATM    1  C6  UNL     1      25.105   1.278  51.953  1.00  0.00     0.068 A 
HETATM    2  C7  UNL     1      23.882   0.950  52.328  1.00  0.00     0.107 A 
HETATM    3  N3  UNL     1      23.483  -0.066  53.239  1.00  0.00    -0.380 N 
HETATM    4  C8  UNL     1      22.228  -0.157  53.963  1.00  0.00     0.161 C 
HETATM    5  C9  UNL     1      21.046   0.160  53.153  1.00  0.00    -0.006 A 
HETATM    6  C10 UNL     1      19.971  -0.659  53.516  1.00  0.00     0.029 A 
HETATM    7  C11 UNL     1      18.730  -0.589  52.925  1.00  0.00     0.038 A 
HETATM    8  C13 UNL     1      18.486   0.314  51.926  1.00  0.00     0.021 A 
HETATM    9  C14 UNL     1      19.503   1.130  51.541  1.00  0.00     0.039 A 
HETATM   10  C15 UNL     1      20.760   1.052  52.145  1.00  0.00     0.086 A 
HETATM   11  O3  UNL     1      21.652   1.976  51.603  1.00  0.00    -0.290 OA
HETATM   12  C16 UNL     1      23.052   1.884  51.578  1.00  0.00     0.194 A 
HETATM   13  N4  UNL     1      23.714   2.694  50.827  1.00  0.00    -0.259 NA
HETATM   14  C17 UNL     1      25.122   2.399  50.979  1.00  0.00     0.212 A 
HETATM   15  H5  UNL     1      24.243  -0.794  53.338  1.00  0.00     0.160 HD
ENDROOT
BRANCH   1  16
HETATM   16  N2  UNL     1      26.291   0.621  52.435  1.00  0.00    -0.306 N 
HETATM   17  C1  UNL     1      27.142   1.392  53.300  1.00  0.00     0.123 C 
HETATM   18  C2  UNL     1      28.245   0.821  53.764  1.00  0.00     0.056 C 
HETATM   19 BR1  UNL     1      29.444   1.766  54.922  1.00  0.00    -0.047 Br
HETATM   20  C3  UNL     1      28.570  -0.553  53.397  1.00  0.00     0.036 C 
HETATM   21  C4  UNL     1      27.564  -1.264  52.925  1.00  0.00    -0.007 C 
HETATM   22  C5  UNL     1      26.689  -0.714  52.131  1.00  0.00     0.111 C 
BRANCH  17  23
HETATM   23  N1  UNL     1      26.846   2.739  53.672  1.00  0.00    -0.384 N 
HETATM   24  H1  UNL     1      26.141   3.117  52.980  1.00  0.00     0.157 HD
HETATM   25  H2  UNL     1      27.199   3.333  54.455  1.00  0.00     0.157 HD
ENDBRANCH  17  23
ENDBRANCH   1  16
BRANCH   7  26
HETATM   26  C12 UNL     1      17.675  -1.486  53.374  1.00  0.00     0.176 C 
HETATM   27  O1  UNL     1      17.947  -2.692  53.617  1.00  0.00    -0.646 OA
BRANCH  26  28
HETATM   28  O2  UNL     1      16.373  -1.035  53.541  1.00  0.00    -0.773 OA
HETATM   29  H9  UNL     1      16.199  -0.034  53.685  1.00  0.00     0.167 HD
ENDBRANCH  26  28
ENDBRANCH   7  26
TORSDOF 4
ENDMDL
MODEL 3
REMARK VINA RESULT:      -8.2      2.581      3.758
REMARK  4 active torsions:
REMARK  status: ('A' for Active; 'I' for Inactive)
REMARK    1  A    between atoms: N1_1  and  C1_2 
REMARK    2  A    between atoms: N2_8  and  C6_9 
REMARK    3  A    between atoms: C11_15  and  C12_16 
REMARK    4  A    between atoms: C12_16  and  O2_18 
ROOT
HETATM    1  C6  UNL     1      25.089   4.741  50.207  1.00  0.00     0.068 A 
HETATM    2  C7  UNL     1      24.638   3.677  50.848  1.00  0.00     0.107 A 
HETATM    3  N3  UNL     1      23.362   3.482  51.442  1.00  0.00    -0.380 N 
HETATM    4  C8  UNL     1      22.722   2.219  51.760  1.00  0.00     0.161 C 
HETATM    5  C9  UNL     1      23.619   1.232  52.374  1.00  0.00    -0.006 A 
HETATM    6  C10 UNL     1      22.936   0.487  53.342  1.00  0.00     0.029 A 
HETATM    7  C11 UNL     1      23.524  -0.513  54.084  1.00  0.00     0.038 A 
HETATM    8  C13 UNL     1      24.842  -0.832  53.900  1.00  0.00     0.021 A 
HETATM    9  C14 UNL     1      25.543  -0.132  52.968  1.00  0.00     0.039 A 
HETATM   10  C15 UNL     1      24.941   0.881  52.220  1.00  0.00     0.086 A 
HETATM   11  O3  UNL     1      25.835   1.466  51.325  1.00  0.00    -0.290 OA
HETATM   12  C16 UNL     1      25.771   2.762  50.791  1.00  0.00     0.194 A 
HETATM   13  N4  UNL     1      26.800   3.232  50.176  1.00  0.00    -0.259 NA
HETATM   14  C17 UNL     1      26.483   4.569  49.725  1.00  0.00     0.212 A 
HETATM   15  H5  UNL     1      22.900   4.411  51.641  1.00  0.00     0.160 HD
ENDROOT
BRANCH   1  16
HETATM   16  N2  UNL     1      24.314   5.935  50.001  1.00  0.00    -0.306 N 
HETATM   17  C1  UNL     1      23.376   5.908  48.911  1.00  0.00     0.123 C 
HETATM   18  C2  UNL     1      22.644   6.991  48.688  1.00  0.00     0.056 C 
HETATM   19 BR1  UNL     1      21.368   7.054  47.262  1.00  0.00    -0.047 Br
HETATM   20  C3  UNL     1      22.799   8.168  49.536  1.00  0.00     0.036 C 
HETATM   21  C4  UNL     1      23.392   7.955  50.695  1.00  0.00    -0.007 C 
HETATM   22  C5  UNL     1      24.397   7.130  50.775  1.00  0.00     0.111 C 
BRANCH  17  23
HETATM   23  N1  UNL     1      23.207   4.768  48.067  1.00  0.00    -0.384 N 
HETATM   24  H1  UNL     1      22.210   4.434  48.174  1.00  0.00     0.157 HD
HETATM   25  H2  UNL     1      23.870   4.277  47.428  1.00  0.00     0.157 HD
ENDBRANCH  17  23
ENDBRANCH   1  16
BRANCH   7  26
HETATM   26  C12 UNL     1      22.728  -1.231  55.068  1.00  0.00     0.176 C 
HETATM   27  O1  UNL     1      21.472  -1.242  54.964  1.00  0.00    -0.646 OA
BRANCH  26  28
HETATM   28  O2  UNL     1      23.329  -1.905  56.123  1.00  0.00    -0.773 OA
HETATM   29  H9  UNL     1      22.748  -2.446  56.773  1.00  0.00     0.167 HD
ENDBRANCH  26  28
ENDBRANCH   7  26
TORSDOF 4
ENDMDL
MODEL 4
REMARK VINA RESULT:      -8.2      3.304      4.912
REMARK  4 active torsions:
REMARK  status: ('A' for Active; 'I' for Inactive)
REMARK    1  A    between atoms: N1_1  and  C1_2 
REMARK    2  A    between atoms: N2_8  and  C6_9 
REMARK    3  A    between atoms: C11_15  and  C12_16 
REMARK    4  A    between atoms: C12_16  and  O2_18 
ROOT
HETATM    1  C6  UNL     1      23.228   5.059  50.792  1.00  0.00     0.068 A 
HETATM    2  C7  UNL     1      23.945   4.040  51.233  1.00  0.00     0.107 A 
HETATM    3  N3  UNL     1      25.231   3.616  50.803  1.00  0.00    -0.380 N 
HETATM    4  C8  UNL     1      26.180   2.798  51.536  1.00  0.00     0.161 C 
HETATM    5  C9  UNL     1      25.575   1.651  52.222  1.00  0.00    -0.006 A 
HETATM    6  C10 UNL     1      26.434   0.547  52.178  1.00  0.00     0.029 A 
HETATM    7  C11 UNL     1      26.131  -0.673  52.741  1.00  0.00     0.038 A 
HETATM    8  C13 UNL     1      24.941  -0.864  53.388  1.00  0.00     0.021 A 
HETATM    9  C14 UNL     1      24.076   0.184  53.454  1.00  0.00     0.039 A 
HETATM   10  C15 UNL     1      24.389   1.417  52.880  1.00  0.00     0.086 A 
HETATM   11  O3  UNL     1      23.368   2.348  53.064  1.00  0.00    -0.290 OA
HETATM   12  C16 UNL     1      23.089   3.466  52.264  1.00  0.00     0.194 A 
HETATM   13  N4  UNL     1      21.969   4.081  52.425  1.00  0.00    -0.259 NA
HETATM   14  C17 UNL     1      21.924   5.185  51.491  1.00  0.00     0.212 A 
HETATM   15  H5  UNL     1      25.436   3.981  49.832  1.00  0.00     0.160 HD
ENDROOT
BRANCH   1  16
HETATM   16  N2  UNL     1      23.664   5.947  49.747  1.00  0.00    -0.306 N 
HETATM   17  C1  UNL     1      24.535   7.020  50.144  1.00  0.00     0.123 C 
HETATM   18  C2  UNL     1      24.958   7.862  49.210  1.00  0.00     0.056 C 
HETATM   19 BR1  UNL     1      26.120   9.323  49.637  1.00  0.00    -0.047 Br
HETATM   20  C3  UNL     1      24.540   7.687  47.823  1.00  0.00     0.036 C 
HETATM   21  C4  UNL     1      24.066   6.493  47.522  1.00  0.00    -0.007 C 
HETATM   22  C5  UNL     1      23.309   5.856  48.370  1.00  0.00     0.111 C 
BRANCH  17  23
HETATM   23  N1  UNL     1      24.957   7.213  51.495  1.00  0.00    -0.384 N 
HETATM   24  H1  UNL     1      25.992   7.426  51.481  1.00  0.00     0.157 HD
HETATM   25  H2  UNL     1      24.431   7.174  52.396  1.00  0.00     0.157 HD
ENDBRANCH  17  23
ENDBRANCH   1  16
BRANCH   7  26
HETATM   26  C12 UNL     1      27.093  -1.761  52.641  1.00  0.00     0.176 C 
HETATM   27  O1  UNL     1      26.827  -2.763  51.926  1.00  0.00    -0.646 OA
BRANCH  26  28
HETATM   28  O2  UNL     1      28.302  -1.714  53.323  1.00  0.00    -0.773 OA
HETATM   29  H9  UNL     1      28.481  -0.947  53.981  1.00  0.00     0.167 HD
ENDBRANCH  26  28
ENDBRANCH   7  26
TORSDOF 4
ENDMDL
MODEL 5
REMARK VINA RESULT:      -8.1      3.084      6.181
REMARK  4 active torsions:
REMARK  status: ('A' for Active; 'I' for Inactive)
REMARK    1  A    between atoms: N1_1  and  C1_2 
REMARK    2  A    between atoms: N2_8  and  C6_9 
REMARK    3  A    between atoms: C11_15  and  C12_16 
REMARK    4  A    between atoms: C12_16  and  O2_18 
ROOT
HETATM    1  C6  UNL     1      21.781   1.363  50.767  1.00  0.00     0.068 A 
HETATM    2  C7  UNL     1      22.914   1.497  51.435  1.00  0.00     0.107 A 
HETATM    3  N3  UNL     1      23.980   2.403  51.189  1.00  0.00    -0.380 N 
HETATM    4  C8  UNL     1      24.997   2.841  52.127  1.00  0.00     0.161 C 
HETATM    5  C9  UNL     1      25.553   1.763  52.952  1.00  0.00    -0.006 A 
HETATM    6  C10 UNL     1      26.920   1.970  53.170  1.00  0.00     0.029 A 
HETATM    7  C11 UNL     1      27.708   1.118  53.911  1.00  0.00     0.038 A 
HETATM    8  C13 UNL     1      27.172  -0.002  54.485  1.00  0.00     0.021 A 
HETATM    9  C14 UNL     1      25.846  -0.242  54.298  1.00  0.00     0.039 A 
HETATM   10  C15 UNL     1      25.054   0.626  53.545  1.00  0.00     0.086 A 
HETATM   11  O3  UNL     1      23.730   0.194  53.481  1.00  0.00    -0.290 OA
HETATM   12  C16 UNL     1      22.793   0.486  52.478  1.00  0.00     0.194 A 
HETATM   13  N4  UNL     1      21.695  -0.186  52.439  1.00  0.00    -0.259 NA
HETATM   14  C17 UNL     1      20.909   0.301  51.327  1.00  0.00     0.212 A 
HETATM   15  H5  UNL     1      23.953   2.745  50.189  1.00  0.00     0.160 HD
ENDROOT
BRANCH   1  16
HETATM   16  N2  UNL     1      21.433   2.162  49.621  1.00  0.00    -0.306 N 
HETATM   17  C1  UNL     1      20.678   3.358  49.882  1.00  0.00     0.123 C 
HETATM   18  C2  UNL     1      20.337   4.120  48.852  1.00  0.00     0.056 C 
HETATM   19 BR1  UNL     1      19.333   5.732  49.095  1.00  0.00    -0.047 Br
HETATM   20  C3  UNL     1      20.726   3.739  47.498  1.00  0.00     0.036 C 
HETATM   21  C4  UNL     1      21.704   2.858  47.418  1.00  0.00    -0.007 C 
HETATM   22  C5  UNL     1      21.767   1.870  48.267  1.00  0.00     0.111 C 
BRANCH  17  23
HETATM   23  N1  UNL     1      20.286   3.751  51.198  1.00  0.00    -0.384 N 
HETATM   24  H1  UNL     1      19.961   2.884  51.709  1.00  0.00     0.157 HD
HETATM   25  H2  UNL     1      20.280   4.683  51.668  1.00  0.00     0.157 HD
ENDBRANCH  17  23
ENDBRANCH   1  16
BRANCH   7  26
HETATM   26  C12 UNL     1      29.122   1.422  54.080  1.00  0.00     0.176 C 
HETATM   27  O1  UNL     1      29.465   2.433  54.750  1.00  0.00    -0.646 OA
BRANCH  26  28
HETATM   28  O2  UNL     1      30.101   0.616  53.516  1.00  0.00    -0.773 OA
HETATM   29  H9  UNL     1      30.408   0.794  52.553  1.00  0.00     0.167 HD
ENDBRANCH  26  28
ENDBRANCH   7  26
TORSDOF 4
ENDMDL
MODEL 6
REMARK VINA RESULT:      -7.9      4.398      8.550
REMARK  4 active torsions:
REMARK  status: ('A' for Active; 'I' for Inactive)
REMARK    1  A    between atoms: N1_1  and  C1_2 
REMARK    2  A    between atoms: N2_8  and  C6_9 
REMARK    3  A    between atoms: C11_15  and  C12_16 
REMARK    4  A    between atoms: C12_16  and  O2_18 
ROOT
HETATM    1  C6  UNL     1      24.590   2.956  52.275  1.00  0.00     0.068 A 
HETATM    2  C7  UNL     1      25.232   3.581  51.303  1.00  0.00     0.107 A 
HETATM    3  N3  UNL     1      26.357   3.134  50.560  1.00  0.00    -0.380 N 
HETATM    4  C8  UNL     1      26.793   3.598  49.256  1.00  0.00     0.161 C 
HETATM    5  C9  UNL     1      26.743   5.055  49.093  1.00  0.00    -0.006 A 
HETATM    6  C10 UNL     1      27.822   5.498  48.318  1.00  0.00     0.029 A 
HETATM    7  C11 UNL     1      28.035   6.820  47.999  1.00  0.00     0.038 A 
HETATM    8  C13 UNL     1      27.175   7.789  48.439  1.00  0.00     0.021 A 
HETATM    9  C14 UNL     1      26.113   7.403  49.196  1.00  0.00     0.039 A 
HETATM   10  C15 UNL     1      25.903   6.060  49.516  1.00  0.00     0.086 A 
HETATM   11  O3  UNL     1      24.761   5.886  50.296  1.00  0.00    -0.290 OA
HETATM   12  C16 UNL     1      24.499   4.836  51.188  1.00  0.00     0.194 A 
HETATM   13  N4  UNL     1      23.514   4.951  52.010  1.00  0.00    -0.259 NA
HETATM   14  C17 UNL     1      23.456   3.748  52.812  1.00  0.00     0.212 A 
HETATM   15  H5  UNL     1      26.876   2.382  51.091  1.00  0.00     0.160 HD
ENDROOT
BRANCH   1  16
HETATM   16  N2  UNL     1      24.953   1.650  52.758  1.00  0.00    -0.306 N 
HETATM   17  C1  UNL     1      26.174   1.565  53.513  1.00  0.00     0.123 C 
HETATM   18  C2  UNL     1      26.542   0.377  53.975  1.00  0.00     0.056 C 
HETATM   19 BR1  UNL     1      28.151   0.159  54.991  1.00  0.00    -0.047 Br
HETATM   20  C3  UNL     1      25.719  -0.799  53.714  1.00  0.00     0.036 C 
HETATM   21  C4  UNL     1      24.476  -0.549  53.351  1.00  0.00    -0.007 C 
HETATM   22  C5  UNL     1      24.214   0.448  52.552  1.00  0.00     0.111 C 
BRANCH  17  23
HETATM   23  N1  UNL     1      26.996   2.701  53.781  1.00  0.00    -0.384 N 
HETATM   24  H1  UNL     1      27.342   3.073  52.854  1.00  0.00     0.157 HD
HETATM   25  H2  UNL     1      27.269   3.161  54.678  1.00  0.00     0.157 HD
ENDBRANCH  17  23
ENDBRANCH   1  16
BRANCH   7  26
HETATM   26  C12 UNL     1      29.188   7.179  47.186  1.00  0.00     0.176 C 
HETATM   27  O1  UNL     1      29.018   7.828  46.119  1.00  0.00    -0.646 OA
BRANCH  26  28
HETATM   28  O2  UNL     1      30.474   6.817  47.565  1.00  0.00    -0.773 OA
HETATM   29  H9  UNL     1      30.797   7.027  48.516  1.00  0.00     0.167 HD
ENDBRANCH  26  28
ENDBRANCH   7  26
TORSDOF 4
ENDMDL
MODEL 7
REMARK VINA RESULT:      -7.7      3.219      5.626
REMARK  4 active torsions:
REMARK  status: ('A' for Active; 'I' for Inactive)
REMARK    1  A    between atoms: N1_1  and  C1_2 
REMARK    2  A    between atoms: N2_8  and  C6_9 
REMARK    3  A    between atoms: C11_15  and  C12_16 
REMARK    4  A    between atoms: C12_16  and  O2_18 
ROOT
HETATM    1  C6  UNL     1      22.091   3.786  50.854  1.00  0.00     0.068 A 
HETATM    2  C7  UNL     1      23.002   3.199  51.610  1.00  0.00     0.107 A 
HETATM    3  N3  UNL     1      24.165   3.772  52.192  1.00  0.00    -0.380 N 
HETATM    4  C8  UNL     1      24.917   3.275  53.330  1.00  0.00     0.161 C 
HETATM    5  C9  UNL     1      25.134   1.824  53.315  1.00  0.00    -0.006 A 
HETATM    6  C10 UNL     1      26.400   1.513  53.824  1.00  0.00     0.029 A 
HETATM    7  C11 UNL     1      26.881   0.228  53.932  1.00  0.00     0.038 A 
HETATM    8  C13 UNL     1      26.117  -0.836  53.533  1.00  0.00     0.021 A 
HETATM    9  C14 UNL     1      24.879  -0.579  53.031  1.00  0.00     0.039 A 
HETATM   10  C15 UNL     1      24.399   0.727  52.924  1.00  0.00     0.086 A 
HETATM   11  O3  UNL     1      23.113   0.764  52.387  1.00  0.00    -0.290 OA
HETATM   12  C16 UNL     1      22.516   1.828  51.695  1.00  0.00     0.194 A 
HETATM   13  N4  UNL     1      21.420   1.614  51.052  1.00  0.00    -0.259 NA
HETATM   14  C17 UNL     1      21.014   2.856  50.431  1.00  0.00     0.212 A 
HETATM   15  H5  UNL     1      24.442   4.652  51.677  1.00  0.00     0.160 HD
ENDROOT
BRANCH   1  16
HETATM   16  N2  UNL     1      22.138   5.176  50.482  1.00  0.00    -0.306 N 
HETATM   17  C1  UNL     1      22.802   5.483  49.245  1.00  0.00     0.123 C 
HETATM   18  C2  UNL     1      22.867   6.754  48.869  1.00  0.00     0.056 C 
HETATM   19 BR1  UNL     1      23.731   7.266  47.238  1.00  0.00    -0.047 Br
HETATM   20  C3  UNL     1      22.275   7.796  49.700  1.00  0.00     0.036 C 
HETATM   21  C4  UNL     1      21.393   7.377  50.588  1.00  0.00    -0.007 C 
HETATM   22  C5  UNL     1      21.589   6.260  51.229  1.00  0.00     0.111 C 
BRANCH  17  23
HETATM   23  N1  UNL     1      23.390   4.481  48.415  1.00  0.00    -0.384 N 
HETATM   24  H1  UNL     1      23.122   4.694  47.415  1.00  0.00     0.157 HD
HETATM   25  H2  UNL     1      23.986   3.655  48.644  1.00  0.00     0.157 HD
ENDBRANCH  17  23
ENDBRANCH   1  16
BRANCH   7  26
HETATM   26  C12 UNL     1      28.212   0.009  54.477  1.00  0.00     0.176 C 
HETATM   27  O1  UNL     1      28.711   0.859  55.262  1.00  0.00    -0.646 OA
BRANCH  26  28
HETATM   28  O2  UNL     1      28.946  -1.123  54.146  1.00  0.00    -0.773 OA
HETATM   29  H9  UNL     1      29.581  -1.533  54.839  1.00  0.00     0.167 HD
ENDBRANCH  26  28
ENDBRANCH   7  26
TORSDOF 4
ENDMDL
MODEL 8
REMARK VINA RESULT:      -7.6      5.058      7.643
REMARK  4 active torsions:
REMARK  status: ('A' for Active; 'I' for Inactive)
REMARK    1  A    between atoms: N1_1  and  C1_2 
REMARK    2  A    between atoms: N2_8  and  C6_9 
REMARK    3  A    between atoms: C11_15  and  C12_16 
REMARK    4  A    between atoms: C12_16  and  O2_18 
ROOT
HETATM    1  C6  UNL     1      29.935   7.326  48.186  1.00  0.00     0.068 A 
HETATM    2  C7  UNL     1      28.764   6.842  48.562  1.00  0.00     0.107 A 
HETATM    3  N3  UNL     1      27.640   7.549  49.067  1.00  0.00    -0.380 N 
HETATM    4  C8  UNL     1      26.256   7.110  49.080  1.00  0.00     0.161 C 
HETATM    5  C9  UNL     1      26.077   5.710  49.480  1.00  0.00    -0.006 A 
HETATM    6  C10 UNL     1      24.912   5.564  50.241  1.00  0.00     0.029 A 
HETATM    7  C11 UNL     1      24.487   4.360  50.757  1.00  0.00     0.038 A 
HETATM    8  C13 UNL     1      25.208   3.218  50.539  1.00  0.00     0.021 A 
HETATM    9  C14 UNL     1      26.349   3.314  49.804  1.00  0.00     0.039 A 
HETATM   10  C15 UNL     1      26.773   4.539  49.285  1.00  0.00     0.086 A 
HETATM   11  O3  UNL     1      27.960   4.412  48.566  1.00  0.00    -0.290 OA
HETATM   12  C16 UNL     1      28.918   5.411  48.332  1.00  0.00     0.194 A 
HETATM   13  N4  UNL     1      30.068   5.071  47.862  1.00  0.00    -0.259 NA
HETATM   14  C17 UNL     1      30.864   6.269  47.713  1.00  0.00     0.212 A 
HETATM   15  H5  UNL     1      27.935   8.486  49.456  1.00  0.00     0.160 HD
ENDROOT
BRANCH   1  16
HETATM   16  N2  UNL     1      30.271   8.724  48.231  1.00  0.00    -0.306 N 
HETATM   17  C1  UNL     1      30.062   9.471  47.021  1.00  0.00     0.123 C 
HETATM   18  C2  UNL     1      30.361  10.763  47.022  1.00  0.00     0.056 C 
HETATM   19 BR1  UNL     1      30.119  11.844  45.460  1.00  0.00    -0.047 Br
HETATM   20  C3  UNL     1      30.887  11.392  48.229  1.00  0.00     0.036 C 
HETATM   21  C4  UNL     1      30.687  10.722  49.348  1.00  0.00    -0.007 C 
HETATM   22  C5  UNL     1      30.789   9.423  49.361  1.00  0.00     0.111 C 
BRANCH  17  23
HETATM   23  N1  UNL     1      29.550   8.878  45.827  1.00  0.00    -0.384 N 
HETATM   24  H1  UNL     1      29.609   9.601  45.058  1.00  0.00     0.157 HD
HETATM   25  H2  UNL     1      29.167   7.925  45.637  1.00  0.00     0.157 HD
ENDBRANCH  17  23
ENDBRANCH   1  16
BRANCH   7  26
HETATM   26  C12 UNL     1      23.259   4.313  51.536  1.00  0.00     0.176 C 
HETATM   27  O1  UNL     1      22.599   3.241  51.593  1.00  0.00    -0.646 OA
BRANCH  26  28
HETATM   28  O2  UNL     1      22.800   5.431  52.220  1.00  0.00    -0.773 OA
HETATM   29  H9  UNL     1      23.433   5.928  52.857  1.00  0.00     0.167 HD
ENDBRANCH  26  28
ENDBRANCH   7  26
TORSDOF 4
ENDMDL
MODEL 9
REMARK VINA RESULT:      -7.5      6.827     10.472
REMARK  4 active torsions:
REMARK  status: ('A' for Active; 'I' for Inactive)
REMARK    1  A    between atoms: N1_1  and  C1_2 
REMARK    2  A    between atoms: N2_8  and  C6_9 
REMARK    3  A    between atoms: C11_15  and  C12_16 
REMARK    4  A    between atoms: C12_16  and  O2_18 
ROOT
HETATM    1  C6  UNL     1      25.737   7.737  49.590  1.00  0.00     0.068 A 
HETATM    2  C7  UNL     1      26.988   7.521  49.221  1.00  0.00     0.107 A 
HETATM    3  N3  UNL     1      27.561   6.326  48.709  1.00  0.00    -0.380 N 
HETATM    4  C8  UNL     1      28.778   6.198  47.928  1.00  0.00     0.161 C 
HETATM    5  C9  UNL     1      29.894   7.013  48.421  1.00  0.00    -0.006 A 
HETATM    6  C10 UNL     1      31.105   6.331  48.262  1.00  0.00     0.029 A 
HETATM    7  C11 UNL     1      32.324   6.851  48.636  1.00  0.00     0.038 A 
HETATM    8  C13 UNL     1      32.405   8.097  49.197  1.00  0.00     0.021 A 
HETATM    9  C14 UNL     1      31.251   8.795  49.370  1.00  0.00     0.039 A 
HETATM   10  C15 UNL     1      30.019   8.261  48.988  1.00  0.00     0.086 A 
HETATM   11  O3  UNL     1      28.970   9.140  49.253  1.00  0.00    -0.290 OA
HETATM   12  C16 UNL     1      27.624   8.808  49.472  1.00  0.00     0.194 A 
HETATM   13  N4  UNL     1      26.832   9.707  49.944  1.00  0.00    -0.259 NA
HETATM   14  C17 UNL     1      25.516   9.122  50.077  1.00  0.00     0.212 A 
HETATM   15  H5  UNL     1      26.973   5.490  48.974  1.00  0.00     0.160 HD
ENDROOT
BRANCH   1  16
HETATM   16  N2  UNL     1      24.703   6.738  49.525  1.00  0.00    -0.306 N 
HETATM   17  C1  UNL     1      24.166   6.293  50.781  1.00  0.00     0.123 C 
HETATM   18  C2  UNL     1      23.211   5.372  50.763  1.00  0.00     0.056 C 
HETATM   19 BR1  UNL     1      22.431   4.714  52.383  1.00  0.00    -0.047 Br
HETATM   20  C3  UNL     1      22.733   4.837  49.493  1.00  0.00     0.036 C 
HETATM   21  C4  UNL     1      23.019   5.565  48.430  1.00  0.00    -0.007 C 
HETATM   22  C5  UNL     1      24.175   6.159  48.334  1.00  0.00     0.111 C 
BRANCH  17  23
HETATM   23  N1  UNL     1      24.617   6.801  52.038  1.00  0.00    -0.384 N 
HETATM   24  H1  UNL     1      25.060   7.745  51.862  1.00  0.00     0.157 HD
HETATM   25  H2  UNL     1      24.571   6.402  53.001  1.00  0.00     0.157 HD
ENDBRANCH  17  23
ENDBRANCH   1  16
BRANCH   7  26
HETATM   26  C12 UNL     1      33.529   6.062  48.428  1.00  0.00     0.176 C 
HETATM   27  O1  UNL     1      34.121   6.111  47.317  1.00  0.00    -0.646 OA
BRANCH  26  28
HETATM   28  O2  UNL     1      34.039   5.253  49.435  1.00  0.00    -0.773 OA
HETATM   29  H9  UNL     1      35.031   5.325  49.687  1.00  0.00     0.167 HD
ENDBRANCH  26  28
ENDBRANCH   7  26
TORSDOF 4
ENDMDL
