MODEL 1
REMARK VINA RESULT:      -8.7      0.000      0.000
REMARK  5 active torsions:
REMARK  status: ('A' for Active; 'I' for Inactive)
REMARK    1  A    between atoms: C2_2  and  C3_3 
REMARK       I    between atoms: C3_3  and  N1_5 
REMARK    2  A    between atoms: N1_5  and  C4_6 
REMARK    3  A    between atoms: C7_9  and  N2_10 
REMARK    4  A    between atoms: N2_10  and  C8_11 
REMARK    5  A    between atoms: C18_24  and  O2_25 
ROOT
HETATM    1  C4  UNL     1      23.872   3.321  50.635  1.00  0.00     0.069 A 
HETATM    2  C5  UNL     1      23.925   2.212  51.452  1.00  0.00     0.048 A 
HETATM    3  C6  UNL     1      22.832   1.721  52.129  1.00  0.00     0.023 A 
HETATM    4  C7  UNL     1      23.003   0.604  52.919  1.00  0.00     0.064 A 
HETATM    5  C13 UNL     1      21.861   0.177  53.561  1.00  0.00     0.089 A 
HETATM    6  C14 UNL     1      21.768  -0.951  54.439  1.00  0.00     0.103 C 
HETATM    7  N3  UNL     1      21.677  -1.853  55.155  1.00  0.00    -0.191 NA
HETATM    8  C15 UNL     1      20.632   0.825  53.422  1.00  0.00     0.142 A 
HETATM    9  N4  UNL     1      20.593   1.899  52.628  1.00  0.00    -0.259 NA
HETATM   10  C16 UNL     1      21.646   2.377  51.973  1.00  0.00     0.071 A 
HETATM   11  C17 UNL     1      21.591   3.484  51.158  1.00  0.00     0.071 A 
HETATM   12  C18 UNL     1      22.662   4.007  50.462  1.00  0.00     0.097 A 
ENDROOT
BRANCH   4  13
HETATM   13  N2  UNL     1      24.200  -0.113  53.124  1.00  0.00    -0.377 N 
HETATM   14  H6  UNL     1      24.182  -0.853  52.410  1.00  0.00     0.160 HD
BRANCH  13  15
HETATM   15  C8  UNL     1      25.420  -0.456  53.688  1.00  0.00     0.129 A 
HETATM   16  C9  UNL     1      26.385  -1.174  52.788  1.00  0.00     0.003 A 
HETATM   17  C10 UNL     1      27.507  -0.455  52.746  1.00  0.00     0.017 A 
HETATM   18  C11 UNL     1      27.429   0.761  53.561  1.00  0.00     0.009 A 
HETATM   19 BR1  UNL     1      28.775   2.071  53.796  1.00  0.00    -0.051 Br
HETATM   20  C12 UNL     1      26.210   0.749  54.099  1.00  0.00     0.021 A 
ENDBRANCH  13  15
ENDBRANCH   4  13
BRANCH   1  21
HETATM   21  N1  UNL     1      24.964   3.881  49.907  1.00  0.00    -0.321 N 
HETATM   22  C3  UNL     1      26.374   3.768  49.974  1.00  0.00     0.245 C 
HETATM   23  O1  UNL     1      27.040   3.083  50.770  1.00  0.00    -0.268 OA
HETATM   24  H4  UNL     1      24.472   4.470  49.217  1.00  0.00     0.169 HD
BRANCH  22  25
HETATM   25  C2  UNL     1      27.125   4.546  48.996  1.00  0.00     0.064 C 
HETATM   26  C1  UNL     1      26.537   5.714  48.735  1.00  0.00     0.017 C 
ENDBRANCH  22  25
ENDBRANCH   1  21
BRANCH  12  27
HETATM   27  O2  UNL     1      22.466   5.132  49.674  1.00  0.00    -0.354 OA
HETATM   28  C19 UNL     1      22.236   6.423  50.151  1.00  0.00     0.210 C 
ENDBRANCH  12  27
TORSDOF 5
ENDMDL
MODEL 2
REMARK VINA RESULT:      -8.6      2.432      4.908
REMARK  5 active torsions:
REMARK  status: ('A' for Active; 'I' for Inactive)
REMARK    1  A    between atoms: C2_2  and  C3_3 
REMARK       I    between atoms: C3_3  and  N1_5 
REMARK    2  A    between atoms: N1_5  and  C4_6 
REMARK    3  A    between atoms: C7_9  and  N2_10 
REMARK    4  A    between atoms: N2_10  and  C8_11 
REMARK    5  A    between atoms: C18_24  and  O2_25 
ROOT
HETATM    1  C4  UNL     1      26.473   2.063  52.110  1.00  0.00     0.069 A 
HETATM    2  C5  UNL     1      25.216   1.507  52.225  1.00  0.00     0.048 A 
HETATM    3  C6  UNL     1      24.876   0.612  53.214  1.00  0.00     0.023 A 
HETATM    4  C7  UNL     1      23.588   0.120  53.232  1.00  0.00     0.064 A 
HETATM    5  C13 UNL     1      23.330  -0.769  54.252  1.00  0.00     0.089 A 
HETATM    6  C14 UNL     1      22.079  -1.425  54.491  1.00  0.00     0.103 C 
HETATM    7  N3  UNL     1      21.080  -1.969  54.695  1.00  0.00    -0.191 NA
HETATM    8  C15 UNL     1      24.295  -1.141  55.189  1.00  0.00     0.142 A 
HETATM    9  N4  UNL     1      25.509  -0.595  55.067  1.00  0.00    -0.259 NA
HETATM   10  C16 UNL     1      25.842   0.269  54.114  1.00  0.00     0.071 A 
HETATM   11  C17 UNL     1      27.096   0.823  54.000  1.00  0.00     0.071 A 
HETATM   12  C18 UNL     1      27.477   1.724  53.026  1.00  0.00     0.097 A 
ENDROOT
BRANCH   4  13
HETATM   13  N2  UNL     1      22.550   0.432  52.329  1.00  0.00    -0.377 N 
HETATM   14  H6  UNL     1      22.320  -0.465  51.882  1.00  0.00     0.160 HD
BRANCH  13  15
HETATM   15  C8  UNL     1      21.616   1.200  51.650  1.00  0.00     0.129 A 
HETATM   16  C9  UNL     1      21.727   2.687  51.829  1.00  0.00     0.003 A 
HETATM   17  C10 UNL     1      21.875   3.229  50.620  1.00  0.00     0.017 A 
HETATM   18  C11 UNL     1      21.886   2.226  49.550  1.00  0.00     0.009 A 
HETATM   19 BR1  UNL     1      22.072   2.535  47.692  1.00  0.00    -0.051 Br
HETATM   20  C12 UNL     1      21.738   1.052  50.164  1.00  0.00     0.021 A 
ENDBRANCH  13  15
ENDBRANCH   4  13
BRANCH   1  21
HETATM   21  N1  UNL     1      26.890   2.995  51.112  1.00  0.00    -0.321 N 
HETATM   22  C3  UNL     1      26.324   3.502  49.918  1.00  0.00     0.245 C 
HETATM   23  O1  UNL     1      25.220   3.213  49.422  1.00  0.00    -0.268 OA
HETATM   24  H4  UNL     1      27.816   3.278  51.468  1.00  0.00     0.169 HD
BRANCH  22  25
HETATM   25  C2  UNL     1      27.133   4.472  49.188  1.00  0.00     0.064 C 
HETATM   26  C1  UNL     1      26.434   5.563  48.874  1.00  0.00     0.017 C 
ENDBRANCH  22  25
ENDBRANCH   1  21
BRANCH  12  27
HETATM   27  O2  UNL     1      28.778   2.204  53.028  1.00  0.00    -0.354 OA
HETATM   28  C19 UNL     1      29.604   2.299  54.149  1.00  0.00     0.210 C 
ENDBRANCH  12  27
TORSDOF 5
ENDMDL
MODEL 3
REMARK VINA RESULT:      -7.8      2.856      5.962
REMARK  5 active torsions:
REMARK  status: ('A' for Active; 'I' for Inactive)
REMARK    1  A    between atoms: C2_2  and  C3_3 
REMARK       I    between atoms: C3_3  and  N1_5 
REMARK    2  A    between atoms: N1_5  and  C4_6 
REMARK    3  A    between atoms: C7_9  and  N2_10 
REMARK    4  A    between atoms: N2_10  and  C8_11 
REMARK    5  A    between atoms: C18_24  and  O2_25 
ROOT
HETATM    1  C4  UNL     1      25.067   0.554  53.021  1.00  0.00     0.069 A 
HETATM    2  C5  UNL     1      24.886   1.539  52.074  1.00  0.00     0.048 A 
HETATM    3  C6  UNL     1      23.674   1.795  51.473  1.00  0.00     0.023 A 
HETATM    4  C7  UNL     1      23.611   2.806  50.538  1.00  0.00     0.064 A 
HETATM    5  C13 UNL     1      22.363   2.997  49.985  1.00  0.00     0.089 A 
HETATM    6  C14 UNL     1      22.030   3.974  48.992  1.00  0.00     0.103 C 
HETATM    7  N3  UNL     1      21.744   4.751  48.187  1.00  0.00    -0.191 NA
HETATM    8  C15 UNL     1      21.255   2.227  50.344  1.00  0.00     0.142 A 
HETATM    9  N4  UNL     1      21.442   1.275  51.263  1.00  0.00    -0.259 NA
HETATM   10  C16 UNL     1      22.611   1.025  51.845  1.00  0.00     0.071 A 
HETATM   11  C17 UNL     1      22.790   0.041  52.791  1.00  0.00     0.071 A 
HETATM   12  C18 UNL     1      23.986  -0.246  53.416  1.00  0.00     0.097 A 
ENDROOT
BRANCH   4  13
HETATM   13  N2  UNL     1      24.672   3.630  50.109  1.00  0.00    -0.377 N 
HETATM   14  H6  UNL     1      24.537   3.715  49.093  1.00  0.00     0.160 HD
BRANCH  13  15
HETATM   15  C8  UNL     1      25.806   4.424  50.193  1.00  0.00     0.129 A 
HETATM   16  C9  UNL     1      27.007   3.943  49.429  1.00  0.00     0.003 A 
HETATM   17  C10 UNL     1      27.360   4.911  48.583  1.00  0.00     0.017 A 
HETATM   18  C11 UNL     1      26.486   6.085  48.671  1.00  0.00     0.009 A 
HETATM   19 BR1  UNL     1      26.608   7.684  47.666  1.00  0.00    -0.051 Br
HETATM   20  C12 UNL     1      25.586   5.786  49.608  1.00  0.00     0.021 A 
ENDBRANCH  13  15
ENDBRANCH   4  13
BRANCH   1  21
HETATM   21  N1  UNL     1      26.292   0.239  53.680  1.00  0.00    -0.321 N 
HETATM   22  C3  UNL     1      27.385   0.991  54.175  1.00  0.00     0.245 C 
HETATM   23  O1  UNL     1      27.531   2.226  54.137  1.00  0.00    -0.268 OA
HETATM   24  H4  UNL     1      26.233  -0.790  53.745  1.00  0.00     0.169 HD
BRANCH  22  25
HETATM   25  C2  UNL     1      28.459   0.226  54.798  1.00  0.00     0.064 C 
HETATM   26  C1  UNL     1      29.090  -0.550  53.917  1.00  0.00     0.017 C 
ENDBRANCH  22  25
ENDBRANCH   1  21
BRANCH  12  27
HETATM   27  O2  UNL     1      24.025  -1.268  54.353  1.00  0.00    -0.354 OA
HETATM   28  C19 UNL     1      23.190  -1.377  55.466  1.00  0.00     0.210 C 
ENDBRANCH  12  27
TORSDOF 5
ENDMDL
MODEL 4
REMARK VINA RESULT:      -7.7      2.828      3.741
REMARK  5 active torsions:
REMARK  status: ('A' for Active; 'I' for Inactive)
REMARK    1  A    between atoms: C2_2  and  C3_3 
REMARK       I    between atoms: C3_3  and  N1_5 
REMARK    2  A    between atoms: N1_5  and  C4_6 
REMARK    3  A    between atoms: C7_9  and  N2_10 
REMARK    4  A    between atoms: N2_10  and  C8_11 
REMARK    5  A    between atoms: C18_24  and  O2_25 
ROOT
HETATM    1  C4  UNL     1      20.999   1.515  50.537  1.00  0.00     0.069 A 
HETATM    2  C5  UNL     1      22.139   1.242  51.263  1.00  0.00     0.048 A 
HETATM    3  C6  UNL     1      22.151   0.414  52.363  1.00  0.00     0.023 A 
HETATM    4  C7  UNL     1      23.351   0.213  53.012  1.00  0.00     0.064 A 
HETATM    5  C13 UNL     1      23.277  -0.629  54.101  1.00  0.00     0.089 A 
HETATM    6  C14 UNL     1      24.373  -0.997  54.947  1.00  0.00     0.103 C 
HETATM    7  N3  UNL     1      25.244  -1.300  55.644  1.00  0.00    -0.191 NA
HETATM    8  C15 UNL     1      22.084  -1.227  54.511  1.00  0.00     0.142 A 
HETATM    9  N4  UNL     1      20.987  -0.955  53.799  1.00  0.00    -0.259 NA
HETATM   10  C16 UNL     1      20.970  -0.155  52.738  1.00  0.00     0.071 A 
HETATM   11  C17 UNL     1      19.832   0.116  52.014  1.00  0.00     0.071 A 
HETATM   12  C18 UNL     1      19.776   0.939  50.907  1.00  0.00     0.097 A 
ENDROOT
BRANCH   4  13
HETATM   13  N2  UNL     1      24.600   0.774  52.676  1.00  0.00    -0.377 N 
HETATM   14  H6  UNL     1      24.619   1.674  53.174  1.00  0.00     0.160 HD
BRANCH  13  15
HETATM   15  C8  UNL     1      25.853   0.882  52.090  1.00  0.00     0.129 A 
HETATM   16  C9  UNL     1      26.693   2.045  52.535  1.00  0.00     0.003 A 
HETATM   17  C10 UNL     1      27.836   1.555  53.016  1.00  0.00     0.017 A 
HETATM   18  C11 UNL     1      27.892   0.092  52.958  1.00  0.00     0.009 A 
HETATM   19 BR1  UNL     1      29.311  -1.025  53.526  1.00  0.00    -0.051 Br
HETATM   20  C12 UNL     1      26.731  -0.286  52.421  1.00  0.00     0.021 A 
ENDBRANCH  13  15
ENDBRANCH   4  13
BRANCH   1  21
HETATM   21  N1  UNL     1      20.917   2.361  49.391  1.00  0.00    -0.321 N 
HETATM   22  C3  UNL     1      21.543   2.389  48.121  1.00  0.00     0.245 C 
HETATM   23  O1  UNL     1      22.394   1.598  47.680  1.00  0.00    -0.268 OA
HETATM   24  H4  UNL     1      20.214   3.053  49.695  1.00  0.00     0.169 HD
BRANCH  22  25
HETATM   25  C2  UNL     1      21.140   3.474  47.233  1.00  0.00     0.064 C 
HETATM   26  C1  UNL     1      21.896   3.524  46.136  1.00  0.00     0.017 C 
ENDBRANCH  22  25
ENDBRANCH   1  21
BRANCH  12  27
HETATM   27  O2  UNL     1      18.558   1.126  50.270  1.00  0.00    -0.354 OA
HETATM   28  C19 UNL     1      17.504   1.901  50.753  1.00  0.00     0.210 C 
ENDBRANCH  12  27
TORSDOF 5
ENDMDL
MODEL 5
REMARK VINA RESULT:      -7.6      2.956      7.262
REMARK  5 active torsions:
REMARK  status: ('A' for Active; 'I' for Inactive)
REMARK    1  A    between atoms: C2_2  and  C3_3 
REMARK       I    between atoms: C3_3  and  N1_5 
REMARK    2  A    between atoms: N1_5  and  C4_6 
REMARK    3  A    between atoms: C7_9  and  N2_10 
REMARK    4  A    between atoms: N2_10  and  C8_11 
REMARK    5  A    between atoms: C18_24  and  O2_25 
ROOT
HETATM    1  C4  UNL     1      24.578   0.796  52.381  1.00  0.00     0.069 A 
HETATM    2  C5  UNL     1      24.040   1.819  51.630  1.00  0.00     0.048 A 
HETATM    3  C6  UNL     1      24.806   2.706  50.906  1.00  0.00     0.023 A 
HETATM    4  C7  UNL     1      24.160   3.690  50.190  1.00  0.00     0.064 A 
HETATM    5  C13 UNL     1      24.997   4.535  49.494  1.00  0.00     0.089 A 
HETATM    6  C14 UNL     1      24.582   5.638  48.680  1.00  0.00     0.103 C 
HETATM    7  N3  UNL     1      24.266   6.535  48.024  1.00  0.00    -0.191 NA
HETATM    8  C15 UNL     1      26.387   4.403  49.516  1.00  0.00     0.142 A 
HETATM    9  N4  UNL     1      26.896   3.408  50.249  1.00  0.00    -0.259 NA
HETATM   10  C16 UNL     1      26.160   2.550  50.949  1.00  0.00     0.071 A 
HETATM   11  C17 UNL     1      26.698   1.529  51.698  1.00  0.00     0.071 A 
HETATM   12  C18 UNL     1      25.967   0.620  52.436  1.00  0.00     0.097 A 
ENDROOT
BRANCH   4  13
HETATM   13  N2  UNL     1      22.767   3.904  50.111  1.00  0.00    -0.377 N 
HETATM   14  H6  UNL     1      22.612   4.777  50.634  1.00  0.00     0.160 HD
BRANCH  13  15
HETATM   15  C8  UNL     1      21.444   3.682  49.761  1.00  0.00     0.129 A 
HETATM   16  C9  UNL     1      21.216   2.865  48.522  1.00  0.00     0.003 A 
HETATM   17  C10 UNL     1      20.474   1.812  48.864  1.00  0.00     0.017 A 
HETATM   18  C11 UNL     1      20.139   1.797  50.291  1.00  0.00     0.009 A 
HETATM   19 BR1  UNL     1      19.113   0.502  51.214  1.00  0.00    -0.051 Br
HETATM   20  C12 UNL     1      20.712   2.887  50.801  1.00  0.00     0.021 A 
ENDBRANCH  13  15
ENDBRANCH   4  13
BRANCH   1  21
HETATM   21  N1  UNL     1      23.844  -0.155  53.151  1.00  0.00    -0.321 N 
HETATM   22  C3  UNL     1      22.564  -0.178  53.757  1.00  0.00     0.245 C 
HETATM   23  O1  UNL     1      21.709   0.725  53.752  1.00  0.00    -0.268 OA
HETATM   24  H4  UNL     1      24.508  -0.944  53.194  1.00  0.00     0.169 HD
BRANCH  22  25
HETATM   25  C2  UNL     1      22.215  -1.402  54.470  1.00  0.00     0.064 C 
HETATM   26  C1  UNL     1      20.922  -1.700  54.340  1.00  0.00     0.017 C 
ENDBRANCH  22  25
ENDBRANCH   1  21
BRANCH  12  27
HETATM   27  O2  UNL     1      26.640  -0.361  53.149  1.00  0.00    -0.354 OA
HETATM   28  C19 UNL     1      27.981  -0.309  53.529  1.00  0.00     0.210 C 
ENDBRANCH  12  27
TORSDOF 5
ENDMDL
MODEL 6
REMARK VINA RESULT:      -7.5      3.125      5.502
REMARK  5 active torsions:
REMARK  status: ('A' for Active; 'I' for Inactive)
REMARK    1  A    between atoms: C2_2  and  C3_3 
REMARK       I    between atoms: C3_3  and  N1_5 
REMARK    2  A    between atoms: N1_5  and  C4_6 
REMARK    3  A    between atoms: C7_9  and  N2_10 
REMARK    4  A    between atoms: N2_10  and  C8_11 
REMARK    5  A    between atoms: C18_24  and  O2_25 
ROOT
HETATM    1  C4  UNL     1      19.782   0.878  51.932  1.00  0.00     0.069 A 
HETATM    2  C5  UNL     1      21.125   0.915  52.244  1.00  0.00     0.048 A 
HETATM    3  C6  UNL     1      21.704   0.088  53.180  1.00  0.00     0.023 A 
HETATM    4  C7  UNL     1      23.057   0.213  53.411  1.00  0.00     0.064 A 
HETATM    5  C13 UNL     1      23.558  -0.651  54.360  1.00  0.00     0.089 A 
HETATM    6  C14 UNL     1      24.924  -0.722  54.788  1.00  0.00     0.103 C 
HETATM    7  N3  UNL     1      26.019  -0.789  55.149  1.00  0.00    -0.191 NA
HETATM    8  C15 UNL     1      22.758  -1.576  55.033  1.00  0.00     0.142 A 
HETATM    9  N4  UNL     1      21.458  -1.602  54.722  1.00  0.00    -0.259 NA
HETATM   10  C16 UNL     1      20.895  -0.805  53.820  1.00  0.00     0.071 A 
HETATM   11  C17 UNL     1      19.555  -0.843  53.509  1.00  0.00     0.071 A 
HETATM   12  C18 UNL     1      18.936  -0.033  52.579  1.00  0.00     0.097 A 
ENDROOT
BRANCH   4  13
HETATM   13  N2  UNL     1      23.943   1.117  52.787  1.00  0.00    -0.377 N 
HETATM   14  H6  UNL     1      23.742   1.021  51.782  1.00  0.00     0.160 HD
BRANCH  13  15
HETATM   15  C8  UNL     1      24.932   2.081  52.667  1.00  0.00     0.129 A 
HETATM   16  C9  UNL     1      26.222   1.631  52.043  1.00  0.00     0.003 A 
HETATM   17  C10 UNL     1      26.448   2.405  50.981  1.00  0.00     0.017 A 
HETATM   18  C11 UNL     1      25.395   3.404  50.777  1.00  0.00     0.009 A 
HETATM   19 BR1  UNL     1      25.300   4.704  49.404  1.00  0.00    -0.051 Br
HETATM   20  C12 UNL     1      24.519   3.202  51.761  1.00  0.00     0.021 A 
ENDBRANCH  13  15
ENDBRANCH   4  13
BRANCH   1  21
HETATM   21  N1  UNL     1      19.120   1.704  50.975  1.00  0.00    -0.321 N 
HETATM   22  C3  UNL     1      18.451   2.951  51.023  1.00  0.00     0.245 C 
HETATM   23  O1  UNL     1      18.274   3.676  52.017  1.00  0.00    -0.268 OA
HETATM   24  H4  UNL     1      19.233   1.150  50.111  1.00  0.00     0.169 HD
BRANCH  22  25
HETATM   25  C2  UNL     1      17.909   3.434  49.758  1.00  0.00     0.064 C 
HETATM   26  C1  UNL     1      18.222   2.628  48.744  1.00  0.00     0.017 C 
ENDBRANCH  22  25
ENDBRANCH   1  21
BRANCH  12  27
HETATM   27  O2  UNL     1      17.573  -0.178  52.364  1.00  0.00    -0.354 OA
HETATM   28  C19 UNL     1      16.809  -1.284  52.736  1.00  0.00     0.210 C 
ENDBRANCH  12  27
TORSDOF 5
ENDMDL
MODEL 7
REMARK VINA RESULT:      -7.3      3.230      7.694
REMARK  5 active torsions:
REMARK  status: ('A' for Active; 'I' for Inactive)
REMARK    1  A    between atoms: C2_2  and  C3_3 
REMARK       I    between atoms: C3_3  and  N1_5 
REMARK    2  A    between atoms: N1_5  and  C4_6 
REMARK    3  A    between atoms: C7_9  and  N2_10 
REMARK    4  A    between atoms: N2_10  and  C8_11 
REMARK    5  A    between atoms: C18_24  and  O2_25 
ROOT
HETATM    1  C4  UNL     1      24.639   1.117  52.462  1.00  0.00     0.069 A 
HETATM    2  C5  UNL     1      24.127   2.176  51.743  1.00  0.00     0.048 A 
HETATM    3  C6  UNL     1      24.892   2.966  50.915  1.00  0.00     0.023 A 
HETATM    4  C7  UNL     1      24.272   3.998  50.244  1.00  0.00     0.064 A 
HETATM    5  C13 UNL     1      25.108   4.739  49.437  1.00  0.00     0.089 A 
HETATM    6  C14 UNL     1      24.718   5.864  48.640  1.00  0.00     0.103 C 
HETATM    7  N3  UNL     1      24.423   6.777  47.996  1.00  0.00    -0.191 NA
HETATM    8  C15 UNL     1      26.471   4.465  49.311  1.00  0.00     0.142 A 
HETATM    9  N4  UNL     1      26.956   3.436  50.013  1.00  0.00    -0.259 NA
HETATM   10  C16 UNL     1      26.220   2.672  50.814  1.00  0.00     0.071 A 
HETATM   11  C17 UNL     1      26.733   1.616  51.531  1.00  0.00     0.071 A 
HETATM   12  C18 UNL     1      26.001   0.800  52.370  1.00  0.00     0.097 A 
ENDROOT
BRANCH   4  13
HETATM   13  N2  UNL     1      22.909   4.353  50.311  1.00  0.00    -0.377 N 
HETATM   14  H6  UNL     1      22.416   3.561  49.879  1.00  0.00     0.160 HD
BRANCH  13  15
HETATM   15  C8  UNL     1      21.784   5.110  50.603  1.00  0.00     0.129 A 
HETATM   16  C9  UNL     1      22.034   6.462  51.207  1.00  0.00     0.003 A 
HETATM   17  C10 UNL     1      21.464   7.369  50.415  1.00  0.00     0.017 A 
HETATM   18  C11 UNL     1      20.805   6.769  49.251  1.00  0.00     0.009 A 
HETATM   19 BR1  UNL     1      19.874   7.668  47.870  1.00  0.00    -0.051 Br
HETATM   20  C12 UNL     1      21.002   5.456  49.372  1.00  0.00     0.021 A 
ENDBRANCH  13  15
ENDBRANCH   4  13
BRANCH   1  21
HETATM   21  N1  UNL     1      23.903   0.261  53.335  1.00  0.00    -0.321 N 
HETATM   22  C3  UNL     1      22.676  -0.439  53.249  1.00  0.00     0.245 C 
HETATM   23  O1  UNL     1      21.885  -0.463  52.290  1.00  0.00    -0.268 OA
HETATM   24  H4  UNL     1      24.516   0.238  54.166  1.00  0.00     0.169 HD
BRANCH  22  25
HETATM   25  C2  UNL     1      22.301  -1.220  54.423  1.00  0.00     0.064 C 
HETATM   26  C1  UNL     1      21.046  -1.661  54.344  1.00  0.00     0.017 C 
ENDBRANCH  22  25
ENDBRANCH   1  21
BRANCH  12  27
HETATM   27  O2  UNL     1      26.647  -0.232  53.034  1.00  0.00    -0.354 OA
HETATM   28  C19 UNL     1      26.795  -1.534  52.556  1.00  0.00     0.210 C 
ENDBRANCH  12  27
TORSDOF 5
ENDMDL
MODEL 8
REMARK VINA RESULT:      -7.3      2.930      5.306
REMARK  5 active torsions:
REMARK  status: ('A' for Active; 'I' for Inactive)
REMARK    1  A    between atoms: C2_2  and  C3_3 
REMARK       I    between atoms: C3_3  and  N1_5 
REMARK    2  A    between atoms: N1_5  and  C4_6 
REMARK    3  A    between atoms: C7_9  and  N2_10 
REMARK    4  A    between atoms: N2_10  and  C8_11 
REMARK    5  A    between atoms: C18_24  and  O2_25 
ROOT
HETATM    1  C4  UNL     1      25.557   2.663  51.670  1.00  0.00     0.069 A 
HETATM    2  C5  UNL     1      24.240   2.266  51.762  1.00  0.00     0.048 A 
HETATM    3  C6  UNL     1      23.820   1.228  52.562  1.00  0.00     0.023 A 
HETATM    4  C7  UNL     1      22.477   0.918  52.576  1.00  0.00     0.064 A 
HETATM    5  C13 UNL     1      22.140  -0.132  53.402  1.00  0.00     0.089 A 
HETATM    6  C14 UNL     1      20.819  -0.654  53.593  1.00  0.00     0.103 C 
HETATM    7  N3  UNL     1      19.763  -1.092  53.755  1.00  0.00    -0.191 NA
HETATM    8  C15 UNL     1      23.084  -0.824  54.162  1.00  0.00     0.142 A 
HETATM    9  N4  UNL     1      24.357  -0.430  54.064  1.00  0.00    -0.259 NA
HETATM   10  C16 UNL     1      24.767   0.571  53.292  1.00  0.00     0.071 A 
HETATM   11  C17 UNL     1      26.082   0.966  53.201  1.00  0.00     0.071 A 
HETATM   12  C18 UNL     1      26.543   2.001  52.412  1.00  0.00     0.097 A 
ENDROOT
BRANCH   4  13
HETATM   13  N2  UNL     1      21.454   1.555  51.842  1.00  0.00    -0.377 N 
HETATM   14  H6  UNL     1      20.582   1.208  52.263  1.00  0.00     0.160 HD
BRANCH  13  15
HETATM   15  C8  UNL     1      20.864   2.378  50.895  1.00  0.00     0.129 A 
HETATM   16  C9  UNL     1      20.122   1.686  49.788  1.00  0.00     0.003 A 
HETATM   17  C10 UNL     1      18.867   2.136  49.801  1.00  0.00     0.017 A 
HETATM   18  C11 UNL     1      18.633   3.123  50.860  1.00  0.00     0.009 A 
HETATM   19 BR1  UNL     1      17.013   4.022  51.250  1.00  0.00    -0.051 Br
HETATM   20  C12 UNL     1      19.801   3.251  51.489  1.00  0.00     0.021 A 
ENDBRANCH  13  15
ENDBRANCH   4  13
BRANCH   1  21
HETATM   21  N1  UNL     1      26.058   3.728  50.862  1.00  0.00    -0.321 N 
HETATM   22  C3  UNL     1      25.603   4.405  49.705  1.00  0.00     0.245 C 
HETATM   23  O1  UNL     1      24.554   4.196  49.070  1.00  0.00    -0.268 OA
HETATM   24  H4  UNL     1      26.943   3.953  51.342  1.00  0.00     0.169 HD
BRANCH  22  25
HETATM   25  C2  UNL     1      26.468   5.468  49.204  1.00  0.00     0.064 C 
HETATM   26  C1  UNL     1      25.773   6.421  48.584  1.00  0.00     0.017 C 
ENDBRANCH  22  25
ENDBRANCH   1  21
BRANCH  12  27
HETATM   27  O2  UNL     1      27.899   2.293  52.415  1.00  0.00    -0.354 OA
HETATM   28  C19 UNL     1      28.692   2.443  53.554  1.00  0.00     0.210 C 
ENDBRANCH  12  27
TORSDOF 5
ENDMDL
MODEL 9
REMARK VINA RESULT:      -7.2      2.752      5.243
REMARK  5 active torsions:
REMARK  status: ('A' for Active; 'I' for Inactive)
REMARK    1  A    between atoms: C2_2  and  C3_3 
REMARK       I    between atoms: C3_3  and  N1_5 
REMARK    2  A    between atoms: N1_5  and  C4_6 
REMARK    3  A    between atoms: C7_9  and  N2_10 
REMARK    4  A    between atoms: N2_10  and  C8_11 
REMARK    5  A    between atoms: C18_24  and  O2_25 
ROOT
HETATM    1  C4  UNL     1      24.313   1.685  51.766  1.00  0.00     0.069 A 
HETATM    2  C5  UNL     1      22.962   1.421  51.688  1.00  0.00     0.048 A 
HETATM    3  C6  UNL     1      22.319   0.533  52.520  1.00  0.00     0.023 A 
HETATM    4  C7  UNL     1      20.963   0.347  52.351  1.00  0.00     0.064 A 
HETATM    5  C13 UNL     1      20.396  -0.557  53.222  1.00  0.00     0.089 A 
HETATM    6  C14 UNL     1      19.014  -0.932  53.254  1.00  0.00     0.103 C 
HETATM    7  N3  UNL     1      17.904  -1.251  53.291  1.00  0.00    -0.191 NA
HETATM    8  C15 UNL     1      21.137  -1.230  54.196  1.00  0.00     0.142 A 
HETATM    9  N4  UNL     1      22.445  -0.966  54.261  1.00  0.00    -0.259 NA
HETATM   10  C16 UNL     1      23.070  -0.109  53.460  1.00  0.00     0.071 A 
HETATM   11  C17 UNL     1      24.419   0.154  53.539  1.00  0.00     0.071 A 
HETATM   12  C18 UNL     1      25.101   1.036  52.726  1.00  0.00     0.097 A 
ENDROOT
BRANCH   4  13
HETATM   13  N2  UNL     1      20.135   0.976  51.397  1.00  0.00    -0.377 N 
HETATM   14  H6  UNL     1      19.515   1.579  51.953  1.00  0.00     0.160 HD
BRANCH  13  15
HETATM   15  C8  UNL     1      19.619   1.309  50.153  1.00  0.00     0.129 A 
HETATM   16  C9  UNL     1      18.962   2.655  50.049  1.00  0.00     0.003 A 
HETATM   17  C10 UNL     1      19.588   3.336  49.089  1.00  0.00     0.017 A 
HETATM   18  C11 UNL     1      20.678   2.573  48.475  1.00  0.00     0.009 A 
HETATM   19 BR1  UNL     1      21.831   3.137  47.083  1.00  0.00    -0.051 Br
HETATM   20  C12 UNL     1      20.687   1.398  49.106  1.00  0.00     0.021 A 
ENDBRANCH  13  15
ENDBRANCH   4  13
BRANCH   1  21
HETATM   21  N1  UNL     1      25.040   2.592  50.938  1.00  0.00    -0.321 N 
HETATM   22  C3  UNL     1      24.948   3.975  50.647  1.00  0.00     0.245 C 
HETATM   23  O1  UNL     1      24.124   4.789  51.098  1.00  0.00    -0.268 OA
HETATM   24  H4  UNL     1      25.753   1.970  50.526  1.00  0.00     0.169 HD
BRANCH  22  25
HETATM   25  C2  UNL     1      25.936   4.498  49.710  1.00  0.00     0.064 C 
HETATM   26  C1  UNL     1      26.796   3.557  49.319  1.00  0.00     0.017 C 
ENDBRANCH  22  25
ENDBRANCH   1  21
BRANCH  12  27
HETATM   27  O2  UNL     1      26.465   1.205  52.915  1.00  0.00    -0.354 OA
HETATM   28  C19 UNL     1      27.159   0.924  54.092  1.00  0.00     0.210 C 
ENDBRANCH  12  27
TORSDOF 5
ENDMDL
