MODEL 1
REMARK VINA RESULT:      -8.9      0.000      0.000
REMARK  4 active torsions:
REMARK  status: ('A' for Active; 'I' for Inactive)
REMARK    1  A    between atoms: C2_2  and  O1_3 
REMARK    2  A    between atoms: O1_3  and  C3_4 
REMARK    3  A    between atoms: C3_4  and  C4_6 
REMARK    4  A    between atoms: C8_12  and  C9_13 
ROOT
HETATM    1  C9  UNL     1      24.480   0.419  52.688  1.00  0.00     0.029 C 
HETATM    2  C10 UNL     1      23.656  -0.483  53.198  1.00  0.00     0.007 C 
HETATM    3  C11 UNL     1      22.266  -0.937  53.255  1.00  0.00     0.010 C 
HETATM    4  C12 UNL     1      21.874  -1.143  54.727  1.00  0.00     0.014 C 
HETATM    5  C13 UNL     1      21.262  -0.021  52.678  1.00  0.00     0.044 C 
HETATM    6  C14 UNL     1      21.680   0.784  51.513  1.00  0.00    -0.057 C 
HETATM    7  C15 UNL     1      22.728   1.450  51.001  1.00  0.00     0.012 C 
HETATM    8  C16 UNL     1      22.961   2.235  49.757  1.00  0.00     0.057 C 
HETATM    9  C17 UNL     1      21.625   2.418  49.076  1.00  0.00     0.006 C 
HETATM   10  C18 UNL     1      20.929   1.057  49.160  1.00  0.00     0.005 C 
HETATM   11  C19 UNL     1      20.494   0.888  50.575  1.00  0.00     0.036 C 
HETATM   12  N2  UNL     1      23.929   1.427  51.809  1.00  0.00    -0.360 N 
HETATM   13  H26 UNL     1      24.525   2.314  51.748  1.00  0.00     0.166 HD
ENDROOT
BRANCH   1  14
HETATM   14  C8  UNL     1      25.887   0.465  52.941  1.00  0.00     0.043 C 
HETATM   15  C7  UNL     1      27.081   0.957  52.904  1.00  0.00     0.027 C 
HETATM   16  C4  UNL     1      28.498   0.712  53.324  1.00  0.00     0.142 C 
HETATM   17  C6  UNL     1      27.342   2.245  52.217  1.00  0.00     0.248 C 
HETATM   18  C5  UNL     1      28.853   2.073  53.937  1.00  0.00     0.142 C 
HETATM   19  N1  UNL     1      28.321   3.007  52.953  1.00  0.00    -0.356 N 
HETATM   20  H9  UNL     1      28.699   3.969  52.947  1.00  0.00     0.162 HD
HETATM   21  O3  UNL     1      26.934   2.849  51.163  1.00  0.00    -0.268 OA
BRANCH  16  22
HETATM   22  C3  UNL     1      28.617  -0.290  54.399  1.00  0.00     0.269 C 
HETATM   23  O2  UNL     1      28.005  -0.224  55.506  1.00  0.00    -0.264 OA
BRANCH  22  24
HETATM   24  O1  UNL     1      29.410  -1.400  54.303  1.00  0.00    -0.321 OA
BRANCH  24  25
HETATM   25  C2  UNL     1      29.451  -2.192  53.112  1.00  0.00     0.174 C 
HETATM   26  C1  UNL     1      28.049  -2.711  52.888  1.00  0.00     0.034 C 
ENDBRANCH  24  25
ENDBRANCH  22  24
ENDBRANCH  16  22
ENDBRANCH   1  14
TORSDOF 4
ENDMDL
MODEL 2
REMARK VINA RESULT:      -8.1      3.389      6.012
REMARK  4 active torsions:
REMARK  status: ('A' for Active; 'I' for Inactive)
REMARK    1  A    between atoms: C2_2  and  O1_3 
REMARK    2  A    between atoms: O1_3  and  C3_4 
REMARK    3  A    between atoms: C3_4  and  C4_6 
REMARK    4  A    between atoms: C8_12  and  C9_13 
ROOT
HETATM    1  C9  UNL     1      24.584   1.888  51.759  1.00  0.00     0.029 C 
HETATM    2  C10 UNL     1      25.518   0.966  51.936  1.00  0.00     0.007 C 
HETATM    3  C11 UNL     1      25.903  -0.212  52.713  1.00  0.00     0.010 C 
HETATM    4  C12 UNL     1      27.344  -0.024  53.215  1.00  0.00     0.014 C 
HETATM    5  C13 UNL     1      25.078  -0.501  53.903  1.00  0.00     0.044 C 
HETATM    6  C14 UNL     1      23.644  -0.165  53.823  1.00  0.00    -0.057 C 
HETATM    7  C15 UNL     1      22.791   0.750  53.331  1.00  0.00     0.012 C 
HETATM    8  C16 UNL     1      21.312   0.921  53.358  1.00  0.00     0.057 C 
HETATM    9  C17 UNL     1      20.753  -0.099  54.321  1.00  0.00     0.006 C 
HETATM   10  C18 UNL     1      21.498  -1.402  54.021  1.00  0.00     0.005 C 
HETATM   11  C19 UNL     1      22.876  -1.240  54.565  1.00  0.00     0.036 C 
HETATM   12  N2  UNL     1      23.407   1.836  52.597  1.00  0.00    -0.360 N 
HETATM   13  H26 UNL     1      22.901   2.776  52.684  1.00  0.00     0.166 HD
ENDROOT
BRANCH   1  14
HETATM   14  C8  UNL     1      24.654   2.935  50.787  1.00  0.00     0.043 C 
HETATM   15  C7  UNL     1      24.296   3.608  49.744  1.00  0.00     0.027 C 
HETATM   16  C4  UNL     1      24.635   4.803  48.907  1.00  0.00     0.142 C 
HETATM   17  C6  UNL     1      23.130   3.176  48.935  1.00  0.00     0.248 C 
HETATM   18  C5  UNL     1      23.255   5.463  48.781  1.00  0.00     0.142 C 
HETATM   19  N1  UNL     1      22.393   4.328  48.478  1.00  0.00    -0.356 N 
HETATM   20  H9  UNL     1      21.483   4.520  48.029  1.00  0.00     0.162 HD
HETATM   21  O3  UNL     1      22.616   2.070  48.543  1.00  0.00    -0.268 OA
BRANCH  16  22
HETATM   22  C3  UNL     1      25.511   5.765  49.601  1.00  0.00     0.269 C 
HETATM   23  O2  UNL     1      25.138   6.509  50.555  1.00  0.00    -0.264 OA
BRANCH  22  24
HETATM   24  O1  UNL     1      26.827   5.948  49.276  1.00  0.00    -0.321 OA
BRANCH  24  25
HETATM   25  C2  UNL     1      27.585   4.929  48.617  1.00  0.00     0.174 C 
HETATM   26  C1  UNL     1      28.915   5.548  48.250  1.00  0.00     0.034 C 
ENDBRANCH  24  25
ENDBRANCH  22  24
ENDBRANCH  16  22
ENDBRANCH   1  14
TORSDOF 4
ENDMDL
MODEL 3
REMARK VINA RESULT:      -7.9      3.532      6.024
REMARK  4 active torsions:
REMARK  status: ('A' for Active; 'I' for Inactive)
REMARK    1  A    between atoms: C2_2  and  O1_3 
REMARK    2  A    between atoms: O1_3  and  C3_4 
REMARK    3  A    between atoms: C3_4  and  C4_6 
REMARK    4  A    between atoms: C8_12  and  C9_13 
ROOT
HETATM    1  C9  UNL     1      25.369   2.402  51.546  1.00  0.00     0.029 C 
HETATM    2  C10 UNL     1      26.227   1.406  51.708  1.00  0.00     0.007 C 
HETATM    3  C11 UNL     1      26.478   0.145  52.408  1.00  0.00     0.010 C 
HETATM    4  C12 UNL     1      27.887   0.193  53.021  1.00  0.00     0.014 C 
HETATM    5  C13 UNL     1      25.551  -0.178  53.510  1.00  0.00     0.044 C 
HETATM    6  C14 UNL     1      24.151   0.262  53.361  1.00  0.00    -0.057 C 
HETATM    7  C15 UNL     1      23.396   1.270  52.890  1.00  0.00     0.012 C 
HETATM    8  C16 UNL     1      21.933   1.540  52.831  1.00  0.00     0.057 C 
HETATM    9  C17 UNL     1      21.241   0.488  53.665  1.00  0.00     0.006 C 
HETATM   10  C18 UNL     1      21.921  -0.835  53.307  1.00  0.00     0.005 C 
HETATM   11  C19 UNL     1      23.263  -0.813  53.956  1.00  0.00     0.036 C 
HETATM   12  N2  UNL     1      24.132   2.366  52.295  1.00  0.00    -0.360 N 
HETATM   13  H26 UNL     1      23.683   3.328  52.426  1.00  0.00     0.166 HD
ENDROOT
BRANCH   1  14
HETATM   14  C8  UNL     1      25.578   3.515  50.673  1.00  0.00     0.043 C 
HETATM   15  C7  UNL     1      25.343   4.677  50.159  1.00  0.00     0.027 C 
HETATM   16  C4  UNL     1      25.820   5.660  49.135  1.00  0.00     0.142 C 
HETATM   17  C6  UNL     1      24.197   5.490  50.635  1.00  0.00     0.248 C 
HETATM   18  C5  UNL     1      25.836   6.951  49.964  1.00  0.00     0.142 C 
HETATM   19  N1  UNL     1      24.563   6.885  50.670  1.00  0.00    -0.356 N 
HETATM   20  H9  UNL     1      24.172   7.766  51.042  1.00  0.00     0.162 HD
HETATM   21  O3  UNL     1      22.991   5.284  51.015  1.00  0.00    -0.268 OA
BRANCH  16  22
HETATM   22  C3  UNL     1      27.205   5.411  48.697  1.00  0.00     0.269 C 
HETATM   23  O2  UNL     1      27.760   4.273  48.699  1.00  0.00    -0.264 OA
BRANCH  22  24
HETATM   24  O1  UNL     1      28.035   6.398  48.242  1.00  0.00    -0.321 OA
BRANCH  24  25
HETATM   25  C2  UNL     1      29.449   6.201  48.138  1.00  0.00     0.174 C 
HETATM   26  C1  UNL     1      29.936   7.128  47.047  1.00  0.00     0.034 C 
ENDBRANCH  24  25
ENDBRANCH  22  24
ENDBRANCH  16  22
ENDBRANCH   1  14
TORSDOF 4
ENDMDL
MODEL 4
REMARK VINA RESULT:      -7.9      3.579      6.626
REMARK  4 active torsions:
REMARK  status: ('A' for Active; 'I' for Inactive)
REMARK    1  A    between atoms: C2_2  and  O1_3 
REMARK    2  A    between atoms: O1_3  and  C3_4 
REMARK    3  A    between atoms: C3_4  and  C4_6 
REMARK    4  A    between atoms: C8_12  and  C9_13 
ROOT
HETATM    1  C9  UNL     1      24.258   2.952  51.723  1.00  0.00     0.029 C 
HETATM    2  C10 UNL     1      23.236   2.335  52.298  1.00  0.00     0.007 C 
HETATM    3  C11 UNL     1      22.826   1.153  53.055  1.00  0.00     0.010 C 
HETATM    4  C12 UNL     1      21.582   0.546  52.388  1.00  0.00     0.014 C 
HETATM    5  C13 UNL     1      23.823   0.068  53.152  1.00  0.00     0.044 C 
HETATM    6  C14 UNL     1      25.243   0.464  53.205  1.00  0.00    -0.057 C 
HETATM    7  C15 UNL     1      26.118   1.359  52.714  1.00  0.00     0.012 C 
HETATM    8  C16 UNL     1      27.575   1.604  52.897  1.00  0.00     0.057 C 
HETATM    9  C17 UNL     1      28.140   0.439  53.675  1.00  0.00     0.006 C 
HETATM   10  C18 UNL     1      27.131   0.161  54.793  1.00  0.00     0.005 C 
HETATM   11  C19 UNL     1      25.952  -0.485  54.151  1.00  0.00     0.036 C 
HETATM   12  N2  UNL     1      25.559   2.325  51.791  1.00  0.00    -0.360 N 
HETATM   13  H26 UNL     1      26.228   2.641  51.018  1.00  0.00     0.166 HD
ENDROOT
BRANCH   1  14
HETATM   14  C8  UNL     1      24.166   4.204  51.038  1.00  0.00     0.043 C 
HETATM   15  C7  UNL     1      23.611   5.308  50.658  1.00  0.00     0.027 C 
HETATM   16  C4  UNL     1      23.826   6.545  49.842  1.00  0.00     0.142 C 
HETATM   17  C6  UNL     1      22.232   5.643  51.090  1.00  0.00     0.248 C 
HETATM   18  C5  UNL     1      23.364   7.624  50.831  1.00  0.00     0.142 C 
HETATM   19  N1  UNL     1      22.128   7.057  51.356  1.00  0.00    -0.356 N 
HETATM   20  H9  UNL     1      21.448   7.702  51.790  1.00  0.00     0.162 HD
HETATM   21  O3  UNL     1      21.130   5.019  51.285  1.00  0.00    -0.268 OA
BRANCH  16  22
HETATM   22  C3  UNL     1      25.248   6.806  49.552  1.00  0.00     0.269 C 
HETATM   23  O2  UNL     1      26.004   7.516  50.277  1.00  0.00    -0.264 OA
BRANCH  22  24
HETATM   24  O1  UNL     1      25.894   6.299  48.459  1.00  0.00    -0.321 OA
BRANCH  24  25
HETATM   25  C2  UNL     1      27.253   5.855  48.529  1.00  0.00     0.174 C 
HETATM   26  C1  UNL     1      27.215   4.418  48.999  1.00  0.00     0.034 C 
ENDBRANCH  24  25
ENDBRANCH  22  24
ENDBRANCH  16  22
ENDBRANCH   1  14
TORSDOF 4
ENDMDL
MODEL 5
REMARK VINA RESULT:      -7.9      3.218      4.783
REMARK  4 active torsions:
REMARK  status: ('A' for Active; 'I' for Inactive)
REMARK    1  A    between atoms: C2_2  and  O1_3 
REMARK    2  A    between atoms: O1_3  and  C3_4 
REMARK    3  A    between atoms: C3_4  and  C4_6 
REMARK    4  A    between atoms: C8_12  and  C9_13 
ROOT
HETATM    1  C9  UNL     1      24.616   3.408  50.941  1.00  0.00     0.029 C 
HETATM    2  C10 UNL     1      23.986   2.849  49.919  1.00  0.00     0.007 C 
HETATM    3  C11 UNL     1      23.272   3.106  48.669  1.00  0.00     0.010 C 
HETATM    4  C12 UNL     1      21.954   2.316  48.680  1.00  0.00     0.014 C 
HETATM    5  C13 UNL     1      22.916   4.514  48.405  1.00  0.00     0.044 C 
HETATM    6  C14 UNL     1      23.852   5.546  48.891  1.00  0.00    -0.057 C 
HETATM    7  C15 UNL     1      24.672   5.841  49.914  1.00  0.00     0.012 C 
HETATM    8  C16 UNL     1      25.572   6.984  50.235  1.00  0.00     0.057 C 
HETATM    9  C17 UNL     1      25.298   8.077  49.229  1.00  0.00     0.006 C 
HETATM   10  C18 UNL     1      25.194   7.373  47.873  1.00  0.00     0.005 C 
HETATM   11  C19 UNL     1      23.886   6.660  47.864  1.00  0.00     0.036 C 
HETATM   12  N2  UNL     1      24.727   4.850  50.968  1.00  0.00    -0.360 N 
HETATM   13  H26 UNL     1      24.881   5.250  51.948  1.00  0.00     0.166 HD
ENDROOT
BRANCH   1  14
HETATM   14  C8  UNL     1      25.204   2.683  52.025  1.00  0.00     0.043 C 
HETATM   15  C7  UNL     1      25.254   1.810  52.976  1.00  0.00     0.027 C 
HETATM   16  C4  UNL     1      26.136   1.243  54.045  1.00  0.00     0.142 C 
HETATM   17  C6  UNL     1      24.078   0.957  53.275  1.00  0.00     0.248 C 
HETATM   18  C5  UNL     1      25.952  -0.261  53.800  1.00  0.00     0.142 C 
HETATM   19  N1  UNL     1      24.510  -0.374  53.625  1.00  0.00    -0.356 N 
HETATM   20  H9  UNL     1      24.078  -1.302  53.768  1.00  0.00     0.162 HD
HETATM   21  O3  UNL     1      22.803   1.089  53.304  1.00  0.00    -0.268 OA
BRANCH  16  22
HETATM   22  C3  UNL     1      27.564   1.543  53.835  1.00  0.00     0.269 C 
HETATM   23  O2  UNL     1      28.139   2.596  54.239  1.00  0.00    -0.264 OA
BRANCH  22  24
HETATM   24  O1  UNL     1      28.416   0.701  53.174  1.00  0.00    -0.321 OA
BRANCH  24  25
HETATM   25  C2  UNL     1      29.635   0.248  53.770  1.00  0.00     0.174 C 
HETATM   26  C1  UNL     1      29.733  -1.234  53.484  1.00  0.00     0.034 C 
ENDBRANCH  24  25
ENDBRANCH  22  24
ENDBRANCH  16  22
ENDBRANCH   1  14
TORSDOF 4
ENDMDL
MODEL 6
REMARK VINA RESULT:      -7.8      5.061      7.077
REMARK  4 active torsions:
REMARK  status: ('A' for Active; 'I' for Inactive)
REMARK    1  A    between atoms: C2_2  and  O1_3 
REMARK    2  A    between atoms: O1_3  and  C3_4 
REMARK    3  A    between atoms: C3_4  and  C4_6 
REMARK    4  A    between atoms: C8_12  and  C9_13 
ROOT
HETATM    1  C9  UNL     1      26.722   4.576  49.075  1.00  0.00     0.029 C 
HETATM    2  C10 UNL     1      25.567   5.222  49.021  1.00  0.00     0.007 C 
HETATM    3  C11 UNL     1      24.142   5.154  49.346  1.00  0.00     0.010 C 
HETATM    4  C12 UNL     1      23.332   5.552  48.103  1.00  0.00     0.014 C 
HETATM    5  C13 UNL     1      23.638   3.833  49.771  1.00  0.00     0.044 C 
HETATM    6  C14 UNL     1      24.564   2.976  50.537  1.00  0.00    -0.057 C 
HETATM    7  C15 UNL     1      25.857   2.622  50.629  1.00  0.00     0.012 C 
HETATM    8  C16 UNL     1      26.628   1.700  51.507  1.00  0.00     0.057 C 
HETATM    9  C17 UNL     1      25.633   0.899  52.313  1.00  0.00     0.006 C 
HETATM   10  C18 UNL     1      24.576   1.904  52.779  1.00  0.00     0.005 C 
HETATM   11  C19 UNL     1      23.752   2.239  51.583  1.00  0.00     0.036 C 
HETATM   12  N2  UNL     1      26.741   3.261  49.676  1.00  0.00    -0.360 N 
HETATM   13  H26 UNL     1      27.563   2.655  49.354  1.00  0.00     0.166 HD
ENDROOT
BRANCH   1  14
HETATM   14  C8  UNL     1      27.962   5.093  48.585  1.00  0.00     0.043 C 
HETATM   15  C7  UNL     1      28.800   6.002  48.209  1.00  0.00     0.027 C 
HETATM   16  C4  UNL     1      30.188   6.221  47.691  1.00  0.00     0.142 C 
HETATM   17  C6  UNL     1      28.409   7.433  48.218  1.00  0.00     0.248 C 
HETATM   18  C5  UNL     1      30.668   7.342  48.623  1.00  0.00     0.142 C 
HETATM   19  N1  UNL     1      29.525   8.247  48.636  1.00  0.00    -0.356 N 
HETATM   20  H9  UNL     1      29.690   9.227  48.916  1.00  0.00     0.162 HD
HETATM   21  O3  UNL     1      27.362   8.124  47.956  1.00  0.00    -0.268 OA
BRANCH  16  22
HETATM   22  C3  UNL     1      31.076   5.065  47.915  1.00  0.00     0.269 C 
HETATM   23  O2  UNL     1      31.855   4.946  48.905  1.00  0.00    -0.264 OA
BRANCH  22  24
HETATM   24  O1  UNL     1      31.145   3.998  47.062  1.00  0.00    -0.321 OA
BRANCH  24  25
HETATM   25  C2  UNL     1      32.395   3.527  46.549  1.00  0.00     0.174 C 
HETATM   26  C1  UNL     1      32.845   4.534  45.514  1.00  0.00     0.034 C 
ENDBRANCH  24  25
ENDBRANCH  22  24
ENDBRANCH  16  22
ENDBRANCH   1  14
TORSDOF 4
ENDMDL
MODEL 7
REMARK VINA RESULT:      -7.7      2.762      4.365
REMARK  4 active torsions:
REMARK  status: ('A' for Active; 'I' for Inactive)
REMARK    1  A    between atoms: C2_2  and  O1_3 
REMARK    2  A    between atoms: O1_3  and  C3_4 
REMARK    3  A    between atoms: C3_4  and  C4_6 
REMARK    4  A    between atoms: C8_12  and  C9_13 
ROOT
HETATM    1  C9  UNL     1      23.895   2.763  51.941  1.00  0.00     0.029 C 
HETATM    2  C10 UNL     1      22.592   2.757  51.704  1.00  0.00     0.007 C 
HETATM    3  C11 UNL     1      21.479   3.503  51.117  1.00  0.00     0.010 C 
HETATM    4  C12 UNL     1      20.327   3.554  52.133  1.00  0.00     0.014 C 
HETATM    5  C13 UNL     1      21.766   4.900  50.737  1.00  0.00     0.044 C 
HETATM    6  C14 UNL     1      23.129   5.198  50.256  1.00  0.00    -0.057 C 
HETATM    7  C15 UNL     1      24.420   4.882  50.453  1.00  0.00     0.012 C 
HETATM    8  C16 UNL     1      25.707   5.312  49.839  1.00  0.00     0.057 C 
HETATM    9  C17 UNL     1      25.412   6.489  48.939  1.00  0.00     0.006 C 
HETATM   10  C18 UNL     1      24.137   6.118  48.179  1.00  0.00     0.005 C 
HETATM   11  C19 UNL     1      23.013   6.230  49.151  1.00  0.00     0.036 C 
HETATM   12  N2  UNL     1      24.664   3.902  51.491  1.00  0.00    -0.360 N 
HETATM   13  H26 UNL     1      25.581   4.037  52.025  1.00  0.00     0.166 HD
ENDROOT
BRANCH   1  14
HETATM   14  C8  UNL     1      24.601   1.714  52.609  1.00  0.00     0.043 C 
HETATM   15  C7  UNL     1      25.631   1.102  53.093  1.00  0.00     0.027 C 
HETATM   16  C4  UNL     1      26.065  -0.132  53.822  1.00  0.00     0.142 C 
HETATM   17  C6  UNL     1      26.985   1.692  52.964  1.00  0.00     0.248 C 
HETATM   18  C5  UNL     1      26.956   0.478  54.913  1.00  0.00     0.142 C 
HETATM   19  N1  UNL     1      27.748   1.445  54.163  1.00  0.00    -0.356 N 
HETATM   20  H9  UNL     1      28.639   1.763  54.578  1.00  0.00     0.162 HD
HETATM   21  O3  UNL     1      27.644   2.351  52.084  1.00  0.00    -0.268 OA
BRANCH  16  22
HETATM   22  C3  UNL     1      24.955  -0.820  54.506  1.00  0.00     0.269 C 
HETATM   23  O2  UNL     1      25.043  -1.349  55.653  1.00  0.00    -0.264 OA
BRANCH  22  24
HETATM   24  O1  UNL     1      23.708  -0.954  53.961  1.00  0.00    -0.321 OA
BRANCH  24  25
HETATM   25  C2  UNL     1      22.535  -1.019  54.778  1.00  0.00     0.174 C 
HETATM   26  C1  UNL     1      21.578   0.024  54.245  1.00  0.00     0.034 C 
ENDBRANCH  24  25
ENDBRANCH  22  24
ENDBRANCH  16  22
ENDBRANCH   1  14
TORSDOF 4
ENDMDL
MODEL 8
REMARK VINA RESULT:      -7.7      2.171      4.389
REMARK  4 active torsions:
REMARK  status: ('A' for Active; 'I' for Inactive)
REMARK    1  A    between atoms: C2_2  and  O1_3 
REMARK    2  A    between atoms: O1_3  and  C3_4 
REMARK    3  A    between atoms: C3_4  and  C4_6 
REMARK    4  A    between atoms: C8_12  and  C9_13 
ROOT
HETATM    1  C9  UNL     1      22.894   1.162  51.389  1.00  0.00     0.029 C 
HETATM    2  C10 UNL     1      22.641   1.866  50.295  1.00  0.00     0.007 C 
HETATM    3  C11 UNL     1      21.652   2.142  49.254  1.00  0.00     0.010 C 
HETATM    4  C12 UNL     1      22.339   2.051  47.882  1.00  0.00     0.014 C 
HETATM    5  C13 UNL     1      20.492   1.229  49.204  1.00  0.00     0.044 C 
HETATM    6  C14 UNL     1      20.010   0.686  50.488  1.00  0.00    -0.057 C 
HETATM    7  C15 UNL     1      20.436   0.239  51.682  1.00  0.00     0.012 C 
HETATM    8  C16 UNL     1      19.763  -0.291  52.900  1.00  0.00     0.057 C 
HETATM    9  C17 UNL     1      18.308  -0.508  52.559  1.00  0.00     0.006 C 
HETATM   10  C18 UNL     1      17.880   0.732  51.768  1.00  0.00     0.005 C 
HETATM   11  C19 UNL     1      18.498   0.608  50.418  1.00  0.00     0.036 C 
HETATM   12  N2  UNL     1      21.871   0.261  51.873  1.00  0.00    -0.360 N 
HETATM   13  H26 UNL     1      22.252  -0.528  52.486  1.00  0.00     0.166 HD
ENDROOT
BRANCH   1  14
HETATM   14  C8  UNL     1      24.113   1.235  52.133  1.00  0.00     0.043 C 
HETATM   15  C7  UNL     1      24.980   0.879  53.023  1.00  0.00     0.027 C 
HETATM   16  C4  UNL     1      26.318   1.219  53.604  1.00  0.00     0.142 C 
HETATM   17  C6  UNL     1      24.715  -0.282  53.907  1.00  0.00     0.248 C 
HETATM   18  C5  UNL     1      26.989  -0.161  53.604  1.00  0.00     0.142 C 
HETATM   19  N1  UNL     1      25.935  -1.020  54.129  1.00  0.00    -0.356 N 
HETATM   20  H9  UNL     1      26.212  -1.929  54.536  1.00  0.00     0.162 HD
HETATM   21  O3  UNL     1      23.709  -0.793  54.513  1.00  0.00    -0.268 OA
BRANCH  16  22
HETATM   22  C3  UNL     1      27.123   2.090  52.730  1.00  0.00     0.269 C 
HETATM   23  O2  UNL     1      28.387   2.151  52.753  1.00  0.00    -0.264 OA
BRANCH  22  24
HETATM   24  O1  UNL     1      26.575   2.928  51.797  1.00  0.00    -0.321 OA
BRANCH  24  25
HETATM   25  C2  UNL     1      26.698   2.672  50.395  1.00  0.00     0.174 C 
HETATM   26  C1  UNL     1      26.262   3.934  49.685  1.00  0.00     0.034 C 
ENDBRANCH  24  25
ENDBRANCH  22  24
ENDBRANCH  16  22
ENDBRANCH   1  14
TORSDOF 4
ENDMDL
MODEL 9
REMARK VINA RESULT:      -7.7      3.447      6.764
REMARK  4 active torsions:
REMARK  status: ('A' for Active; 'I' for Inactive)
REMARK    1  A    between atoms: C2_2  and  O1_3 
REMARK    2  A    between atoms: O1_3  and  C3_4 
REMARK    3  A    between atoms: C3_4  and  C4_6 
REMARK    4  A    between atoms: C8_12  and  C9_13 
ROOT
HETATM    1  C9  UNL     1      23.591   1.700  51.363  1.00  0.00     0.029 C 
HETATM    2  C10 UNL     1      22.646   1.343  52.220  1.00  0.00     0.007 C 
HETATM    3  C11 UNL     1      22.344   0.526  53.395  1.00  0.00     0.010 C 
HETATM    4  C12 UNL     1      21.067  -0.282  53.120  1.00  0.00     0.014 C 
HETATM    5  C13 UNL     1      23.381  -0.448  53.790  1.00  0.00     0.044 C 
HETATM    6  C14 UNL     1      24.786  -0.063  53.558  1.00  0.00    -0.057 C 
HETATM    7  C15 UNL     1      25.584   0.583  52.691  1.00  0.00     0.012 C 
HETATM    8  C16 UNL     1      27.043   0.876  52.632  1.00  0.00     0.057 C 
HETATM    9  C17 UNL     1      27.713   0.081  53.727  1.00  0.00     0.006 C 
HETATM   10  C18 UNL     1      26.817   0.239  54.959  1.00  0.00     0.005 C 
HETATM   11  C19 UNL     1      25.608  -0.596  54.716  1.00  0.00     0.036 C 
HETATM   12  N2  UNL     1      24.914   1.140  51.534  1.00  0.00    -0.360 N 
HETATM   13  H26 UNL     1      25.500   1.146  50.639  1.00  0.00     0.166 HD
ENDROOT
BRANCH   1  14
HETATM   14  C8  UNL     1      23.397   2.609  50.277  1.00  0.00     0.043 C 
HETATM   15  C7  UNL     1      22.895   3.037  49.166  1.00  0.00     0.027 C 
HETATM   16  C4  UNL     1      22.915   4.177  48.195  1.00  0.00     0.142 C 
HETATM   17  C6  UNL     1      21.913   2.213  48.420  1.00  0.00     0.248 C 
HETATM   18  C5  UNL     1      21.411   4.415  48.002  1.00  0.00     0.142 C 
HETATM   19  N1  UNL     1      20.900   3.059  47.838  1.00  0.00    -0.356 N 
HETATM   20  H9  UNL     1      19.983   2.943  47.375  1.00  0.00     0.162 HD
HETATM   21  O3  UNL     1      21.730   0.971  48.161  1.00  0.00    -0.268 OA
BRANCH  16  22
HETATM   22  C3  UNL     1      23.477   5.414  48.768  1.00  0.00     0.269 C 
HETATM   23  O2  UNL     1      22.849   6.186  49.550  1.00  0.00    -0.264 OA
BRANCH  22  24
HETATM   24  O1  UNL     1      24.746   5.851  48.505  1.00  0.00    -0.321 OA
BRANCH  24  25
HETATM   25  C2  UNL     1      25.781   5.788  49.491  1.00  0.00     0.174 C 
HETATM   26  C1  UNL     1      26.540   4.504  49.240  1.00  0.00     0.034 C 
ENDBRANCH  24  25
ENDBRANCH  22  24
ENDBRANCH  16  22
ENDBRANCH   1  14
TORSDOF 4
ENDMDL
