MODEL 1
REMARK VINA RESULT:      -7.9      0.000      0.000
REMARK  11 active torsions:
REMARK  status: ('A' for Active; 'I' for Inactive)
REMARK    1  A    between atoms: C2_2  and  C3_3 
REMARK    2  A    between atoms: C3_3  and  C12_14 
REMARK    3  A    between atoms: C4_4  and  C5_5 
REMARK    4  A    between atoms: C5_5  and  O1_6 
REMARK    5  A    between atoms: O1_6  and  C6_7 
REMARK    6  A    between atoms: C12_14  and  N1_15 
REMARK    7  A    between atoms: N1_15  and  C13_16 
REMARK    8  A    between atoms: N1_15  and  C17_23 
REMARK    9  A    between atoms: C15_18  and  N2_19 
REMARK   10  A    between atoms: C19_25  and  C20_26 
REMARK   11  A    between atoms: C20_26  and  N5_27 
ROOT
HETATM    1  N1  UNL     1      22.997   4.028  49.981  1.00  0.00    -0.357 N 
ENDROOT
BRANCH   1   2
HETATM    2  C12 UNL     1      24.150   3.422  49.344  1.00  0.00     0.159 C 
BRANCH   2   3
HETATM    3  C3  UNL     1      25.407   4.193  49.502  1.00  0.00    -0.064 C 
HETATM    4  C4  UNL     1      26.375   3.672  50.298  1.00  0.00     0.004 C 
BRANCH   3   5
HETATM    5  C2  UNL     1      25.606   5.489  48.798  1.00  0.00     0.031 C 
HETATM    6  C1  UNL     1      27.092   5.775  48.601  1.00  0.00     0.010 C 
ENDBRANCH   3   5
BRANCH   4   7
HETATM    7  C5  UNL     1      26.554   2.461  51.136  1.00  0.00     0.198 C 
BRANCH   7   8
HETATM    8  O1  UNL     1      27.686   2.427  51.895  1.00  0.00    -0.358 OA
BRANCH   8   9
HETATM    9  C6  UNL     1      27.569   2.054  53.202  1.00  0.00     0.261 C 
HETATM   10  C7  UNL     1      28.737   1.236  53.705  1.00  0.00     0.064 C 
HETATM   11  C8  UNL     1      28.025   0.221  54.585  1.00  0.00     0.042 C 
HETATM   12  C9  UNL     1      26.741   0.041  53.816  1.00  0.00     0.057 C 
HETATM   13  C10 UNL     1      25.705  -0.481  54.796  1.00  0.00     0.045 C 
HETATM   14  C11 UNL     1      26.917  -0.911  52.650  1.00  0.00     0.045 C 
HETATM   15  O2  UNL     1      26.430   1.285  53.354  1.00  0.00    -0.351 OA
ENDBRANCH   8   9
ENDBRANCH   7   8
ENDBRANCH   4   7
ENDBRANCH   2   3
ENDBRANCH   1   2
BRANCH   1  16
HETATM   16  C13 UNL     1      22.279   5.277  50.032  1.00  0.00     0.131 A 
HETATM   17  C14 UNL     1      20.986   5.573  49.658  1.00  0.00     0.100 A 
HETATM   18  C15 UNL     1      20.519   6.853  49.805  1.00  0.00     0.126 A 
HETATM   19  N3  UNL     1      21.331   7.800  50.312  1.00  0.00    -0.225 NA
HETATM   20  C16 UNL     1      22.588   7.471  50.664  1.00  0.00     0.237 A 
HETATM   21  N4  UNL     1      23.101   6.213  50.540  1.00  0.00    -0.224 NA
BRANCH  18  22
HETATM   22  N2  UNL     1      19.162   7.014  49.375  1.00  0.00    -0.384 N 
HETATM   23  H23 UNL     1      18.480   6.258  49.661  1.00  0.00     0.157 HD
HETATM   24  H24 UNL     1      18.719   7.787  48.804  1.00  0.00     0.157 HD
ENDBRANCH  18  22
ENDBRANCH   1  16
BRANCH   1  25
HETATM   25  C17 UNL     1      22.396   3.036  50.836  1.00  0.00     0.090 C 
HETATM   26  C18 UNL     1      23.027   1.691  50.915  1.00  0.00     0.032 C 
HETATM   27  C19 UNL     1      22.563   1.649  52.371  1.00  0.00     0.021 C 
HETATM   28  C24 UNL     1      22.527   3.184  52.306  1.00  0.00     0.010 C 
HETATM   29  C25 UNL     1      23.792   3.710  52.884  1.00  0.00     0.012 C 
BRANCH  27  30
HETATM   30  C20 UNL     1      21.195   1.075  52.545  1.00  0.00     0.277 C 
BRANCH  30  31
HETATM   31  N5  UNL     1      21.066   0.350  53.790  1.00  0.00     0.088 N 
HETATM   32  C21 UNL     1      20.268  -0.847  53.753  1.00  0.00     0.274 C 
HETATM   33  C22 UNL     1      21.392  -1.643  54.417  1.00  0.00     0.060 C 
HETATM   34  C23 UNL     1      22.237  -0.433  54.072  1.00  0.00     0.274 C 
ENDBRANCH  30  31
ENDBRANCH  27  30
ENDBRANCH   1  25
TORSDOF 11
ENDMDL
MODEL 2
REMARK VINA RESULT:      -7.8      3.477      7.428
REMARK  11 active torsions:
REMARK  status: ('A' for Active; 'I' for Inactive)
REMARK    1  A    between atoms: C2_2  and  C3_3 
REMARK    2  A    between atoms: C3_3  and  C12_14 
REMARK    3  A    between atoms: C4_4  and  C5_5 
REMARK    4  A    between atoms: C5_5  and  O1_6 
REMARK    5  A    between atoms: O1_6  and  C6_7 
REMARK    6  A    between atoms: C12_14  and  N1_15 
REMARK    7  A    between atoms: N1_15  and  C13_16 
REMARK    8  A    between atoms: N1_15  and  C17_23 
REMARK    9  A    between atoms: C15_18  and  N2_19 
REMARK   10  A    between atoms: C19_25  and  C20_26 
REMARK   11  A    between atoms: C20_26  and  N5_27 
ROOT
HETATM    1  N1  UNL     1      23.481   1.480  52.439  1.00  0.00    -0.357 N 
ENDROOT
BRANCH   1   2
HETATM    2  C12 UNL     1      22.559   0.362  52.473  1.00  0.00     0.159 C 
BRANCH   2   3
HETATM    3  C3  UNL     1      21.447   0.520  53.442  1.00  0.00    -0.064 C 
HETATM    4  C4  UNL     1      20.410   1.322  53.093  1.00  0.00     0.004 C 
BRANCH   3   5
HETATM    5  C2  UNL     1      21.462  -0.192  54.749  1.00  0.00     0.031 C 
HETATM    6  C1  UNL     1      21.741  -1.680  54.550  1.00  0.00     0.010 C 
ENDBRANCH   3   5
BRANCH   4   7
HETATM    7  C5  UNL     1      20.037   2.168  51.933  1.00  0.00     0.198 C 
BRANCH   7   8
HETATM    8  O1  UNL     1      18.876   2.871  52.061  1.00  0.00    -0.358 OA
BRANCH   8   9
HETATM    9  C6  UNL     1      17.909   2.687  51.116  1.00  0.00     0.261 C 
HETATM   10  C7  UNL     1      16.502   2.807  51.657  1.00  0.00     0.064 C 
HETATM   11  C8  UNL     1      15.798   1.701  50.886  1.00  0.00     0.042 C 
HETATM   12  C9  UNL     1      16.909   0.687  50.781  1.00  0.00     0.057 C 
HETATM   13  C10 UNL     1      16.584  -0.207  49.596  1.00  0.00     0.045 C 
HETATM   14  C11 UNL     1      17.048  -0.123  52.054  1.00  0.00     0.045 C 
HETATM   15  O2  UNL     1      18.039   1.422  50.574  1.00  0.00    -0.351 OA
ENDBRANCH   8   9
ENDBRANCH   7   8
ENDBRANCH   4   7
ENDBRANCH   2   3
ENDBRANCH   1   2
BRANCH   1  16
HETATM   16  C13 UNL     1      23.608   2.805  51.886  1.00  0.00     0.131 A 
HETATM   17  C14 UNL     1      23.865   4.006  52.511  1.00  0.00     0.100 A 
HETATM   18  C15 UNL     1      23.942   5.152  51.762  1.00  0.00     0.126 A 
HETATM   19  N3  UNL     1      23.764   5.085  50.430  1.00  0.00    -0.225 NA
HETATM   20  C16 UNL     1      23.513   3.893  49.857  1.00  0.00     0.237 A 
HETATM   21  N4  UNL     1      23.428   2.724  50.555  1.00  0.00    -0.224 NA
BRANCH  18  22
HETATM   22  N2  UNL     1      24.213   6.322  52.544  1.00  0.00    -0.384 N 
HETATM   23  H23 UNL     1      24.617   7.154  52.031  1.00  0.00     0.157 HD
HETATM   24  H24 UNL     1      24.070   6.492  53.579  1.00  0.00     0.157 HD
ENDBRANCH  18  22
ENDBRANCH   1  16
BRANCH   1  25
HETATM   25  C17 UNL     1      24.639   1.117  53.215  1.00  0.00     0.090 C 
HETATM   26  C18 UNL     1      24.906  -0.326  53.461  1.00  0.00     0.032 C 
HETATM   27  C19 UNL     1      26.393   0.027  53.423  1.00  0.00     0.021 C 
HETATM   28  C24 UNL     1      25.984   1.262  52.606  1.00  0.00     0.010 C 
HETATM   29  C25 UNL     1      26.177   0.958  51.163  1.00  0.00     0.012 C 
BRANCH  27  30
HETATM   30  C20 UNL     1      26.950   0.410  54.755  1.00  0.00     0.277 C 
BRANCH  30  31
HETATM   31  N5  UNL     1      28.353   0.081  54.871  1.00  0.00     0.088 N 
HETATM   32  C21 UNL     1      28.875  -0.843  53.899  1.00  0.00     0.274 C 
HETATM   33  C22 UNL     1      30.023   0.113  53.573  1.00  0.00     0.060 C 
HETATM   34  C23 UNL     1      29.188   1.121  54.338  1.00  0.00     0.274 C 
ENDBRANCH  30  31
ENDBRANCH  27  30
ENDBRANCH   1  25
TORSDOF 11
ENDMDL
MODEL 3
REMARK VINA RESULT:      -7.7      2.947      7.228
REMARK  11 active torsions:
REMARK  status: ('A' for Active; 'I' for Inactive)
REMARK    1  A    between atoms: C2_2  and  C3_3 
REMARK    2  A    between atoms: C3_3  and  C12_14 
REMARK    3  A    between atoms: C4_4  and  C5_5 
REMARK    4  A    between atoms: C5_5  and  O1_6 
REMARK    5  A    between atoms: O1_6  and  C6_7 
REMARK    6  A    between atoms: C12_14  and  N1_15 
REMARK    7  A    between atoms: N1_15  and  C13_16 
REMARK    8  A    between atoms: N1_15  and  C17_23 
REMARK    9  A    between atoms: C15_18  and  N2_19 
REMARK   10  A    between atoms: C19_25  and  C20_26 
REMARK   11  A    between atoms: C20_26  and  N5_27 
ROOT
HETATM    1  N1  UNL     1      23.470   1.271  52.573  1.00  0.00    -0.357 N 
ENDROOT
BRANCH   1   2
HETATM    2  C12 UNL     1      22.601   0.111  52.616  1.00  0.00     0.159 C 
BRANCH   2   3
HETATM    3  C3  UNL     1      21.495   0.214  53.599  1.00  0.00    -0.064 C 
HETATM    4  C4  UNL     1      20.388   0.911  53.236  1.00  0.00     0.004 C 
BRANCH   3   5
HETATM    5  C2  UNL     1      21.592  -0.437  54.933  1.00  0.00     0.031 C 
HETATM    6  C1  UNL     1      21.893  -1.927  54.786  1.00  0.00     0.010 C 
ENDBRANCH   3   5
BRANCH   4   7
HETATM    7  C5  UNL     1      19.926   1.672  52.050  1.00  0.00     0.198 C 
BRANCH   7   8
HETATM    8  O1  UNL     1      20.104   3.022  52.106  1.00  0.00    -0.358 OA
BRANCH   8   9
HETATM    9  C6  UNL     1      19.197   3.814  51.463  1.00  0.00     0.261 C 
HETATM   10  C7  UNL     1      17.983   3.062  50.964  1.00  0.00     0.064 C 
HETATM   11  C8  UNL     1      17.748   3.743  49.625  1.00  0.00     0.042 C 
HETATM   12  C9  UNL     1      19.169   4.040  49.213  1.00  0.00     0.057 C 
HETATM   13  C10 UNL     1      19.112   5.182  48.213  1.00  0.00     0.045 C 
HETATM   14  C11 UNL     1      19.842   2.823  48.614  1.00  0.00     0.045 C 
HETATM   15  O2  UNL     1      19.802   4.398  50.366  1.00  0.00    -0.351 OA
ENDBRANCH   8   9
ENDBRANCH   7   8
ENDBRANCH   4   7
ENDBRANCH   2   3
ENDBRANCH   1   2
BRANCH   1  16
HETATM   16  C13 UNL     1      23.520   2.607  52.037  1.00  0.00     0.131 A 
HETATM   17  C14 UNL     1      23.829   3.800  52.656  1.00  0.00     0.100 A 
HETATM   18  C15 UNL     1      23.810   4.961  51.926  1.00  0.00     0.126 A 
HETATM   19  N3  UNL     1      23.489   4.917  50.620  1.00  0.00    -0.225 NA
HETATM   20  C16 UNL     1      23.192   3.733  50.053  1.00  0.00     0.237 A 
HETATM   21  N4  UNL     1      23.198   2.550  50.732  1.00  0.00    -0.224 NA
BRANCH  18  22
HETATM   22  N2  UNL     1      24.150   6.119  52.698  1.00  0.00    -0.384 N 
HETATM   23  H23 UNL     1      25.094   6.113  53.174  1.00  0.00     0.157 HD
HETATM   24  H24 UNL     1      23.595   7.004  52.872  1.00  0.00     0.157 HD
ENDBRANCH  18  22
ENDBRANCH   1  16
BRANCH   1  25
HETATM   25  C17 UNL     1      24.666   0.951  53.311  1.00  0.00     0.090 C 
HETATM   26  C18 UNL     1      25.031  -0.481  53.486  1.00  0.00     0.032 C 
HETATM   27  C19 UNL     1      26.490  -0.030  53.437  1.00  0.00     0.021 C 
HETATM   28  C24 UNL     1      25.985   1.211  52.684  1.00  0.00     0.010 C 
HETATM   29  C25 UNL     1      26.166   0.983  51.226  1.00  0.00     0.012 C 
BRANCH  27  30
HETATM   30  C20 UNL     1      27.049   0.330  54.775  1.00  0.00     0.277 C 
BRANCH  30  31
HETATM   31  N5  UNL     1      28.459   0.025  54.873  1.00  0.00     0.088 N 
HETATM   32  C21 UNL     1      28.979  -0.910  53.911  1.00  0.00     0.274 C 
HETATM   33  C22 UNL     1      30.107   0.056  53.548  1.00  0.00     0.060 C 
HETATM   34  C23 UNL     1      29.270   1.066  54.306  1.00  0.00     0.274 C 
ENDBRANCH  30  31
ENDBRANCH  27  30
ENDBRANCH   1  25
TORSDOF 11
ENDMDL
MODEL 4
REMARK VINA RESULT:      -7.6      3.032      6.746
REMARK  11 active torsions:
REMARK  status: ('A' for Active; 'I' for Inactive)
REMARK    1  A    between atoms: C2_2  and  C3_3 
REMARK    2  A    between atoms: C3_3  and  C12_14 
REMARK    3  A    between atoms: C4_4  and  C5_5 
REMARK    4  A    between atoms: C5_5  and  O1_6 
REMARK    5  A    between atoms: O1_6  and  C6_7 
REMARK    6  A    between atoms: C12_14  and  N1_15 
REMARK    7  A    between atoms: N1_15  and  C13_16 
REMARK    8  A    between atoms: N1_15  and  C17_23 
REMARK    9  A    between atoms: C15_18  and  N2_19 
REMARK   10  A    between atoms: C19_25  and  C20_26 
REMARK   11  A    between atoms: C20_26  and  N5_27 
ROOT
HETATM    1  N1  UNL     1      23.304   0.677  52.316  1.00  0.00    -0.357 N 
ENDROOT
BRANCH   1   2
HETATM    2  C12 UNL     1      23.596   1.595  51.233  1.00  0.00     0.159 C 
BRANCH   2   3
HETATM    3  C3  UNL     1      22.404   2.026  50.462  1.00  0.00    -0.064 C 
HETATM    4  C4  UNL     1      21.851   3.227  50.768  1.00  0.00     0.004 C 
BRANCH   3   5
HETATM    5  C2  UNL     1      21.843   1.174  49.378  1.00  0.00     0.031 C 
HETATM    6  C1  UNL     1      20.340   1.400  49.237  1.00  0.00     0.010 C 
ENDBRANCH   3   5
BRANCH   4   7
HETATM    7  C5  UNL     1      22.103   4.321  51.737  1.00  0.00     0.198 C 
BRANCH   7   8
HETATM    8  O1  UNL     1      22.561   5.490  51.204  1.00  0.00    -0.358 OA
BRANCH   8   9
HETATM    9  C6  UNL     1      23.898   5.748  51.283  1.00  0.00     0.261 C 
HETATM   10  C7  UNL     1      24.240   7.215  51.148  1.00  0.00     0.064 C 
HETATM   11  C8  UNL     1      25.510   7.142  50.314  1.00  0.00     0.042 C 
HETATM   12  C9  UNL     1      25.203   5.947  49.447  1.00  0.00     0.057 C 
HETATM   13  C10 UNL     1      26.533   5.393  48.965  1.00  0.00     0.045 C 
HETATM   14  C11 UNL     1      24.311   6.318  48.280  1.00  0.00     0.045 C 
HETATM   15  O2  UNL     1      24.551   5.075  50.268  1.00  0.00    -0.351 OA
ENDBRANCH   8   9
ENDBRANCH   7   8
ENDBRANCH   4   7
ENDBRANCH   2   3
ENDBRANCH   1   2
BRANCH   1  16
HETATM   16  C13 UNL     1      22.200  -0.041  52.903  1.00  0.00     0.131 A 
HETATM   17  C14 UNL     1      20.845   0.080  52.679  1.00  0.00     0.100 A 
HETATM   18  C15 UNL     1      19.976  -0.728  53.366  1.00  0.00     0.126 A 
HETATM   19  N3  UNL     1      20.459  -1.623  54.247  1.00  0.00    -0.225 NA
HETATM   20  C16 UNL     1      21.789  -1.709  54.438  1.00  0.00     0.237 A 
HETATM   21  N4  UNL     1      22.696  -0.931  53.780  1.00  0.00    -0.224 NA
BRANCH  18  22
HETATM   22  N2  UNL     1      18.602  -0.492  53.034  1.00  0.00    -0.384 N 
HETATM   23  H23 UNL     1      17.902  -0.565  53.823  1.00  0.00     0.157 HD
HETATM   24  H24 UNL     1      18.163  -0.248  52.102  1.00  0.00     0.157 HD
ENDBRANCH  18  22
ENDBRANCH   1  16
BRANCH   1  25
HETATM   25  C17 UNL     1      24.535   0.422  53.019  1.00  0.00     0.090 C 
HETATM   26  C18 UNL     1      25.801   0.375  52.240  1.00  0.00     0.032 C 
HETATM   27  C19 UNL     1      26.488   0.958  53.474  1.00  0.00     0.021 C 
HETATM   28  C24 UNL     1      25.104   1.490  53.878  1.00  0.00     0.010 C 
HETATM   29  C25 UNL     1      25.002   2.911  53.451  1.00  0.00     0.012 C 
BRANCH  27  30
HETATM   30  C20 UNL     1      26.978  -0.079  54.431  1.00  0.00     0.277 C 
BRANCH  30  31
HETATM   31  N5  UNL     1      28.410  -0.007  54.622  1.00  0.00     0.088 N 
HETATM   32  C21 UNL     1      29.202  -0.944  53.871  1.00  0.00     0.274 C 
HETATM   33  C22 UNL     1      30.093   0.187  53.357  1.00  0.00     0.060 C 
HETATM   34  C23 UNL     1      28.990   1.081  53.886  1.00  0.00     0.274 C 
ENDBRANCH  30  31
ENDBRANCH  27  30
ENDBRANCH   1  25
TORSDOF 11
ENDMDL
MODEL 5
REMARK VINA RESULT:      -7.5      2.339      5.706
REMARK  11 active torsions:
REMARK  status: ('A' for Active; 'I' for Inactive)
REMARK    1  A    between atoms: C2_2  and  C3_3 
REMARK    2  A    between atoms: C3_3  and  C12_14 
REMARK    3  A    between atoms: C4_4  and  C5_5 
REMARK    4  A    between atoms: C5_5  and  O1_6 
REMARK    5  A    between atoms: O1_6  and  C6_7 
REMARK    6  A    between atoms: C12_14  and  N1_15 
REMARK    7  A    between atoms: N1_15  and  C13_16 
REMARK    8  A    between atoms: N1_15  and  C17_23 
REMARK    9  A    between atoms: C15_18  and  N2_19 
REMARK   10  A    between atoms: C19_25  and  C20_26 
REMARK   11  A    between atoms: C20_26  and  N5_27 
ROOT
HETATM    1  N1  UNL     1      20.618   2.458  52.273  1.00  0.00    -0.357 N 
ENDROOT
BRANCH   1   2
HETATM    2  C12 UNL     1      21.431   1.980  53.375  1.00  0.00     0.159 C 
BRANCH   2   3
HETATM    3  C3  UNL     1      21.719   0.526  53.332  1.00  0.00    -0.064 C 
HETATM    4  C4  UNL     1      23.015   0.140  53.219  1.00  0.00     0.004 C 
BRANCH   3   5
HETATM    5  C2  UNL     1      20.623  -0.476  53.426  1.00  0.00     0.031 C 
HETATM    6  C1  UNL     1      21.056  -1.672  54.270  1.00  0.00     0.010 C 
ENDBRANCH   3   5
BRANCH   4   7
HETATM    7  C5  UNL     1      24.338   0.801  53.104  1.00  0.00     0.198 C 
BRANCH   7   8
HETATM    8  O1  UNL     1      25.316   0.070  52.500  1.00  0.00    -0.358 OA
BRANCH   8   9
HETATM    9  C6  UNL     1      26.288  -0.475  53.288  1.00  0.00     0.261 C 
HETATM   10  C7  UNL     1      26.313   0.086  54.692  1.00  0.00     0.064 C 
HETATM   11  C8  UNL     1      27.810   0.164  54.947  1.00  0.00     0.042 C 
HETATM   12  C9  UNL     1      28.309   0.499  53.564  1.00  0.00     0.057 C 
HETATM   13  C10 UNL     1      29.766   0.072  53.502  1.00  0.00     0.045 C 
HETATM   14  C11 UNL     1      28.161   1.976  53.260  1.00  0.00     0.045 C 
HETATM   15  O2  UNL     1      27.524  -0.228  52.721  1.00  0.00    -0.351 OA
ENDBRANCH   8   9
ENDBRANCH   7   8
ENDBRANCH   4   7
ENDBRANCH   2   3
ENDBRANCH   1   2
BRANCH   1  16
HETATM   16  C13 UNL     1      19.339   2.228  51.650  1.00  0.00     0.131 A 
HETATM   17  C14 UNL     1      18.910   1.176  50.869  1.00  0.00     0.100 A 
HETATM   18  C15 UNL     1      17.628   1.179  50.382  1.00  0.00     0.126 A 
HETATM   19  N3  UNL     1      16.812   2.208  50.673  1.00  0.00    -0.225 NA
HETATM   20  C16 UNL     1      17.269   3.217  51.438  1.00  0.00     0.237 A 
HETATM   21  N4  UNL     1      18.534   3.263  51.948  1.00  0.00    -0.224 NA
BRANCH  18  22
HETATM   22  N2  UNL     1      17.322   0.025  49.589  1.00  0.00    -0.384 N 
HETATM   23  H23 UNL     1      17.864  -0.857  49.804  1.00  0.00     0.157 HD
HETATM   24  H24 UNL     1      16.622  -0.089  48.803  1.00  0.00     0.157 HD
ENDBRANCH  18  22
ENDBRANCH   1  16
BRANCH   1  25
HETATM   25  C17 UNL     1      21.357   3.496  51.601  1.00  0.00     0.090 C 
HETATM   26  C18 UNL     1      22.706   3.856  52.115  1.00  0.00     0.032 C 
HETATM   27  C19 UNL     1      23.091   4.149  50.666  1.00  0.00     0.021 C 
HETATM   28  C24 UNL     1      21.941   3.210  50.268  1.00  0.00     0.010 C 
HETATM   29  C25 UNL     1      22.509   1.865  49.985  1.00  0.00     0.012 C 
BRANCH  27  30
HETATM   30  C20 UNL     1      22.818   5.558  50.249  1.00  0.00     0.277 C 
BRANCH  30  31
HETATM   31  N5  UNL     1      23.925   6.131  49.516  1.00  0.00     0.088 N 
HETATM   32  C21 UNL     1      25.011   6.651  50.303  1.00  0.00     0.274 C 
HETATM   33  C22 UNL     1      26.020   5.848  49.483  1.00  0.00     0.060 C 
HETATM   34  C23 UNL     1      24.791   5.116  48.983  1.00  0.00     0.274 C 
ENDBRANCH  30  31
ENDBRANCH  27  30
ENDBRANCH   1  25
TORSDOF 11
ENDMDL
MODEL 6
REMARK VINA RESULT:      -7.4      2.772      5.611
REMARK  11 active torsions:
REMARK  status: ('A' for Active; 'I' for Inactive)
REMARK    1  A    between atoms: C2_2  and  C3_3 
REMARK    2  A    between atoms: C3_3  and  C12_14 
REMARK    3  A    between atoms: C4_4  and  C5_5 
REMARK    4  A    between atoms: C5_5  and  O1_6 
REMARK    5  A    between atoms: O1_6  and  C6_7 
REMARK    6  A    between atoms: C12_14  and  N1_15 
REMARK    7  A    between atoms: N1_15  and  C13_16 
REMARK    8  A    between atoms: N1_15  and  C17_23 
REMARK    9  A    between atoms: C15_18  and  N2_19 
REMARK   10  A    between atoms: C19_25  and  C20_26 
REMARK   11  A    between atoms: C20_26  and  N5_27 
ROOT
HETATM    1  N1  UNL     1      21.610   1.456  50.996  1.00  0.00    -0.357 N 
ENDROOT
BRANCH   1   2
HETATM    2  C12 UNL     1      21.247   0.126  51.447  1.00  0.00     0.159 C 
BRANCH   2   3
HETATM    3  C3  UNL     1      21.153  -0.013  52.920  1.00  0.00    -0.064 C 
HETATM    4  C4  UNL     1      22.287  -0.315  53.602  1.00  0.00     0.004 C 
BRANCH   3   5
HETATM    5  C2  UNL     1      19.860   0.188  53.628  1.00  0.00     0.031 C 
HETATM    6  C1  UNL     1      18.776  -0.713  53.040  1.00  0.00     0.010 C 
ENDBRANCH   3   5
BRANCH   4   7
HETATM    7  C5  UNL     1      23.710  -0.580  53.277  1.00  0.00     0.198 C 
BRANCH   7   8
HETATM    8  O1  UNL     1      24.589  -0.446  54.310  1.00  0.00    -0.358 OA
BRANCH   8   9
HETATM    9  C6  UNL     1      25.769   0.192  54.067  1.00  0.00     0.261 C 
HETATM   10  C7  UNL     1      25.903   0.699  52.649  1.00  0.00     0.064 C 
HETATM   11  C8  UNL     1      27.369   0.407  52.371  1.00  0.00     0.042 C 
HETATM   12  C9  UNL     1      27.552  -0.864  53.162  1.00  0.00     0.057 C 
HETATM   13  C10 UNL     1      29.036  -0.992  53.460  1.00  0.00     0.045 C 
HETATM   14  C11 UNL     1      27.042  -2.072  52.402  1.00  0.00     0.045 C 
HETATM   15  O2  UNL     1      26.814  -0.684  54.294  1.00  0.00    -0.351 OA
ENDBRANCH   8   9
ENDBRANCH   7   8
ENDBRANCH   4   7
ENDBRANCH   2   3
ENDBRANCH   1   2
BRANCH   1  16
HETATM   16  C13 UNL     1      22.619   2.464  51.197  1.00  0.00     0.131 A 
HETATM   17  C14 UNL     1      22.785   3.360  52.232  1.00  0.00     0.100 A 
HETATM   18  C15 UNL     1      23.839   4.236  52.202  1.00  0.00     0.126 A 
HETATM   19  N3  UNL     1      24.693   4.208  51.162  1.00  0.00    -0.225 NA
HETATM   20  C16 UNL     1      24.496   3.320  50.170  1.00  0.00     0.237 A 
HETATM   21  N4  UNL     1      23.465   2.427  50.152  1.00  0.00    -0.224 NA
BRANCH  18  22
HETATM   22  N2  UNL     1      23.885   5.104  53.341  1.00  0.00    -0.384 N 
HETATM   23  H23 UNL     1      24.744   5.714  53.440  1.00  0.00     0.157 HD
HETATM   24  H24 UNL     1      23.180   5.239  54.119  1.00  0.00     0.157 HD
ENDBRANCH  18  22
ENDBRANCH   1  16
BRANCH   1  25
HETATM   25  C17 UNL     1      20.617   1.881  50.042  1.00  0.00     0.090 C 
HETATM   26  C18 UNL     1      19.447   0.997  49.792  1.00  0.00     0.032 C 
HETATM   27  C19 UNL     1      18.636   2.272  49.565  1.00  0.00     0.021 C 
HETATM   28  C24 UNL     1      19.702   2.989  50.408  1.00  0.00     0.010 C 
HETATM   29  C25 UNL     1      19.201   3.103  51.804  1.00  0.00     0.012 C 
BRANCH  27  30
HETATM   30  C20 UNL     1      18.648   2.744  48.147  1.00  0.00     0.277 C 
BRANCH  30  31
HETATM   31  N5  UNL     1      17.486   3.545  47.832  1.00  0.00     0.088 N 
HETATM   32  C21 UNL     1      16.770   3.189  46.636  1.00  0.00     0.274 C 
HETATM   33  C22 UNL     1      15.452   3.152  47.409  1.00  0.00     0.060 C 
HETATM   34  C23 UNL     1      16.351   3.170  48.628  1.00  0.00     0.274 C 
ENDBRANCH  30  31
ENDBRANCH  27  30
ENDBRANCH   1  25
TORSDOF 11
ENDMDL
MODEL 7
REMARK VINA RESULT:      -7.3      2.634      5.544
REMARK  11 active torsions:
REMARK  status: ('A' for Active; 'I' for Inactive)
REMARK    1  A    between atoms: C2_2  and  C3_3 
REMARK    2  A    between atoms: C3_3  and  C12_14 
REMARK    3  A    between atoms: C4_4  and  C5_5 
REMARK    4  A    between atoms: C5_5  and  O1_6 
REMARK    5  A    between atoms: O1_6  and  C6_7 
REMARK    6  A    between atoms: C12_14  and  N1_15 
REMARK    7  A    between atoms: N1_15  and  C13_16 
REMARK    8  A    between atoms: N1_15  and  C17_23 
REMARK    9  A    between atoms: C15_18  and  N2_19 
REMARK   10  A    between atoms: C19_25  and  C20_26 
REMARK   11  A    between atoms: C20_26  and  N5_27 
ROOT
HETATM    1  N1  UNL     1      23.994   3.017  50.182  1.00  0.00    -0.357 N 
ENDROOT
BRANCH   1   2
HETATM    2  C12 UNL     1      22.838   2.297  49.685  1.00  0.00     0.159 C 
BRANCH   2   3
HETATM    3  C3  UNL     1      21.671   3.159  49.376  1.00  0.00    -0.064 C 
HETATM    4  C4  UNL     1      20.696   3.267  50.314  1.00  0.00     0.004 C 
BRANCH   3   5
HETATM    5  C2  UNL     1      21.580   3.892  48.084  1.00  0.00     0.031 C 
HETATM    6  C1  UNL     1      22.137   3.046  46.942  1.00  0.00     0.010 C 
ENDBRANCH   3   5
BRANCH   4   7
HETATM    7  C5  UNL     1      20.429   2.721  51.667  1.00  0.00     0.198 C 
BRANCH   7   8
HETATM    8  O1  UNL     1      19.383   1.851  51.759  1.00  0.00    -0.358 OA
BRANCH   8   9
HETATM    9  C6  UNL     1      19.664   0.517  51.819  1.00  0.00     0.261 C 
HETATM   10  C7  UNL     1      18.701  -0.267  52.682  1.00  0.00     0.064 C 
HETATM   11  C8  UNL     1      19.647  -1.247  53.358  1.00  0.00     0.042 C 
HETATM   12  C9  UNL     1      20.881  -0.390  53.495  1.00  0.00     0.057 C 
HETATM   13  C10 UNL     1      22.065  -1.333  53.623  1.00  0.00     0.045 C 
HETATM   14  C11 UNL     1      20.788   0.535  54.691  1.00  0.00     0.045 C 
HETATM   15  O2  UNL     1      20.930   0.343  52.346  1.00  0.00    -0.351 OA
ENDBRANCH   8   9
ENDBRANCH   7   8
ENDBRANCH   4   7
ENDBRANCH   2   3
ENDBRANCH   1   2
BRANCH   1  16
HETATM   16  C13 UNL     1      24.545   4.348  50.225  1.00  0.00     0.131 A 
HETATM   17  C14 UNL     1      25.655   4.868  49.593  1.00  0.00     0.100 A 
HETATM   18  C15 UNL     1      25.984   6.185  49.790  1.00  0.00     0.126 A 
HETATM   19  N3  UNL     1      25.222   6.945  50.596  1.00  0.00    -0.225 NA
HETATM   20  C16 UNL     1      24.147   6.399  51.196  1.00  0.00     0.237 A 
HETATM   21  N4  UNL     1      23.775   5.097  51.033  1.00  0.00    -0.224 NA
BRANCH  18  22
HETATM   22  N2  UNL     1      27.158   6.587  49.072  1.00  0.00    -0.384 N 
HETATM   23  H23 UNL     1      27.184   7.585  48.724  1.00  0.00     0.157 HD
HETATM   24  H24 UNL     1      28.027   6.032  48.830  1.00  0.00     0.157 HD
ENDBRANCH  18  22
ENDBRANCH   1  16
BRANCH   1  25
HETATM   25  C17 UNL     1      24.854   2.065  50.838  1.00  0.00     0.090 C 
HETATM   26  C18 UNL     1      26.114   2.556  51.458  1.00  0.00     0.032 C 
HETATM   27  C19 UNL     1      25.923   1.466  52.513  1.00  0.00     0.021 C 
HETATM   28  C24 UNL     1      24.432   1.498  52.142  1.00  0.00     0.010 C 
HETATM   29  C25 UNL     1      23.721   2.359  53.125  1.00  0.00     0.012 C 
BRANCH  27  30
HETATM   30  C20 UNL     1      26.552   0.161  52.144  1.00  0.00     0.277 C 
BRANCH  30  31
HETATM   31  N5  UNL     1      27.146  -0.496  53.287  1.00  0.00     0.088 N 
HETATM   32  C21 UNL     1      28.582  -0.582  53.299  1.00  0.00     0.274 C 
HETATM   33  C22 UNL     1      28.628   0.000  54.712  1.00  0.00     0.060 C 
HETATM   34  C23 UNL     1      27.183   0.365  54.436  1.00  0.00     0.274 C 
ENDBRANCH  30  31
ENDBRANCH  27  30
ENDBRANCH   1  25
TORSDOF 11
ENDMDL
MODEL 8
REMARK VINA RESULT:      -7.3      2.627      6.545
REMARK  11 active torsions:
REMARK  status: ('A' for Active; 'I' for Inactive)
REMARK    1  A    between atoms: C2_2  and  C3_3 
REMARK    2  A    between atoms: C3_3  and  C12_14 
REMARK    3  A    between atoms: C4_4  and  C5_5 
REMARK    4  A    between atoms: C5_5  and  O1_6 
REMARK    5  A    between atoms: O1_6  and  C6_7 
REMARK    6  A    between atoms: C12_14  and  N1_15 
REMARK    7  A    between atoms: N1_15  and  C13_16 
REMARK    8  A    between atoms: N1_15  and  C17_23 
REMARK    9  A    between atoms: C15_18  and  N2_19 
REMARK   10  A    between atoms: C19_25  and  C20_26 
REMARK   11  A    between atoms: C20_26  and  N5_27 
ROOT
HETATM    1  N1  UNL     1      23.537   1.344  51.624  1.00  0.00    -0.357 N 
ENDROOT
BRANCH   1   2
HETATM    2  C12 UNL     1      23.981   2.136  50.493  1.00  0.00     0.159 C 
BRANCH   2   3
HETATM    3  C3  UNL     1      22.892   2.551  49.575  1.00  0.00    -0.064 C 
HETATM    4  C4  UNL     1      22.561   3.867  49.540  1.00  0.00     0.004 C 
BRANCH   3   5
HETATM    5  C2  UNL     1      22.197   1.559  48.712  1.00  0.00     0.031 C 
HETATM    6  C1  UNL     1      20.686   1.621  48.926  1.00  0.00     0.010 C 
ENDBRANCH   3   5
BRANCH   4   7
HETATM    7  C5  UNL     1      22.997   5.114  50.214  1.00  0.00     0.198 C 
BRANCH   7   8
HETATM    8  O1  UNL     1      24.345   5.298  50.305  1.00  0.00    -0.358 OA
BRANCH   8   9
HETATM    9  C6  UNL     1      25.067   5.316  49.147  1.00  0.00     0.261 C 
HETATM   10  C7  UNL     1      26.521   4.943  49.335  1.00  0.00     0.064 C 
HETATM   11  C8  UNL     1      27.196   5.913  48.378  1.00  0.00     0.042 C 
HETATM   12  C9  UNL     1      26.288   7.109  48.510  1.00  0.00     0.057 C 
HETATM   13  C10 UNL     1      26.464   7.942  47.252  1.00  0.00     0.045 C 
HETATM   14  C11 UNL     1      26.608   7.919  49.750  1.00  0.00     0.045 C 
HETATM   15  O2  UNL     1      25.032   6.588  48.610  1.00  0.00    -0.351 OA
ENDBRANCH   8   9
ENDBRANCH   7   8
ENDBRANCH   4   7
ENDBRANCH   2   3
ENDBRANCH   1   2
BRANCH   1  16
HETATM   16  C13 UNL     1      22.334   0.991  52.333  1.00  0.00     0.131 A 
HETATM   17  C14 UNL     1      21.977  -0.197  52.937  1.00  0.00     0.100 A 
HETATM   18  C15 UNL     1      20.761  -0.295  53.561  1.00  0.00     0.126 A 
HETATM   19  N3  UNL     1      19.936   0.768  53.575  1.00  0.00    -0.225 NA
HETATM   20  C16 UNL     1      20.321   1.909  52.973  1.00  0.00     0.237 A 
HETATM   21  N4  UNL     1      21.519   2.060  52.339  1.00  0.00    -0.224 NA
BRANCH  18  22
HETATM   22  N2  UNL     1      20.525  -1.584  54.142  1.00  0.00    -0.384 N 
HETATM   23  H23 UNL     1      20.786  -2.424  53.556  1.00  0.00     0.157 HD
HETATM   24  H24 UNL     1      20.122  -1.837  55.088  1.00  0.00     0.157 HD
ENDBRANCH  18  22
ENDBRANCH   1  16
BRANCH   1  25
HETATM   25  C17 UNL     1      24.700   0.728  52.211  1.00  0.00     0.090 C 
HETATM   26  C18 UNL     1      26.021   0.937  51.559  1.00  0.00     0.032 C 
HETATM   27  C19 UNL     1      26.629   0.881  52.960  1.00  0.00     0.021 C 
HETATM   28  C24 UNL     1      25.238   1.277  53.479  1.00  0.00     0.010 C 
HETATM   29  C25 UNL     1      25.223   2.746  53.712  1.00  0.00     0.012 C 
BRANCH  27  30
HETATM   30  C20 UNL     1      27.004  -0.499  53.393  1.00  0.00     0.277 C 
BRANCH  30  31
HETATM   31  N5  UNL     1      28.291  -0.530  54.051  1.00  0.00     0.088 N 
HETATM   32  C21 UNL     1      29.293  -1.374  53.455  1.00  0.00     0.274 C 
HETATM   33  C22 UNL     1      30.297  -0.221  53.457  1.00  0.00     0.060 C 
HETATM   34  C23 UNL     1      29.076   0.631  53.737  1.00  0.00     0.274 C 
ENDBRANCH  30  31
ENDBRANCH  27  30
ENDBRANCH   1  25
TORSDOF 11
ENDMDL
MODEL 9
REMARK VINA RESULT:      -7.3      3.237      8.231
REMARK  11 active torsions:
REMARK  status: ('A' for Active; 'I' for Inactive)
REMARK    1  A    between atoms: C2_2  and  C3_3 
REMARK    2  A    between atoms: C3_3  and  C12_14 
REMARK    3  A    between atoms: C4_4  and  C5_5 
REMARK    4  A    between atoms: C5_5  and  O1_6 
REMARK    5  A    between atoms: O1_6  and  C6_7 
REMARK    6  A    between atoms: C12_14  and  N1_15 
REMARK    7  A    between atoms: N1_15  and  C13_16 
REMARK    8  A    between atoms: N1_15  and  C17_23 
REMARK    9  A    between atoms: C15_18  and  N2_19 
REMARK   10  A    between atoms: C19_25  and  C20_26 
REMARK   11  A    between atoms: C20_26  and  N5_27 
ROOT
HETATM    1  N1  UNL     1      24.382   1.181  52.665  1.00  0.00    -0.357 N 
ENDROOT
BRANCH   1   2
HETATM    2  C12 UNL     1      22.977   1.391  52.952  1.00  0.00     0.159 C 
BRANCH   2   3
HETATM    3  C3  UNL     1      22.204   0.142  53.162  1.00  0.00    -0.064 C 
HETATM    4  C4  UNL     1      21.340  -0.239  52.188  1.00  0.00     0.004 C 
BRANCH   3   5
HETATM    5  C2  UNL     1      22.384  -0.673  54.393  1.00  0.00     0.031 C 
HETATM    6  C1  UNL     1      21.422  -1.858  54.401  1.00  0.00     0.010 C 
ENDBRANCH   3   5
BRANCH   4   7
HETATM    7  C5  UNL     1      20.895   0.277  50.870  1.00  0.00     0.198 C 
BRANCH   7   8
HETATM    8  O1  UNL     1      19.592   0.669  50.796  1.00  0.00    -0.358 OA
BRANCH   8   9
HETATM    9  C6  UNL     1      19.246   1.560  49.822  1.00  0.00     0.261 C 
HETATM   10  C7  UNL     1      20.411   2.005  48.967  1.00  0.00     0.064 C 
HETATM   11  C8  UNL     1      20.086   3.478  48.774  1.00  0.00     0.042 C 
HETATM   12  C9  UNL     1      19.445   3.795  50.102  1.00  0.00     0.057 C 
HETATM   13  C10 UNL     1      18.574   5.022  49.893  1.00  0.00     0.045 C 
HETATM   14  C11 UNL     1      20.482   4.040  51.179  1.00  0.00     0.045 C 
HETATM   15  O2  UNL     1      18.709   2.690  50.411  1.00  0.00    -0.351 OA
ENDBRANCH   8   9
ENDBRANCH   7   8
ENDBRANCH   4   7
ENDBRANCH   2   3
ENDBRANCH   1   2
BRANCH   1  16
HETATM   16  C13 UNL     1      25.507   0.398  53.113  1.00  0.00     0.131 A 
HETATM   17  C14 UNL     1      25.956  -0.834  52.686  1.00  0.00     0.100 A 
HETATM   18  C15 UNL     1      27.066  -1.385  53.272  1.00  0.00     0.126 A 
HETATM   19  N3  UNL     1      27.698  -0.715  54.253  1.00  0.00    -0.225 NA
HETATM   20  C16 UNL     1      27.228   0.485  54.642  1.00  0.00     0.237 A 
HETATM   21  N4  UNL     1      26.129   1.077  54.092  1.00  0.00    -0.224 NA
BRANCH  18  22
HETATM   22  N2  UNL     1      27.415  -2.664  52.729  1.00  0.00    -0.384 N 
HETATM   23  H23 UNL     1      27.084  -2.871  51.747  1.00  0.00     0.157 HD
HETATM   24  H24 UNL     1      27.967  -3.456  53.164  1.00  0.00     0.157 HD
ENDBRANCH  18  22
ENDBRANCH   1  16
BRANCH   1  25
HETATM   25  C17 UNL     1      24.743   2.055  51.578  1.00  0.00     0.090 C 
HETATM   26  C18 UNL     1      23.735   2.325  50.519  1.00  0.00     0.032 C 
HETATM   27  C19 UNL     1      24.348   3.720  50.405  1.00  0.00     0.021 C 
HETATM   28  C24 UNL     1      24.861   3.510  51.838  1.00  0.00     0.010 C 
HETATM   29  C25 UNL     1      23.915   4.170  52.778  1.00  0.00     0.012 C 
BRANCH  27  30
HETATM   30  C20 UNL     1      25.474   3.800  49.426  1.00  0.00     0.277 C 
BRANCH  30  31
HETATM   31  N5  UNL     1      26.225   5.028  49.562  1.00  0.00     0.088 N 
HETATM   32  C21 UNL     1      27.330   5.204  48.658  1.00  0.00     0.274 C 
HETATM   33  C22 UNL     1      26.815   6.589  48.263  1.00  0.00     0.060 C 
HETATM   34  C23 UNL     1      25.545   6.137  48.955  1.00  0.00     0.274 C 
ENDBRANCH  30  31
ENDBRANCH  27  30
ENDBRANCH   1  25
TORSDOF 11
ENDMDL
