MODEL 1
REMARK VINA RESULT:      -9.6      0.000      0.000
REMARK  5 active torsions:
REMARK  status: ('A' for Active; 'I' for Inactive)
REMARK    1  A    between atoms: C5_5  and  C6_6 
REMARK       I    between atoms: C6_6  and  N1_8 
REMARK    2  A    between atoms: N1_8  and  C7_9 
REMARK    3  A    between atoms: C11_13  and  N2_14 
REMARK    4  A    between atoms: N2_14  and  C12_15 
REMARK    5  A    between atoms: C15_19  and  C16_20 
ROOT
HETATM    1  C7  UNL     1      23.473   3.031  49.600  1.00  0.00     0.037 A 
HETATM    2  C8  UNL     1      22.781   2.422  48.573  1.00  0.00     0.029 A 
HETATM    3  C9  UNL     1      21.839   1.469  48.786  1.00  0.00     0.004 A 
HETATM    4  C10 UNL     1      21.561   1.095  50.081  1.00  0.00     0.030 A 
HETATM    5  C11 UNL     1      22.201   1.648  51.167  1.00  0.00     0.051 A 
HETATM    6  C21 UNL     1      23.139   2.604  50.851  1.00  0.00     0.059 A 
ENDROOT
BRANCH   5   7
HETATM    7  N2  UNL     1      21.965   1.311  52.515  1.00  0.00    -0.188 N 
HETATM    8  H10 UNL     1      21.112   1.715  52.978  1.00  0.00     0.184 HD
BRANCH   7   9
HETATM    9  C12 UNL     1      22.752   0.478  53.341  1.00  0.00     0.727 A 
HETATM   10  N3  UNL     1      22.153  -0.327  54.268  1.00  0.00    -0.075 NA
HETATM   11  C13 UNL     1      22.821  -1.143  55.087  1.00  0.00     0.139 A 
HETATM   12  C14 UNL     1      24.184  -1.215  55.036  1.00  0.00     0.052 A 
HETATM   13  C15 UNL     1      24.824  -0.420  54.116  1.00  0.00     0.084 A 
HETATM   14  N4  UNL     1      24.084   0.366  53.337  1.00  0.00    -0.062 NA
BRANCH  13  15
HETATM   15  C16 UNL     1      26.278  -0.435  53.995  1.00  0.00    -0.025 A 
HETATM   16  C17 UNL     1      27.098   0.217  54.800  1.00  0.00     0.009 A 
HETATM   17  C18 UNL     1      28.486  -0.035  54.370  1.00  0.00    -0.003 A 
HETATM   18  C19 UNL     1      28.455  -0.832  53.319  1.00  0.00    -0.022 A 
HETATM   19  C20 UNL     1      27.050  -1.174  52.965  1.00  0.00     0.068 A 
ENDBRANCH  13  15
ENDBRANCH   7   9
ENDBRANCH   5   7
BRANCH   1  20
HETATM   20  N1  UNL     1      24.421   4.000  49.252  1.00  0.00    -0.323 N 
HETATM   21  C6  UNL     1      25.831   4.017  49.313  1.00  0.00     0.256 C 
HETATM   22  O1  UNL     1      26.373   2.964  49.767  1.00  0.00    -0.267 OA
HETATM   23  H6  UNL     1      24.094   4.933  48.857  1.00  0.00     0.169 HD
BRANCH  21  24
HETATM   24  C5  UNL     1      26.697   5.112  48.909  1.00  0.00     0.032 A 
HETATM   25  C4  UNL     1      26.334   6.438  48.820  1.00  0.00     0.017 A 
HETATM   26  C3  UNL     1      27.181   7.455  48.433  1.00  0.00     0.007 A 
HETATM   27  C2  UNL     1      28.483   7.166  48.107  1.00  0.00    -0.062 A 
HETATM   28  C1  UNL     1      29.345   8.298  47.699  1.00  0.00     0.048 C 
HETATM   29  C23 UNL     1      28.886   5.849  48.183  1.00  0.00     0.007 A 
HETATM   30  C22 UNL     1      28.009   4.863  48.574  1.00  0.00     0.017 A 
ENDBRANCH  21  24
ENDBRANCH   1  20
TORSDOF 5
ENDMDL
MODEL 2
REMARK VINA RESULT:      -9.6      1.591      4.825
REMARK  5 active torsions:
REMARK  status: ('A' for Active; 'I' for Inactive)
REMARK    1  A    between atoms: C5_5  and  C6_6 
REMARK       I    between atoms: C6_6  and  N1_8 
REMARK    2  A    between atoms: N1_8  and  C7_9 
REMARK    3  A    between atoms: C11_13  and  N2_14 
REMARK    4  A    between atoms: N2_14  and  C12_15 
REMARK    5  A    between atoms: C15_19  and  C16_20 
ROOT
HETATM    1  C7  UNL     1      27.384   1.949  53.004  1.00  0.00     0.037 A 
HETATM    2  C8  UNL     1      28.688   1.763  53.417  1.00  0.00     0.029 A 
HETATM    3  C9  UNL     1      29.049   0.797  54.298  1.00  0.00     0.004 A 
HETATM    4  C10 UNL     1      28.073  -0.033  54.802  1.00  0.00     0.030 A 
HETATM    5  C11 UNL     1      26.748   0.078  54.447  1.00  0.00     0.051 A 
HETATM    6  C21 UNL     1      26.480   1.087  53.549  1.00  0.00     0.059 A 
ENDROOT
BRANCH   5   7
HETATM    7  N2  UNL     1      25.702  -0.737  54.924  1.00  0.00    -0.188 N 
HETATM    8  H10 UNL     1      25.932  -1.439  55.672  1.00  0.00     0.184 HD
BRANCH   7   9
HETATM    9  C12 UNL     1      24.351  -0.728  54.510  1.00  0.00     0.727 A 
HETATM   10  N3  UNL     1      23.398  -1.335  55.277  1.00  0.00    -0.075 NA
HETATM   11  C13 UNL     1      22.101  -1.373  54.961  1.00  0.00     0.139 A 
HETATM   12  C14 UNL     1      21.649  -0.786  53.814  1.00  0.00     0.052 A 
HETATM   13  C15 UNL     1      22.578  -0.164  53.014  1.00  0.00     0.084 A 
HETATM   14  N4  UNL     1      23.852  -0.172  53.403  1.00  0.00    -0.062 NA
BRANCH  13  15
HETATM   15  C16 UNL     1      22.180   0.488  51.771  1.00  0.00    -0.025 A 
HETATM   16  C17 UNL     1      21.061   0.228  51.120  1.00  0.00     0.009 A 
HETATM   17  C18 UNL     1      21.004   1.077  49.915  1.00  0.00    -0.003 A 
HETATM   18  C19 UNL     1      22.093   1.821  49.882  1.00  0.00    -0.022 A 
HETATM   19  C20 UNL     1      22.960   1.530  51.056  1.00  0.00     0.068 A 
ENDBRANCH  13  15
ENDBRANCH   7   9
ENDBRANCH   5   7
BRANCH   1  20
HETATM   20  N1  UNL     1      27.139   2.980  52.091  1.00  0.00    -0.323 N 
HETATM   21  C6  UNL     1      26.681   2.981  50.756  1.00  0.00     0.256 C 
HETATM   22  O1  UNL     1      26.434   1.839  50.260  1.00  0.00    -0.267 OA
HETATM   23  H6  UNL     1      27.307   3.990  52.385  1.00  0.00     0.169 HD
BRANCH  21  24
HETATM   24  C5  UNL     1      26.470   4.150  49.918  1.00  0.00     0.032 A 
HETATM   25  C4  UNL     1      27.413   4.743  49.107  1.00  0.00     0.017 A 
HETATM   26  C3  UNL     1      27.181   5.852  48.323  1.00  0.00     0.007 A 
HETATM   27  C2  UNL     1      25.937   6.435  48.323  1.00  0.00    -0.062 A 
HETATM   28  C1  UNL     1      25.749   7.623  47.461  1.00  0.00     0.048 C 
HETATM   29  C23 UNL     1      24.966   5.872  49.122  1.00  0.00     0.007 A 
HETATM   30  C22 UNL     1      25.238   4.763  49.891  1.00  0.00     0.017 A 
ENDBRANCH  21  24
ENDBRANCH   1  20
TORSDOF 5
ENDMDL
MODEL 3
REMARK VINA RESULT:      -9.1      1.445      2.092
REMARK  5 active torsions:
REMARK  status: ('A' for Active; 'I' for Inactive)
REMARK    1  A    between atoms: C5_5  and  C6_6 
REMARK       I    between atoms: C6_6  and  N1_8 
REMARK    2  A    between atoms: N1_8  and  C7_9 
REMARK    3  A    between atoms: C11_13  and  N2_14 
REMARK    4  A    between atoms: N2_14  and  C12_15 
REMARK    5  A    between atoms: C15_19  and  C16_20 
ROOT
HETATM    1  C7  UNL     1      24.136   4.470  51.042  1.00  0.00     0.037 A 
HETATM    2  C8  UNL     1      23.230   5.442  51.417  1.00  0.00     0.029 A 
HETATM    3  C9  UNL     1      22.058   5.154  52.036  1.00  0.00     0.004 A 
HETATM    4  C10 UNL     1      21.759   3.836  52.301  1.00  0.00     0.030 A 
HETATM    5  C11 UNL     1      22.602   2.802  51.963  1.00  0.00     0.051 A 
HETATM    6  C21 UNL     1      23.765   3.193  51.340  1.00  0.00     0.059 A 
ENDROOT
BRANCH   5   7
HETATM    7  N2  UNL     1      22.357   1.434  52.205  1.00  0.00    -0.188 N 
HETATM    8  H10 UNL     1      21.557   0.984  51.693  1.00  0.00     0.184 HD
BRANCH   7   9
HETATM    9  C12 UNL     1      23.070   0.576  53.072  1.00  0.00     0.727 A 
HETATM   10  N3  UNL     1      22.394  -0.203  53.968  1.00  0.00    -0.075 NA
HETATM   11  C13 UNL     1      22.989  -1.040  54.821  1.00  0.00     0.139 A 
HETATM   12  C14 UNL     1      24.348  -1.163  54.840  1.00  0.00     0.052 A 
HETATM   13  C15 UNL     1      25.065  -0.395  53.953  1.00  0.00     0.084 A 
HETATM   14  N4  UNL     1      24.394   0.415  53.135  1.00  0.00    -0.062 NA
BRANCH  13  15
HETATM   15  C16 UNL     1      26.521  -0.464  53.907  1.00  0.00    -0.025 A 
HETATM   16  C17 UNL     1      27.205  -1.166  53.021  1.00  0.00     0.009 A 
HETATM   17  C18 UNL     1      28.645  -0.993  53.286  1.00  0.00    -0.003 A 
HETATM   18  C19 UNL     1      28.780  -0.191  54.325  1.00  0.00    -0.022 A 
HETATM   19  C20 UNL     1      27.447   0.233  54.834  1.00  0.00     0.068 A 
ENDBRANCH  13  15
ENDBRANCH   7   9
ENDBRANCH   5   7
BRANCH   1  20
HETATM   20  N1  UNL     1      25.310   4.894  50.410  1.00  0.00    -0.323 N 
HETATM   21  C6  UNL     1      25.561   5.439  49.133  1.00  0.00     0.256 C 
HETATM   22  O1  UNL     1      24.543   5.585  48.389  1.00  0.00    -0.267 OA
HETATM   23  H6  UNL     1      26.238   4.824  50.929  1.00  0.00     0.169 HD
BRANCH  21  24
HETATM   24  C5  UNL     1      26.855   5.839  48.606  1.00  0.00     0.032 A 
HETATM   25  C4  UNL     1      28.001   5.076  48.613  1.00  0.00     0.017 A 
HETATM   26  C3  UNL     1      29.215   5.485  48.103  1.00  0.00     0.007 A 
HETATM   27  C2  UNL     1      29.329   6.733  47.543  1.00  0.00    -0.062 A 
HETATM   28  C1  UNL     1      30.656   7.117  47.013  1.00  0.00     0.048 C 
HETATM   29  C23 UNL     1      28.204   7.530  47.517  1.00  0.00     0.007 A 
HETATM   30  C22 UNL     1      27.010   7.083  48.037  1.00  0.00     0.017 A 
ENDBRANCH  21  24
ENDBRANCH   1  20
TORSDOF 5
ENDMDL
MODEL 4
REMARK VINA RESULT:      -9.0      2.237      7.276
REMARK  5 active torsions:
REMARK  status: ('A' for Active; 'I' for Inactive)
REMARK    1  A    between atoms: C5_5  and  C6_6 
REMARK       I    between atoms: C6_6  and  N1_8 
REMARK    2  A    between atoms: N1_8  and  C7_9 
REMARK    3  A    between atoms: C11_13  and  N2_14 
REMARK    4  A    between atoms: N2_14  and  C12_15 
REMARK    5  A    between atoms: C15_19  and  C16_20 
ROOT
HETATM    1  C7  UNL     1      23.188   2.746  52.431  1.00  0.00     0.037 A 
HETATM    2  C8  UNL     1      21.980   2.081  52.390  1.00  0.00     0.029 A 
HETATM    3  C9  UNL     1      20.808   2.703  52.104  1.00  0.00     0.004 A 
HETATM    4  C10 UNL     1      20.826   4.055  51.844  1.00  0.00     0.030 A 
HETATM    5  C11 UNL     1      21.984   4.799  51.861  1.00  0.00     0.051 A 
HETATM    6  C21 UNL     1      23.120   4.081  52.161  1.00  0.00     0.059 A 
ENDROOT
BRANCH   5   7
HETATM    7  N2  UNL     1      22.072   6.182  51.605  1.00  0.00    -0.188 N 
HETATM    8  H10 UNL     1      21.462   6.824  52.171  1.00  0.00     0.184 HD
BRANCH   7   9
HETATM    9  C12 UNL     1      22.898   6.827  50.657  1.00  0.00     0.727 A 
HETATM   10  N3  UNL     1      22.495   8.003  50.090  1.00  0.00    -0.075 NA
HETATM   11  C13 UNL     1      23.213   8.677  49.188  1.00  0.00     0.139 A 
HETATM   12  C14 UNL     1      24.426   8.208  48.774  1.00  0.00     0.052 A 
HETATM   13  C15 UNL     1      24.867   7.027  49.322  1.00  0.00     0.084 A 
HETATM   14  N4  UNL     1      24.090   6.417  50.215  1.00  0.00    -0.062 NA
BRANCH  13  15
HETATM   15  C16 UNL     1      26.151   6.454  48.935  1.00  0.00    -0.025 A 
HETATM   16  C17 UNL     1      26.453   5.171  49.030  1.00  0.00     0.009 A 
HETATM   17  C18 UNL     1      27.832   4.970  48.547  1.00  0.00    -0.003 A 
HETATM   18  C19 UNL     1      28.315   6.140  48.178  1.00  0.00    -0.022 A 
HETATM   19  C20 UNL     1      27.302   7.212  48.383  1.00  0.00     0.068 A 
ENDBRANCH  13  15
ENDBRANCH   7   9
ENDBRANCH   5   7
BRANCH   1  20
HETATM   20  N1  UNL     1      24.327   1.993  52.737  1.00  0.00    -0.323 N 
HETATM   21  C6  UNL     1      25.568   1.836  52.084  1.00  0.00     0.256 C 
HETATM   22  O1  UNL     1      25.709   2.493  51.008  1.00  0.00    -0.267 OA
HETATM   23  H6  UNL     1      24.337   1.396  53.619  1.00  0.00     0.169 HD
BRANCH  21  24
HETATM   24  C5  UNL     1      26.676   1.006  52.528  1.00  0.00     0.032 A 
HETATM   25  C4  UNL     1      26.720  -0.370  52.488  1.00  0.00     0.017 A 
HETATM   26  C3  UNL     1      27.788  -1.129  52.917  1.00  0.00     0.007 A 
HETATM   27  C2  UNL     1      28.902  -0.507  53.425  1.00  0.00    -0.062 A 
HETATM   28  C1  UNL     1      30.016  -1.374  53.869  1.00  0.00     0.048 C 
HETATM   29  C23 UNL     1      28.897   0.870  53.482  1.00  0.00     0.007 A 
HETATM   30  C22 UNL     1      27.810   1.592  53.044  1.00  0.00     0.017 A 
ENDBRANCH  21  24
ENDBRANCH   1  20
TORSDOF 5
ENDMDL
MODEL 5
REMARK VINA RESULT:      -8.9      2.910      9.662
REMARK  5 active torsions:
REMARK  status: ('A' for Active; 'I' for Inactive)
REMARK    1  A    between atoms: C5_5  and  C6_6 
REMARK       I    between atoms: C6_6  and  N1_8 
REMARK    2  A    between atoms: N1_8  and  C7_9 
REMARK    3  A    between atoms: C11_13  and  N2_14 
REMARK    4  A    between atoms: N2_14  and  C12_15 
REMARK    5  A    between atoms: C15_19  and  C16_20 
ROOT
HETATM    1  C7  UNL     1      25.793   4.389  49.822  1.00  0.00     0.037 A 
HETATM    2  C8  UNL     1      25.084   5.532  49.514  1.00  0.00     0.029 A 
HETATM    3  C9  UNL     1      25.602   6.540  48.768  1.00  0.00     0.004 A 
HETATM    4  C10 UNL     1      26.890   6.416  48.298  1.00  0.00     0.030 A 
HETATM    5  C11 UNL     1      27.671   5.313  48.554  1.00  0.00     0.051 A 
HETATM    6  C21 UNL     1      27.059   4.345  49.319  1.00  0.00     0.059 A 
ENDROOT
BRANCH   5   7
HETATM    7  N2  UNL     1      28.994   5.124  48.104  1.00  0.00    -0.188 N 
HETATM    8  H10 UNL     1      29.177   4.320  47.452  1.00  0.00     0.184 HD
BRANCH   7   9
HETATM    9  C12 UNL     1      30.129   5.898  48.431  1.00  0.00     0.727 A 
HETATM   10  N3  UNL     1      31.261   5.288  48.894  1.00  0.00    -0.075 NA
HETATM   11  C13 UNL     1      32.376   5.943  49.225  1.00  0.00     0.139 A 
HETATM   12  C14 UNL     1      32.443   7.302  49.113  1.00  0.00     0.052 A 
HETATM   13  C15 UNL     1      31.324   7.953  48.651  1.00  0.00     0.084 A 
HETATM   14  N4  UNL     1      30.252   7.225  48.343  1.00  0.00    -0.062 NA
BRANCH  13  15
HETATM   15  C16 UNL     1      31.308   9.404  48.503  1.00  0.00    -0.025 A 
HETATM   16  C17 UNL     1      32.016  10.067  47.605  1.00  0.00     0.009 A 
HETATM   17  C18 UNL     1      31.743  11.509  47.756  1.00  0.00    -0.003 A 
HETATM   18  C19 UNL     1      30.879  11.666  48.741  1.00  0.00    -0.022 A 
HETATM   19  C20 UNL     1      30.508  10.347  49.324  1.00  0.00     0.068 A 
ENDBRANCH  13  15
ENDBRANCH   7   9
ENDBRANCH   5   7
BRANCH   1  20
HETATM   20  N1  UNL     1      25.148   3.421  50.599  1.00  0.00    -0.323 N 
HETATM   21  C6  UNL     1      25.631   2.438  51.490  1.00  0.00     0.256 C 
HETATM   22  O1  UNL     1      26.891   2.401  51.635  1.00  0.00    -0.267 OA
HETATM   23  H6  UNL     1      24.086   3.348  50.568  1.00  0.00     0.169 HD
BRANCH  21  24
HETATM   24  C5  UNL     1      24.829   1.487  52.240  1.00  0.00     0.032 A 
HETATM   25  C4  UNL     1      25.304   0.377  52.905  1.00  0.00     0.017 A 
HETATM   26  C3  UNL     1      24.515  -0.507  53.610  1.00  0.00     0.007 A 
HETATM   27  C2  UNL     1      23.159  -0.303  53.676  1.00  0.00    -0.062 A 
HETATM   28  C1  UNL     1      22.365  -1.285  54.446  1.00  0.00     0.048 C 
HETATM   29  C23 UNL     1      22.644   0.797  53.022  1.00  0.00     0.007 A 
HETATM   30  C22 UNL     1      23.466   1.656  52.329  1.00  0.00     0.017 A 
ENDBRANCH  21  24
ENDBRANCH   1  20
TORSDOF 5
ENDMDL
MODEL 6
REMARK VINA RESULT:      -8.9      2.751      4.430
REMARK  5 active torsions:
REMARK  status: ('A' for Active; 'I' for Inactive)
REMARK    1  A    between atoms: C5_5  and  C6_6 
REMARK       I    between atoms: C6_6  and  N1_8 
REMARK    2  A    between atoms: N1_8  and  C7_9 
REMARK    3  A    between atoms: C11_13  and  N2_14 
REMARK    4  A    between atoms: N2_14  and  C12_15 
REMARK    5  A    between atoms: C15_19  and  C16_20 
ROOT
HETATM    1  C7  UNL     1      27.348   5.953  48.796  1.00  0.00     0.037 A 
HETATM    2  C8  UNL     1      26.322   6.783  48.394  1.00  0.00     0.029 A 
HETATM    3  C9  UNL     1      25.016   6.419  48.455  1.00  0.00     0.004 A 
HETATM    4  C10 UNL     1      24.702   5.169  48.938  1.00  0.00     0.030 A 
HETATM    5  C11 UNL     1      25.659   4.275  49.362  1.00  0.00     0.051 A 
HETATM    6  C21 UNL     1      26.953   4.734  49.262  1.00  0.00     0.059 A 
ENDROOT
BRANCH   5   7
HETATM    7  N2  UNL     1      25.406   2.983  49.866  1.00  0.00    -0.188 N 
HETATM    8  H10 UNL     1      24.996   2.274  49.208  1.00  0.00     0.184 HD
BRANCH   7   9
HETATM    9  C12 UNL     1      25.640   2.514  51.178  1.00  0.00     0.727 A 
HETATM   10  N3  UNL     1      24.844   2.935  52.205  1.00  0.00    -0.075 NA
HETATM   11  C13 UNL     1      24.996   2.542  53.472  1.00  0.00     0.139 A 
HETATM   12  C14 UNL     1      25.988   1.669  53.815  1.00  0.00     0.052 A 
HETATM   13  C15 UNL     1      26.810   1.221  52.808  1.00  0.00     0.084 A 
HETATM   14  N4  UNL     1      26.592   1.663  51.571  1.00  0.00    -0.062 NA
BRANCH  13  15
HETATM   15  C16 UNL     1      27.896   0.287  53.087  1.00  0.00    -0.025 A 
HETATM   16  C17 UNL     1      27.797  -1.025  52.970  1.00  0.00     0.009 A 
HETATM   17  C18 UNL     1      29.090  -1.634  53.334  1.00  0.00    -0.003 A 
HETATM   18  C19 UNL     1      29.925  -0.666  53.659  1.00  0.00    -0.022 A 
HETATM   19  C20 UNL     1      29.260   0.660  53.538  1.00  0.00     0.068 A 
ENDBRANCH  13  15
ENDBRANCH   7   9
ENDBRANCH   5   7
BRANCH   1  20
HETATM   20  N1  UNL     1      28.654   6.443  48.685  1.00  0.00    -0.323 N 
HETATM   21  C6  UNL     1      29.859   5.851  48.252  1.00  0.00     0.256 C 
HETATM   22  O1  UNL     1      29.775   4.639  47.886  1.00  0.00    -0.267 OA
HETATM   23  H6  UNL     1      28.859   7.451  48.961  1.00  0.00     0.169 HD
BRANCH  21  24
HETATM   24  C5  UNL     1      31.161   6.494  48.189  1.00  0.00     0.032 A 
HETATM   25  C4  UNL     1      31.612   7.489  49.029  1.00  0.00     0.017 A 
HETATM   26  C3  UNL     1      32.855   8.079  48.943  1.00  0.00     0.007 A 
HETATM   27  C2  UNL     1      33.732   7.675  47.967  1.00  0.00    -0.062 A 
HETATM   28  C1  UNL     1      35.050   8.345  47.924  1.00  0.00     0.048 C 
HETATM   29  C23 UNL     1      33.318   6.681  47.105  1.00  0.00     0.007 A 
HETATM   30  C22 UNL     1      32.068   6.117  47.224  1.00  0.00     0.017 A 
ENDBRANCH  21  24
ENDBRANCH   1  20
TORSDOF 5
ENDMDL
MODEL 7
REMARK VINA RESULT:      -8.9      3.305      5.638
REMARK  5 active torsions:
REMARK  status: ('A' for Active; 'I' for Inactive)
REMARK    1  A    between atoms: C5_5  and  C6_6 
REMARK       I    between atoms: C6_6  and  N1_8 
REMARK    2  A    between atoms: N1_8  and  C7_9 
REMARK    3  A    between atoms: C11_13  and  N2_14 
REMARK    4  A    between atoms: N2_14  and  C12_15 
REMARK    5  A    between atoms: C15_19  and  C16_20 
ROOT
HETATM    1  C7  UNL     1      28.308   6.257  48.300  1.00  0.00     0.037 A 
HETATM    2  C8  UNL     1      28.215   7.600  48.603  1.00  0.00     0.029 A 
HETATM    3  C9  UNL     1      27.105   8.155  49.150  1.00  0.00     0.004 A 
HETATM    4  C10 UNL     1      26.025   7.344  49.415  1.00  0.00     0.030 A 
HETATM    5  C11 UNL     1      26.027   5.994  49.147  1.00  0.00     0.051 A 
HETATM    6  C21 UNL     1      27.196   5.524  48.593  1.00  0.00     0.059 A 
ENDROOT
BRANCH   5   7
HETATM    7  N2  UNL     1      24.957   5.109  49.392  1.00  0.00    -0.188 N 
HETATM    8  H10 UNL     1      24.286   4.924  48.605  1.00  0.00     0.184 HD
BRANCH   7   9
HETATM    9  C12 UNL     1      24.670   4.425  50.594  1.00  0.00     0.727 A 
HETATM   10  N3  UNL     1      23.855   5.000  51.528  1.00  0.00    -0.075 NA
HETATM   11  C13 UNL     1      23.532   4.423  52.688  1.00  0.00     0.139 A 
HETATM   12  C14 UNL     1      24.017   3.188  53.010  1.00  0.00     0.052 A 
HETATM   13  C15 UNL     1      24.841   2.576  52.095  1.00  0.00     0.084 A 
HETATM   14  N4  UNL     1      25.114   3.220  50.962  1.00  0.00    -0.062 NA
BRANCH  13  15
HETATM   15  C16 UNL     1      25.403   1.256  52.359  1.00  0.00    -0.025 A 
HETATM   16  C17 UNL     1      24.825   0.338  53.113  1.00  0.00     0.009 A 
HETATM   17  C18 UNL     1      25.685  -0.860  53.146  1.00  0.00    -0.003 A 
HETATM   18  C19 UNL     1      26.753  -0.623  52.409  1.00  0.00    -0.022 A 
HETATM   19  C20 UNL     1      26.693   0.746  51.828  1.00  0.00     0.068 A 
ENDBRANCH  13  15
ENDBRANCH   7   9
ENDBRANCH   5   7
BRANCH   1  20
HETATM   20  N1  UNL     1      29.507   5.805  47.739  1.00  0.00    -0.323 N 
HETATM   21  C6  UNL     1      30.765   5.500  48.300  1.00  0.00     0.256 C 
HETATM   22  O1  UNL     1      30.858   5.657  49.555  1.00  0.00    -0.267 OA
HETATM   23  H6  UNL     1      29.560   5.633  46.689  1.00  0.00     0.169 HD
BRANCH  21  24
HETATM   24  C5  UNL     1      31.938   5.032  47.580  1.00  0.00     0.032 A 
HETATM   25  C4  UNL     1      33.165   5.659  47.541  1.00  0.00     0.017 A 
HETATM   26  C3  UNL     1      34.260   5.187  46.849  1.00  0.00     0.007 A 
HETATM   27  C2  UNL     1      34.161   4.017  46.137  1.00  0.00    -0.062 A 
HETATM   28  C1  UNL     1      35.369   3.562  45.415  1.00  0.00     0.048 C 
HETATM   29  C23 UNL     1      32.949   3.360  46.151  1.00  0.00     0.007 A 
HETATM   30  C22 UNL     1      31.879   3.864  46.855  1.00  0.00     0.017 A 
ENDBRANCH  21  24
ENDBRANCH   1  20
TORSDOF 5
ENDMDL
MODEL 8
REMARK VINA RESULT:      -8.8      3.275      5.614
REMARK  5 active torsions:
REMARK  status: ('A' for Active; 'I' for Inactive)
REMARK    1  A    between atoms: C5_5  and  C6_6 
REMARK       I    between atoms: C6_6  and  N1_8 
REMARK    2  A    between atoms: N1_8  and  C7_9 
REMARK    3  A    between atoms: C11_13  and  N2_14 
REMARK    4  A    between atoms: N2_14  and  C12_15 
REMARK    5  A    between atoms: C15_19  and  C16_20 
ROOT
HETATM    1  C7  UNL     1      28.120   5.581  48.406  1.00  0.00     0.037 A 
HETATM    2  C8  UNL     1      27.822   6.920  48.554  1.00  0.00     0.029 A 
HETATM    3  C9  UNL     1      26.683   7.359  49.147  1.00  0.00     0.004 A 
HETATM    4  C10 UNL     1      25.787   6.428  49.621  1.00  0.00     0.030 A 
HETATM    5  C11 UNL     1      26.000   5.072  49.518  1.00  0.00     0.051 A 
HETATM    6  C21 UNL     1      27.181   4.725  48.902  1.00  0.00     0.059 A 
ENDROOT
BRANCH   5   7
HETATM    7  N2  UNL     1      25.125   4.068  49.981  1.00  0.00    -0.188 N 
HETATM    8  H10 UNL     1      24.131   4.091  49.640  1.00  0.00     0.184 HD
BRANCH   7   9
HETATM    9  C12 UNL     1      25.427   3.011  50.868  1.00  0.00     0.727 A 
HETATM   10  N3  UNL     1      26.727   2.721  51.167  1.00  0.00    -0.075 NA
HETATM   11  C13 UNL     1      27.100   1.742  51.994  1.00  0.00     0.139 A 
HETATM   12  C14 UNL     1      26.165   0.954  52.603  1.00  0.00     0.052 A 
HETATM   13  C15 UNL     1      24.844   1.214  52.328  1.00  0.00     0.084 A 
HETATM   14  N4  UNL     1      24.558   2.210  51.491  1.00  0.00    -0.062 NA
BRANCH  13  15
HETATM   15  C16 UNL     1      23.781   0.421  52.935  1.00  0.00    -0.025 A 
HETATM   16  C17 UNL     1      22.509   0.491  52.587  1.00  0.00     0.009 A 
HETATM   17  C18 UNL     1      21.737  -0.454  53.416  1.00  0.00    -0.003 A 
HETATM   18  C19 UNL     1      22.571  -1.062  54.237  1.00  0.00    -0.022 A 
HETATM   19  C20 UNL     1      23.962  -0.574  54.023  1.00  0.00     0.068 A 
ENDBRANCH  13  15
ENDBRANCH   7   9
ENDBRANCH   5   7
BRANCH   1  20
HETATM   20  N1  UNL     1      29.327   5.256  47.778  1.00  0.00    -0.323 N 
HETATM   21  C6  UNL     1      30.664   5.251  48.229  1.00  0.00     0.256 C 
HETATM   22  O1  UNL     1      30.837   5.605  49.435  1.00  0.00    -0.267 OA
HETATM   23  H6  UNL     1      29.318   4.941  46.760  1.00  0.00     0.169 HD
BRANCH  21  24
HETATM   24  C5  UNL     1      31.834   4.882  47.450  1.00  0.00     0.032 A 
HETATM   25  C4  UNL     1      32.136   3.617  46.996  1.00  0.00     0.017 A 
HETATM   26  C3  UNL     1      33.256   3.300  46.257  1.00  0.00     0.007 A 
HETATM   27  C2  UNL     1      34.157   4.285  45.933  1.00  0.00    -0.062 A 
HETATM   28  C1  UNL     1      35.340   3.884  45.140  1.00  0.00     0.048 C 
HETATM   29  C23 UNL     1      33.891   5.565  46.371  1.00  0.00     0.007 A 
HETATM   30  C22 UNL     1      32.761   5.841  47.106  1.00  0.00     0.017 A 
ENDBRANCH  21  24
ENDBRANCH   1  20
TORSDOF 5
ENDMDL
MODEL 9
REMARK VINA RESULT:      -8.6      3.588      8.912
REMARK  5 active torsions:
REMARK  status: ('A' for Active; 'I' for Inactive)
REMARK    1  A    between atoms: C5_5  and  C6_6 
REMARK       I    between atoms: C6_6  and  N1_8 
REMARK    2  A    between atoms: N1_8  and  C7_9 
REMARK    3  A    between atoms: C11_13  and  N2_14 
REMARK    4  A    between atoms: N2_14  and  C12_15 
REMARK    5  A    between atoms: C15_19  and  C16_20 
ROOT
HETATM    1  C7  UNL     1      26.364   5.583  49.241  1.00  0.00     0.037 A 
HETATM    2  C8  UNL     1      25.229   6.298  48.919  1.00  0.00     0.029 A 
HETATM    3  C9  UNL     1      25.239   7.344  48.055  1.00  0.00     0.004 A 
HETATM    4  C10 UNL     1      26.434   7.708  47.476  1.00  0.00     0.030 A 
HETATM    5  C11 UNL     1      27.616   7.053  47.738  1.00  0.00     0.051 A 
HETATM    6  C21 UNL     1      27.504   6.007  48.625  1.00  0.00     0.059 A 
ENDROOT
BRANCH   5   7
HETATM    7  N2  UNL     1      28.870   7.374  47.180  1.00  0.00    -0.188 N 
HETATM    8  H10 UNL     1      28.882   7.827  46.232  1.00  0.00     0.184 HD
BRANCH   7   9
HETATM    9  C12 UNL     1      30.143   7.154  47.751  1.00  0.00     0.727 A 
HETATM   10  N3  UNL     1      30.667   8.067  48.623  1.00  0.00    -0.075 NA
HETATM   11  C13 UNL     1      31.860   7.937  49.207  1.00  0.00     0.139 A 
HETATM   12  C14 UNL     1      32.643   6.848  48.953  1.00  0.00     0.052 A 
HETATM   13  C15 UNL     1      32.152   5.906  48.081  1.00  0.00     0.084 A 
HETATM   14  N4  UNL     1      30.952   6.112  47.541  1.00  0.00    -0.062 NA
BRANCH  13  15
HETATM   15  C16 UNL     1      32.924   4.712  47.754  1.00  0.00    -0.025 A 
HETATM   16  C17 UNL     1      34.208   4.561  48.022  1.00  0.00     0.009 A 
HETATM   17  C18 UNL     1      34.639   3.232  47.547  1.00  0.00    -0.003 A 
HETATM   18  C19 UNL     1      33.597   2.628  47.008  1.00  0.00    -0.022 A 
HETATM   19  C20 UNL     1      32.393   3.500  47.080  1.00  0.00     0.068 A 
ENDBRANCH  13  15
ENDBRANCH   7   9
ENDBRANCH   5   7
BRANCH   1  20
HETATM   20  N1  UNL     1      26.224   4.524  50.145  1.00  0.00    -0.323 N 
HETATM   21  C6  UNL     1      25.409   3.372  50.142  1.00  0.00     0.256 C 
HETATM   22  O1  UNL     1      24.644   3.243  49.137  1.00  0.00    -0.267 OA
HETATM   23  H6  UNL     1      26.812   4.513  51.033  1.00  0.00     0.169 HD
BRANCH  21  24
HETATM   24  C5  UNL     1      25.370   2.342  51.166  1.00  0.00     0.032 A 
HETATM   25  C4  UNL     1      26.438   1.579  51.586  1.00  0.00     0.017 A 
HETATM   26  C3  UNL     1      26.368   0.609  52.562  1.00  0.00     0.007 A 
HETATM   27  C2  UNL     1      25.169   0.355  53.182  1.00  0.00    -0.062 A 
HETATM   28  C1  UNL     1      25.156  -0.698  54.221  1.00  0.00     0.048 C 
HETATM   29  C23 UNL     1      24.075   1.096  52.790  1.00  0.00     0.007 A 
HETATM   30  C22 UNL     1      24.187   2.057  51.810  1.00  0.00     0.017 A 
ENDBRANCH  21  24
ENDBRANCH   1  20
TORSDOF 5
ENDMDL
