MODEL 1
REMARK VINA RESULT:      -7.9      0.000      0.000
REMARK  4 active torsions:
REMARK  status: ('A' for Active; 'I' for Inactive)
REMARK    1  A    between atoms: O1_2  and  C2_3 
REMARK    2  A    between atoms: C6_9  and  O2_10 
REMARK    3  A    between atoms: O2_10  and  C7_11 
REMARK    4  A    between atoms: C11_16  and  N3_17 
REMARK       I    between atoms: N3_17  and  C12_18 
ROOT
HETATM    1  O2  UNL     1      25.935   3.122  50.373  1.00  0.00    -0.303 OA
ENDROOT
BRANCH   1   2
HETATM    2  C6  UNL     1      26.315   2.399  51.468  1.00  0.00     0.182 A 
HETATM    3  N2  UNL     1      27.506   2.347  52.075  1.00  0.00    -0.217 NA
HETATM    4  C5  UNL     1      27.702   1.566  53.158  1.00  0.00     0.236 A 
HETATM    5  N1  UNL     1      26.732   0.804  53.688  1.00  0.00    -0.241 NA
HETATM    6  C4  UNL     1      25.526   0.826  53.113  1.00  0.00     0.075 A 
HETATM    7  C3  UNL     1      24.540   0.038  53.668  1.00  0.00     0.070 A 
HETATM    8  C15 UNL     1      25.288   1.623  51.990  1.00  0.00     0.047 A 
HETATM    9  C2  UNL     1      23.272   0.012  53.126  1.00  0.00     0.076 A 
HETATM   10  C17 UNL     1      23.014   0.801  52.004  1.00  0.00    -0.028 A 
HETATM   11  C16 UNL     1      23.998   1.580  51.459  1.00  0.00     0.027 A 
HETATM   12  C18 UNL     1      21.675   0.857  51.324  1.00  0.00     0.051 C 
BRANCH   9  13
HETATM   13  O1  UNL     1      22.170  -0.711  53.547  1.00  0.00    -0.355 OA
HETATM   14  C1  UNL     1      21.498  -0.556  54.761  1.00  0.00     0.210 C 
ENDBRANCH   9  13
ENDBRANCH   1   2
BRANCH   1  15
HETATM   15  C7  UNL     1      26.751   3.773  49.482  1.00  0.00     0.155 C 
HETATM   16  C8  UNL     1      26.599   5.067  49.297  1.00  0.00    -0.011 A 
HETATM   17  C9  UNL     1      25.583   5.806  50.021  1.00  0.00     0.014 A 
HETATM   18  C14 UNL     1      27.442   5.790  48.362  1.00  0.00     0.043 A 
HETATM   19  C10 UNL     1      25.272   7.085  49.980  1.00  0.00     0.011 A 
HETATM   20  P1  UNL     1      26.233   8.156  48.854  1.00  0.00    -0.053 P 
HETATM   21  C11 UNL     1      27.452   7.066  48.036  1.00  0.00     0.040 A 
HETATM   22  H9  UNL     1      26.836   9.270  49.543  1.00  0.00     0.068 HD
BRANCH  21  23
HETATM   23  N3  UNL     1      28.354   7.605  47.095  1.00  0.00    -0.327 N 
HETATM   24  C12 UNL     1      29.575   8.136  47.642  1.00  0.00     0.218 C 
HETATM   25  C13 UNL     1      30.545   8.713  46.651  1.00  0.00     0.117 C 
HETATM   26  O3  UNL     1      29.864   8.142  48.875  1.00  0.00    -0.274 OA
HETATM   27  H10 UNL     1      28.188   7.638  46.063  1.00  0.00     0.169 HD
ENDBRANCH  21  23
ENDBRANCH   1  15
TORSDOF 4
ENDMDL
MODEL 2
REMARK VINA RESULT:      -7.8      4.274      5.755
REMARK  4 active torsions:
REMARK  status: ('A' for Active; 'I' for Inactive)
REMARK    1  A    between atoms: O1_2  and  C2_3 
REMARK    2  A    between atoms: C6_9  and  O2_10 
REMARK    3  A    between atoms: O2_10  and  C7_11 
REMARK    4  A    between atoms: C11_16  and  N3_17 
REMARK       I    between atoms: N3_17  and  C12_18 
ROOT
HETATM    1  O2  UNL     1      22.008   1.389  51.879  1.00  0.00    -0.303 OA
ENDROOT
BRANCH   1   2
HETATM    2  C6  UNL     1      22.157   0.561  52.956  1.00  0.00     0.182 A 
HETATM    3  N2  UNL     1      21.220   0.033  53.751  1.00  0.00    -0.217 NA
HETATM    4  C5  UNL     1      21.555  -0.774  54.780  1.00  0.00     0.236 A 
HETATM    5  N1  UNL     1      22.827  -1.092  55.068  1.00  0.00    -0.241 NA
HETATM    6  C4  UNL     1      23.794  -0.585  54.299  1.00  0.00     0.075 A 
HETATM    7  C3  UNL     1      25.096  -0.920  54.608  1.00  0.00     0.070 A 
HETATM    8  C15 UNL     1      23.484   0.253  53.225  1.00  0.00     0.047 A 
HETATM    9  C2  UNL     1      26.145  -0.433  53.856  1.00  0.00     0.076 A 
HETATM   10  C17 UNL     1      25.856   0.405  52.779  1.00  0.00    -0.028 A 
HETATM   11  C16 UNL     1      24.562   0.734  52.479  1.00  0.00     0.027 A 
HETATM   12  C18 UNL     1      26.910   0.999  51.888  1.00  0.00     0.051 C 
BRANCH   9  13
HETATM   13  O1  UNL     1      27.500  -0.662  54.018  1.00  0.00    -0.355 OA
HETATM   14  C1  UNL     1      28.353   0.026  54.882  1.00  0.00     0.210 C 
ENDBRANCH   9  13
ENDBRANCH   1   2
BRANCH   1  15
HETATM   15  C7  UNL     1      21.442   2.640  51.864  1.00  0.00     0.155 C 
HETATM   16  C8  UNL     1      22.169   3.670  51.488  1.00  0.00    -0.011 A 
HETATM   17  C9  UNL     1      23.554   3.497  51.093  1.00  0.00     0.014 A 
HETATM   18  C14 UNL     1      21.607   5.008  51.459  1.00  0.00     0.043 A 
HETATM   19  C10 UNL     1      24.439   4.385  50.690  1.00  0.00     0.011 A 
HETATM   20  P1  UNL     1      23.907   6.130  50.591  1.00  0.00    -0.053 P 
HETATM   21  C11 UNL     1      22.156   6.156  51.119  1.00  0.00     0.040 A 
HETATM   22  H9  UNL     1      24.114   6.690  49.279  1.00  0.00     0.068 HD
BRANCH  21  23
HETATM   23  N3  UNL     1      21.452   7.378  51.151  1.00  0.00    -0.327 N 
HETATM   24  C12 UNL     1      20.735   7.710  49.948  1.00  0.00     0.218 C 
HETATM   25  C13 UNL     1      19.980   9.008  49.967  1.00  0.00     0.117 C 
HETATM   26  O3  UNL     1      20.709   6.988  48.907  1.00  0.00    -0.274 OA
HETATM   27  H10 UNL     1      21.424   8.027  51.969  1.00  0.00     0.169 HD
ENDBRANCH  21  23
ENDBRANCH   1  15
TORSDOF 4
ENDMDL
MODEL 3
REMARK VINA RESULT:      -7.8      2.754      3.816
REMARK  4 active torsions:
REMARK  status: ('A' for Active; 'I' for Inactive)
REMARK    1  A    between atoms: O1_2  and  C2_3 
REMARK    2  A    between atoms: C6_9  and  O2_10 
REMARK    3  A    between atoms: O2_10  and  C7_11 
REMARK    4  A    between atoms: C11_16  and  N3_17 
REMARK       I    between atoms: N3_17  and  C12_18 
ROOT
HETATM    1  O2  UNL     1      24.539   0.688  51.806  1.00  0.00    -0.303 OA
ENDROOT
BRANCH   1   2
HETATM    2  C6  UNL     1      24.262   0.061  52.987  1.00  0.00     0.182 A 
HETATM    3  N2  UNL     1      25.102  -0.332  53.951  1.00  0.00    -0.217 NA
HETATM    4  C5  UNL     1      24.645  -0.945  55.063  1.00  0.00     0.236 A 
HETATM    5  N1  UNL     1      23.343  -1.198  55.271  1.00  0.00    -0.241 NA
HETATM    6  C4  UNL     1      22.470  -0.823  54.331  1.00  0.00     0.075 A 
HETATM    7  C3  UNL     1      21.136  -1.089  54.558  1.00  0.00     0.070 A 
HETATM    8  C15 UNL     1      22.907  -0.185  53.168  1.00  0.00     0.047 A 
HETATM    9  C2  UNL     1      20.180  -0.729  53.631  1.00  0.00     0.076 A 
HETATM   10  C17 UNL     1      20.596  -0.091  52.462  1.00  0.00    -0.028 A 
HETATM   11  C16 UNL     1      21.922   0.169  52.244  1.00  0.00     0.027 A 
HETATM   12  C18 UNL     1      19.651   0.348  51.380  1.00  0.00     0.051 C 
BRANCH   9  13
HETATM   13  O1  UNL     1      18.810  -0.915  53.690  1.00  0.00    -0.355 OA
HETATM   14  C1  UNL     1      18.138  -2.131  53.557  1.00  0.00     0.210 C 
ENDBRANCH   9  13
ENDBRANCH   1   2
BRANCH   1  15
HETATM   15  C7  UNL     1      25.265   1.839  51.625  1.00  0.00     0.155 C 
HETATM   16  C8  UNL     1      24.816   2.760  50.799  1.00  0.00    -0.011 A 
HETATM   17  C9  UNL     1      23.569   2.571  50.083  1.00  0.00     0.014 A 
HETATM   18  C14 UNL     1      25.557   3.989  50.581  1.00  0.00     0.043 A 
HETATM   19  C10 UNL     1      22.956   3.359  49.224  1.00  0.00     0.011 A 
HETATM   20  P1  UNL     1      23.744   4.958  48.826  1.00  0.00    -0.053 P 
HETATM   21  C11 UNL     1      25.285   5.022  49.808  1.00  0.00     0.040 A 
HETATM   22  H9  UNL     1      22.866   6.075  49.070  1.00  0.00     0.068 HD
BRANCH  21  23
HETATM   23  N3  UNL     1      26.128   6.148  49.717  1.00  0.00    -0.327 N 
HETATM   24  C12 UNL     1      25.644   7.338  50.366  1.00  0.00     0.218 C 
HETATM   25  C13 UNL     1      26.532   8.546  50.278  1.00  0.00     0.117 C 
HETATM   26  O3  UNL     1      24.542   7.417  50.987  1.00  0.00    -0.274 OA
HETATM   27  H10 UNL     1      27.050   6.164  49.224  1.00  0.00     0.169 HD
ENDBRANCH  21  23
ENDBRANCH   1  15
TORSDOF 4
ENDMDL
MODEL 4
REMARK VINA RESULT:      -7.8      5.028      8.331
REMARK  4 active torsions:
REMARK  status: ('A' for Active; 'I' for Inactive)
REMARK    1  A    between atoms: O1_2  and  C2_3 
REMARK    2  A    between atoms: C6_9  and  O2_10 
REMARK    3  A    between atoms: O2_10  and  C7_11 
REMARK    4  A    between atoms: C11_16  and  N3_17 
REMARK       I    between atoms: N3_17  and  C12_18 
ROOT
HETATM    1  O2  UNL     1      22.359  -0.184  52.700  1.00  0.00    -0.303 OA
ENDROOT
BRANCH   1   2
HETATM    2  C6  UNL     1      23.224  -0.522  53.701  1.00  0.00     0.182 A 
HETATM    3  N2  UNL     1      23.002  -1.257  54.796  1.00  0.00    -0.217 NA
HETATM    4  C5  UNL     1      23.987  -1.490  55.689  1.00  0.00     0.236 A 
HETATM    5  N1  UNL     1      25.231  -1.008  55.540  1.00  0.00    -0.241 NA
HETATM    6  C4  UNL     1      25.495  -0.267  54.460  1.00  0.00     0.075 A 
HETATM    7  C3  UNL     1      26.777   0.222  54.320  1.00  0.00     0.070 A 
HETATM    8  C15 UNL     1      24.500  -0.006  53.514  1.00  0.00     0.047 A 
HETATM    9  C2  UNL     1      27.121   0.993  53.229  1.00  0.00     0.076 A 
HETATM   10  C17 UNL     1      26.141   1.265  52.274  1.00  0.00    -0.028 A 
HETATM   11  C16 UNL     1      24.871   0.777  52.420  1.00  0.00     0.027 A 
HETATM   12  C18 UNL     1      26.392   2.092  51.045  1.00  0.00     0.051 C 
BRANCH   9  13
HETATM   13  O1  UNL     1      28.345   1.562  52.928  1.00  0.00    -0.355 OA
HETATM   14  C1  UNL     1      29.045   2.476  53.718  1.00  0.00     0.210 C 
ENDBRANCH   9  13
ENDBRANCH   1   2
BRANCH   1  15
HETATM   15  C7  UNL     1      21.018   0.088  52.814  1.00  0.00     0.155 C 
HETATM   16  C8  UNL     1      20.391   0.665  51.811  1.00  0.00    -0.011 A 
HETATM   17  C9  UNL     1      21.099   1.015  50.595  1.00  0.00     0.014 A 
HETATM   18  C14 UNL     1      18.974   0.969  51.895  1.00  0.00     0.043 A 
HETATM   19  C10 UNL     1      20.662   1.589  49.493  1.00  0.00     0.011 A 
HETATM   20  P1  UNL     1      18.895   2.045  49.418  1.00  0.00    -0.053 P 
HETATM   21  C11 UNL     1      18.171   1.535  51.018  1.00  0.00     0.040 A 
HETATM   22  H9  UNL     1      18.229   1.461  48.280  1.00  0.00     0.068 HD
BRANCH  21  23
HETATM   23  N3  UNL     1      16.801   1.757  51.269  1.00  0.00    -0.327 N 
HETATM   24  C12 UNL     1      16.473   3.047  51.817  1.00  0.00     0.218 C 
HETATM   25  C13 UNL     1      15.017   3.297  52.090  1.00  0.00     0.117 C 
HETATM   26  O3  UNL     1      17.321   3.952  52.074  1.00  0.00    -0.274 OA
HETATM   27  H10 UNL     1      16.043   1.062  51.086  1.00  0.00     0.169 HD
ENDBRANCH  21  23
ENDBRANCH   1  15
TORSDOF 4
ENDMDL
MODEL 5
REMARK VINA RESULT:      -7.6      1.761      2.225
REMARK  4 active torsions:
REMARK  status: ('A' for Active; 'I' for Inactive)
REMARK    1  A    between atoms: O1_2  and  C2_3 
REMARK    2  A    between atoms: C6_9  and  O2_10 
REMARK    3  A    between atoms: O2_10  and  C7_11 
REMARK    4  A    between atoms: C11_16  and  N3_17 
REMARK       I    between atoms: N3_17  and  C12_18 
ROOT
HETATM    1  O2  UNL     1      25.525   3.158  50.171  1.00  0.00    -0.303 OA
ENDROOT
BRANCH   1   2
HETATM    2  C6  UNL     1      25.996   2.425  51.223  1.00  0.00     0.182 A 
HETATM    3  N2  UNL     1      27.226   2.393  51.747  1.00  0.00    -0.217 NA
HETATM    4  C5  UNL     1      27.514   1.599  52.799  1.00  0.00     0.236 A 
HETATM    5  N1  UNL     1      26.602   0.802  53.378  1.00  0.00    -0.241 NA
HETATM    6  C4  UNL     1      25.360   0.803  52.886  1.00  0.00     0.075 A 
HETATM    7  C3  UNL     1      24.433  -0.020  53.491  1.00  0.00     0.070 A 
HETATM    8  C15 UNL     1      25.026   1.613  51.798  1.00  0.00     0.047 A 
HETATM    9  C2  UNL     1      23.132  -0.070  53.035  1.00  0.00     0.076 A 
HETATM   10  C17 UNL     1      22.779   0.732  51.949  1.00  0.00    -0.028 A 
HETATM   11  C16 UNL     1      23.704   1.546  51.354  1.00  0.00     0.027 A 
HETATM   12  C18 UNL     1      21.397   0.765  51.362  1.00  0.00     0.051 C 
BRANCH   9  13
HETATM   13  O1  UNL     1      22.080  -0.829  53.515  1.00  0.00    -0.355 OA
HETATM   14  C1  UNL     1      21.889  -1.227  54.839  1.00  0.00     0.210 C 
ENDBRANCH   9  13
ENDBRANCH   1   2
BRANCH   1  15
HETATM   15  C7  UNL     1      25.318   4.514  50.128  1.00  0.00     0.155 C 
HETATM   16  C8  UNL     1      26.202   5.281  49.527  1.00  0.00    -0.011 A 
HETATM   17  C9  UNL     1      27.386   4.710  48.915  1.00  0.00     0.014 A 
HETATM   18  C14 UNL     1      26.018   6.719  49.462  1.00  0.00     0.043 A 
HETATM   19  C10 UNL     1      28.378   5.296  48.276  1.00  0.00     0.011 A 
HETATM   20  P1  UNL     1      28.316   7.112  48.095  1.00  0.00    -0.053 P 
HETATM   21  C11 UNL     1      26.774   7.651  48.917  1.00  0.00     0.040 A 
HETATM   22  H9  UNL     1      28.402   7.526  46.717  1.00  0.00     0.068 HD
BRANCH  21  23
HETATM   23  N3  UNL     1      26.437   9.020  48.947  1.00  0.00    -0.327 N 
HETATM   24  C12 UNL     1      25.673   9.495  47.823  1.00  0.00     0.218 C 
HETATM   25  C13 UNL     1      25.307  10.952  47.843  1.00  0.00     0.117 C 
HETATM   26  O3  UNL     1      25.306   8.772  46.850  1.00  0.00    -0.274 OA
HETATM   27  H10 UNL     1      26.702   9.681  49.712  1.00  0.00     0.169 HD
ENDBRANCH  21  23
ENDBRANCH   1  15
TORSDOF 4
ENDMDL
MODEL 6
REMARK VINA RESULT:      -7.6      4.904      7.534
REMARK  4 active torsions:
REMARK  status: ('A' for Active; 'I' for Inactive)
REMARK    1  A    between atoms: O1_2  and  C2_3 
REMARK    2  A    between atoms: C6_9  and  O2_10 
REMARK    3  A    between atoms: O2_10  and  C7_11 
REMARK    4  A    between atoms: C11_16  and  N3_17 
REMARK       I    between atoms: N3_17  and  C12_18 
ROOT
HETATM    1  O2  UNL     1      21.651   0.392  53.312  1.00  0.00    -0.303 OA
ENDROOT
BRANCH   1   2
HETATM    2  C6  UNL     1      20.446  -0.228  53.140  1.00  0.00     0.182 A 
HETATM    3  N2  UNL     1      19.911  -1.241  53.833  1.00  0.00    -0.217 NA
HETATM    4  C5  UNL     1      18.695  -1.732  53.518  1.00  0.00     0.236 A 
HETATM    5  N1  UNL     1      17.955  -1.248  52.507  1.00  0.00    -0.241 NA
HETATM    6  C4  UNL     1      18.452  -0.236  51.790  1.00  0.00     0.075 A 
HETATM    7  C3  UNL     1      17.682   0.252  50.755  1.00  0.00     0.070 A 
HETATM    8  C15 UNL     1      19.708   0.298  52.088  1.00  0.00     0.047 A 
HETATM    9  C2  UNL     1      18.132   1.295  49.974  1.00  0.00     0.076 A 
HETATM   10  C17 UNL     1      19.384   1.842  50.256  1.00  0.00    -0.028 A 
HETATM   11  C16 UNL     1      20.144   1.353  51.283  1.00  0.00     0.027 A 
HETATM   12  C18 UNL     1      19.983   2.979  49.476  1.00  0.00     0.051 C 
BRANCH   9  13
HETATM   13  O1  UNL     1      17.500   1.906  48.905  1.00  0.00    -0.355 OA
HETATM   14  C1  UNL     1      16.257   2.541  48.938  1.00  0.00     0.210 C 
ENDBRANCH   9  13
ENDBRANCH   1   2
BRANCH   1  15
HETATM   15  C7  UNL     1      22.889  -0.197  53.371  1.00  0.00     0.155 C 
HETATM   16  C8  UNL     1      23.934   0.453  52.902  1.00  0.00    -0.011 A 
HETATM   17  C9  UNL     1      23.788   1.776  52.328  1.00  0.00     0.014 A 
HETATM   18  C14 UNL     1      25.259  -0.137  52.945  1.00  0.00     0.043 A 
HETATM   19  C10 UNL     1      24.693   2.582  51.811  1.00  0.00     0.011 A 
HETATM   20  P1  UNL     1      26.425   2.004  51.781  1.00  0.00    -0.053 P 
HETATM   21  C11 UNL     1      26.417   0.339  52.536  1.00  0.00     0.040 A 
HETATM   22  H9  UNL     1      27.319   2.924  52.440  1.00  0.00     0.068 HD
BRANCH  21  23
HETATM   23  N3  UNL     1      27.624  -0.381  52.658  1.00  0.00    -0.327 N 
HETATM   24  C12 UNL     1      28.414  -0.072  53.821  1.00  0.00     0.218 C 
HETATM   25  C13 UNL     1      29.702  -0.832  53.964  1.00  0.00     0.117 C 
HETATM   26  O3  UNL     1      28.091   0.781  54.700  1.00  0.00    -0.274 OA
HETATM   27  H10 UNL     1      27.960  -1.099  51.977  1.00  0.00     0.169 HD
ENDBRANCH  21  23
ENDBRANCH   1  15
TORSDOF 4
ENDMDL
MODEL 7
REMARK VINA RESULT:      -7.4      4.411      8.421
REMARK  4 active torsions:
REMARK  status: ('A' for Active; 'I' for Inactive)
REMARK    1  A    between atoms: O1_2  and  C2_3 
REMARK    2  A    between atoms: C6_9  and  O2_10 
REMARK    3  A    between atoms: O2_10  and  C7_11 
REMARK    4  A    between atoms: C11_16  and  N3_17 
REMARK       I    between atoms: N3_17  and  C12_18 
ROOT
HETATM    1  O2  UNL     1      22.878   2.585  52.007  1.00  0.00    -0.303 OA
ENDROOT
BRANCH   1   2
HETATM    2  C6  UNL     1      24.156   2.762  51.558  1.00  0.00     0.182 A 
HETATM    3  N2  UNL     1      24.617   3.622  50.642  1.00  0.00    -0.217 NA
HETATM    4  C5  UNL     1      25.927   3.657  50.320  1.00  0.00     0.236 A 
HETATM    5  N1  UNL     1      26.836   2.847  50.885  1.00  0.00    -0.241 NA
HETATM    6  C4  UNL     1      26.417   1.972  51.805  1.00  0.00     0.075 A 
HETATM    7  C3  UNL     1      27.362   1.146  52.377  1.00  0.00     0.070 A 
HETATM    8  C15 UNL     1      25.068   1.909  52.164  1.00  0.00     0.047 A 
HETATM    9  C2  UNL     1      27.000   0.220  53.333  1.00  0.00     0.076 A 
HETATM   10  C17 UNL     1      25.657   0.141  53.705  1.00  0.00    -0.028 A 
HETATM   11  C16 UNL     1      24.726   0.964  53.133  1.00  0.00     0.027 A 
HETATM   12  C18 UNL     1      25.141  -0.826  54.733  1.00  0.00     0.051 C 
BRANCH   9  13
HETATM   13  O1  UNL     1      27.805  -0.680  54.008  1.00  0.00    -0.355 OA
HETATM   14  C1  UNL     1      29.200  -0.713  53.988  1.00  0.00     0.210 C 
ENDBRANCH   9  13
ENDBRANCH   1   2
BRANCH   1  15
HETATM   15  C7  UNL     1      21.778   2.226  51.268  1.00  0.00     0.155 C 
HETATM   16  C8  UNL     1      20.912   1.375  51.775  1.00  0.00    -0.011 A 
HETATM   17  C9  UNL     1      21.108   0.816  53.098  1.00  0.00     0.014 A 
HETATM   18  C14 UNL     1      19.738   0.971  51.023  1.00  0.00     0.043 A 
HETATM   19  C10 UNL     1      20.370  -0.039  53.777  1.00  0.00     0.011 A 
HETATM   20  P1  UNL     1      18.845  -0.659  52.986  1.00  0.00    -0.053 P 
HETATM   21  C11 UNL     1      18.764   0.144  51.344  1.00  0.00     0.040 A 
HETATM   22  H9  UNL     1      17.676  -0.422  53.794  1.00  0.00     0.068 HD
BRANCH  21  23
HETATM   23  N3  UNL     1      17.685  -0.137  50.480  1.00  0.00    -0.327 N 
HETATM   24  C12 UNL     1      16.537   0.718  50.626  1.00  0.00     0.218 C 
HETATM   25  C13 UNL     1      15.380   0.432  49.712  1.00  0.00     0.117 C 
HETATM   26  O3  UNL     1      16.453   1.669  51.460  1.00  0.00    -0.274 OA
HETATM   27  H10 UNL     1      17.677  -0.901  49.768  1.00  0.00     0.169 HD
ENDBRANCH  21  23
ENDBRANCH   1  15
TORSDOF 4
ENDMDL
MODEL 8
REMARK VINA RESULT:      -7.3      2.951      8.559
REMARK  4 active torsions:
REMARK  status: ('A' for Active; 'I' for Inactive)
REMARK    1  A    between atoms: O1_2  and  C2_3 
REMARK    2  A    between atoms: C6_9  and  O2_10 
REMARK    3  A    between atoms: O2_10  and  C7_11 
REMARK    4  A    between atoms: C11_16  and  N3_17 
REMARK       I    between atoms: N3_17  and  C12_18 
ROOT
HETATM    1  O2  UNL     1      26.307   4.925  48.649  1.00  0.00    -0.303 OA
ENDROOT
BRANCH   1   2
HETATM    2  C6  UNL     1      26.569   6.261  48.767  1.00  0.00     0.182 A 
HETATM    3  N2  UNL     1      25.738   7.260  49.084  1.00  0.00    -0.217 NA
HETATM    4  C5  UNL     1      26.177   8.534  49.153  1.00  0.00     0.236 A 
HETATM    5  N1  UNL     1      27.453   8.877  48.913  1.00  0.00    -0.241 NA
HETATM    6  C4  UNL     1      28.317   7.909  48.592  1.00  0.00     0.075 A 
HETATM    7  C3  UNL     1      29.624   8.275  48.348  1.00  0.00     0.070 A 
HETATM    8  C15 UNL     1      27.897   6.578  48.512  1.00  0.00     0.047 A 
HETATM    9  C2  UNL     1      30.569   7.328  48.013  1.00  0.00     0.076 A 
HETATM   10  C17 UNL     1      30.169   5.994  47.927  1.00  0.00    -0.028 A 
HETATM   11  C16 UNL     1      28.871   5.638  48.170  1.00  0.00     0.027 A 
HETATM   12  C18 UNL     1      31.104   4.873  47.570  1.00  0.00     0.051 C 
BRANCH   9  13
HETATM   13  O1  UNL     1      31.912   7.512  47.737  1.00  0.00    -0.355 OA
HETATM   14  C1  UNL     1      32.886   7.946  48.638  1.00  0.00     0.210 C 
ENDBRANCH   9  13
ENDBRANCH   1   2
BRANCH   1  15
HETATM   15  C7  UNL     1      26.840   3.904  49.395  1.00  0.00     0.155 C 
HETATM   16  C8  UNL     1      26.162   3.435  50.421  1.00  0.00    -0.011 A 
HETATM   17  C9  UNL     1      24.866   3.985  50.768  1.00  0.00     0.014 A 
HETATM   18  C14 UNL     1      26.693   2.356  51.234  1.00  0.00     0.043 A 
HETATM   19  C10 UNL     1      24.040   3.661  51.742  1.00  0.00     0.011 A 
HETATM   20  P1  UNL     1      24.544   2.317  52.871  1.00  0.00    -0.053 P 
HETATM   21  C11 UNL     1      26.182   1.752  52.287  1.00  0.00     0.040 A 
HETATM   22  H9  UNL     1      23.565   1.260  52.932  1.00  0.00     0.068 HD
BRANCH  21  23
HETATM   23  N3  UNL     1      26.845   0.707  52.964  1.00  0.00    -0.327 N 
HETATM   24  C12 UNL     1      27.790   1.122  53.967  1.00  0.00     0.218 C 
HETATM   25  C13 UNL     1      28.503   0.019  54.697  1.00  0.00     0.117 C 
HETATM   26  O3  UNL     1      28.044   2.328  54.257  1.00  0.00    -0.274 OA
HETATM   27  H10 UNL     1      26.691  -0.311  52.783  1.00  0.00     0.169 HD
ENDBRANCH  21  23
ENDBRANCH   1  15
TORSDOF 4
ENDMDL
MODEL 9
REMARK VINA RESULT:      -7.3      4.438      8.745
REMARK  4 active torsions:
REMARK  status: ('A' for Active; 'I' for Inactive)
REMARK    1  A    between atoms: O1_2  and  C2_3 
REMARK    2  A    between atoms: C6_9  and  O2_10 
REMARK    3  A    between atoms: O2_10  and  C7_11 
REMARK    4  A    between atoms: C11_16  and  N3_17 
REMARK       I    between atoms: N3_17  and  C12_18 
ROOT
HETATM    1  O2  UNL     1      28.910   6.167  47.906  1.00  0.00    -0.303 OA
ENDROOT
BRANCH   1   2
HETATM    2  C6  UNL     1      30.086   6.721  48.325  1.00  0.00     0.182 A 
HETATM    3  N2  UNL     1      30.300   7.899  48.921  1.00  0.00    -0.217 NA
HETATM    4  C5  UNL     1      31.544   8.287  49.268  1.00  0.00     0.236 A 
HETATM    5  N1  UNL     1      32.630   7.531  49.043  1.00  0.00    -0.241 NA
HETATM    6  C4  UNL     1      32.462   6.346  48.448  1.00  0.00     0.075 A 
HETATM    7  C3  UNL     1      33.586   5.579  48.223  1.00  0.00     0.070 A 
HETATM    8  C15 UNL     1      31.187   5.911  48.076  1.00  0.00     0.047 A 
HETATM    9  C2  UNL     1      33.486   4.345  47.614  1.00  0.00     0.076 A 
HETATM   10  C17 UNL     1      32.221   3.894  47.234  1.00  0.00    -0.028 A 
HETATM   11  C16 UNL     1      31.110   4.660  47.461  1.00  0.00     0.027 A 
HETATM   12  C18 UNL     1      31.984   2.571  46.564  1.00  0.00     0.051 C 
BRANCH   9  13
HETATM   13  O1  UNL     1      34.496   3.450  47.312  1.00  0.00    -0.355 OA
HETATM   14  C1  UNL     1      35.289   3.461  46.163  1.00  0.00     0.210 C 
ENDBRANCH   9  13
ENDBRANCH   1   2
BRANCH   1  15
HETATM   15  C7  UNL     1      27.638   6.583  48.212  1.00  0.00     0.155 C 
HETATM   16  C8  UNL     1      26.793   5.729  48.748  1.00  0.00    -0.011 A 
HETATM   17  C9  UNL     1      27.191   4.360  49.015  1.00  0.00     0.014 A 
HETATM   18  C14 UNL     1      25.440   6.131  49.085  1.00  0.00     0.043 A 
HETATM   19  C10 UNL     1      26.506   3.364  49.539  1.00  0.00     0.011 A 
HETATM   20  P1  UNL     1      24.776   3.687  50.026  1.00  0.00    -0.053 P 
HETATM   21  C11 UNL     1      24.454   5.441  49.620  1.00  0.00     0.040 A 
HETATM   22  H9  UNL     1      24.530   3.369  51.411  1.00  0.00     0.068 HD
BRANCH  21  23
HETATM   23  N3  UNL     1      23.186   5.999  49.882  1.00  0.00    -0.327 N 
HETATM   24  C12 UNL     1      22.217   5.859  48.827  1.00  0.00     0.218 C 
HETATM   25  C13 UNL     1      20.861   6.448  49.093  1.00  0.00     0.117 C 
HETATM   26  O3  UNL     1      22.442   5.283  47.721  1.00  0.00    -0.274 OA
HETATM   27  H10 UNL     1      22.923   6.489  50.767  1.00  0.00     0.169 HD
ENDBRANCH  21  23
ENDBRANCH   1  15
TORSDOF 4
ENDMDL
