MODEL 1
REMARK VINA RESULT:      -9.9      0.000      0.000
REMARK  3 active torsions:
REMARK  status: ('A' for Active; 'I' for Inactive)
REMARK    1  A    between atoms: C15_21  and  O2_22 
REMARK    2  A    between atoms: O2_22  and  C16_23 
REMARK    3  A    between atoms: C16_23  and  C17_24 
ROOT
HETATM    1  O1  UNL     1      22.656   0.676  52.274  1.00  0.00    -0.265 OA
HETATM    2  C1  UNL     1      23.525   1.375  51.736  1.00  0.00     0.274 C 
HETATM    3  N1  UNL     1      22.426   2.050  51.142  1.00  0.00    -0.354 N 
HETATM    4  C2  UNL     1      20.982   1.971  51.173  1.00  0.00     0.142 C 
HETATM    5  C3  UNL     1      20.330   3.017  50.331  1.00  0.00     0.133 C 
HETATM    6  N2  UNL     1      20.480   4.352  50.797  1.00  0.00    -0.417 N 
HETATM    7  C4  UNL     1      21.774   4.910  50.804  1.00  0.00     0.141 C 
HETATM    8  C5  UNL     1      21.820   6.396  51.102  1.00  0.00    -0.012 C 
HETATM    9  C6  UNL     1      22.337   7.275  50.205  1.00  0.00    -0.026 C 
HETATM   10  C7  UNL     1      22.777   8.566  49.593  1.00  0.00     0.077 C 
HETATM   11  C8  UNL     1      24.249   8.480  49.274  1.00  0.00     0.198 A 
HETATM   12  C9  UNL     1      24.803   9.151  48.119  1.00  0.00     0.017 A 
HETATM   13  C10 UNL     1      24.592   7.813  47.972  1.00  0.00     0.017 A 
HETATM   14  N3  UNL     1      25.076   8.076  50.361  1.00  0.00     0.121 N 
HETATM   15  C11 UNL     1      25.409   6.679  50.323  1.00  0.00     0.444 C 
HETATM   16  N4  UNL     1      25.983   6.341  49.051  1.00  0.00    -0.163 NA
HETATM   17  N5  UNL     1      26.580   5.278  48.753  1.00  0.00    -0.166 NA
HETATM   18  C12 UNL     1      26.802   4.216  49.603  1.00  0.00     0.140 C 
HETATM   19  C13 UNL     1      26.139   3.327  50.283  1.00  0.00     0.024 C 
HETATM   20  C14 UNL     1      25.863   2.218  51.152  1.00  0.00     0.044 C 
HETATM   21  C15 UNL     1      24.951   1.490  51.695  1.00  0.00     0.136 C 
HETATM   22  H1  UNL     1      22.986   2.689  50.546  1.00  0.00     0.162 HD
HETATM   23  H6  UNL     1      19.845   4.680  51.524  1.00  0.00     0.153 HD
HETATM   24  H15 UNL     1      25.935   8.665  50.379  1.00  0.00     0.320 HD
ENDROOT
BRANCH  21  25
HETATM   25  O2  UNL     1      25.509   0.508  52.492  1.00  0.00    -0.341 OA
BRANCH  25  26
HETATM   26  C16 UNL     1      26.215   0.835  53.671  1.00  0.00     0.216 C 
BRANCH  26  27
HETATM   27  C17 UNL     1      27.557   0.183  53.533  1.00  0.00    -0.009 A 
HETATM   28  C18 UNL     1      27.578  -1.180  53.377  1.00  0.00     0.053 A 
HETATM   29  C19 UNL     1      28.737  -1.922  53.243  1.00  0.00     0.117 A 
HETATM   30  F1  UNL     1      28.682  -3.268  53.092  1.00  0.00    -0.206 F 
HETATM   31  C20 UNL     1      29.920  -1.213  53.273  1.00  0.00     0.044 A 
HETATM   32  C21 UNL     1      29.910   0.160  53.430  1.00  0.00     0.027 A 
HETATM   33  C22 UNL     1      28.733   0.888  53.563  1.00  0.00     0.042 A 
HETATM   34 CL1  UNL     1      28.691   2.628  53.762  1.00  0.00    -0.084 Cl
ENDBRANCH  26  27
ENDBRANCH  25  26
ENDBRANCH  21  25
TORSDOF 3
ENDMDL
MODEL 2
REMARK VINA RESULT:      -9.3      3.258      6.327
REMARK  3 active torsions:
REMARK  status: ('A' for Active; 'I' for Inactive)
REMARK    1  A    between atoms: C15_21  and  O2_22 
REMARK    2  A    between atoms: O2_22  and  C16_23 
REMARK    3  A    between atoms: C16_23  and  C17_24 
ROOT
HETATM    1  O1  UNL     1      24.663   3.270  52.484  1.00  0.00    -0.265 OA
HETATM    2  C1  UNL     1      23.743   2.463  52.679  1.00  0.00     0.274 C 
HETATM    3  N1  UNL     1      22.897   3.538  52.302  1.00  0.00    -0.354 N 
HETATM    4  C2  UNL     1      23.042   4.911  51.872  1.00  0.00     0.142 C 
HETATM    5  C3  UNL     1      21.733   5.561  51.568  1.00  0.00     0.133 C 
HETATM    6  N2  UNL     1      21.054   5.053  50.428  1.00  0.00    -0.417 N 
HETATM    7  C4  UNL     1      20.586   3.724  50.472  1.00  0.00     0.141 C 
HETATM    8  C5  UNL     1      19.687   3.330  49.317  1.00  0.00    -0.012 C 
HETATM    9  C6  UNL     1      18.410   2.918  49.532  1.00  0.00    -0.026 C 
HETATM   10  C7  UNL     1      17.024   2.428  49.258  1.00  0.00     0.077 C 
HETATM   11  C8  UNL     1      16.806   1.135  50.002  1.00  0.00     0.198 A 
HETATM   12  C9  UNL     1      15.508   0.794  50.542  1.00  0.00     0.017 A 
HETATM   13  C10 UNL     1      16.408   1.278  51.444  1.00  0.00     0.017 A 
HETATM   14  N3  UNL     1      17.797   0.138  49.776  1.00  0.00     0.121 N 
HETATM   15  C11 UNL     1      18.789   0.087  50.815  1.00  0.00     0.444 C 
HETATM   16  N4  UNL     1      18.157  -0.057  52.096  1.00  0.00    -0.163 NA
HETATM   17  N5  UNL     1      18.714  -0.350  53.182  1.00  0.00    -0.166 NA
HETATM   18  C12 UNL     1      20.060  -0.592  53.354  1.00  0.00     0.140 C 
HETATM   19  C13 UNL     1      21.204   0.018  53.250  1.00  0.00     0.024 C 
HETATM   20  C14 UNL     1      22.621   0.250  53.281  1.00  0.00     0.044 C 
HETATM   21  C15 UNL     1      23.566   1.102  53.087  1.00  0.00     0.136 C 
HETATM   22  H1  UNL     1      21.998   3.049  52.477  1.00  0.00     0.162 HD
HETATM   23  H6  UNL     1      21.329   5.401  49.509  1.00  0.00     0.153 HD
HETATM   24  H15 UNL     1      17.334  -0.788  49.656  1.00  0.00     0.320 HD
ENDROOT
BRANCH  21  25
HETATM   25  O2  UNL     1      24.802   0.542  53.351  1.00  0.00    -0.341 OA
BRANCH  25  26
HETATM   26  C16 UNL     1      25.608   0.024  52.313  1.00  0.00     0.216 C 
BRANCH  26  27
HETATM   27  C17 UNL     1      27.015   0.095  52.820  1.00  0.00    -0.009 A 
HETATM   28  C18 UNL     1      27.498   1.336  53.154  1.00  0.00     0.053 A 
HETATM   29  C19 UNL     1      28.776   1.562  53.629  1.00  0.00     0.117 A 
HETATM   30  F1  UNL     1      29.186   2.817  53.940  1.00  0.00    -0.206 F 
HETATM   31  C20 UNL     1      29.583   0.451  53.761  1.00  0.00     0.044 A 
HETATM   32  C21 UNL     1      29.106  -0.803  53.428  1.00  0.00     0.027 A 
HETATM   33  C22 UNL     1      27.816  -1.010  52.951  1.00  0.00     0.042 A 
HETATM   34 CL1  UNL     1      27.187  -2.587  52.523  1.00  0.00    -0.084 Cl
ENDBRANCH  26  27
ENDBRANCH  25  26
ENDBRANCH  21  25
TORSDOF 3
ENDMDL
MODEL 3
REMARK VINA RESULT:      -9.3      3.939      7.434
REMARK  3 active torsions:
REMARK  status: ('A' for Active; 'I' for Inactive)
REMARK    1  A    between atoms: C15_21  and  O2_22 
REMARK    2  A    between atoms: O2_22  and  C16_23 
REMARK    3  A    between atoms: C16_23  and  C17_24 
ROOT
HETATM    1  O1  UNL     1      27.493   2.458  51.582  1.00  0.00    -0.265 OA
HETATM    2  C1  UNL     1      26.421   2.590  50.977  1.00  0.00     0.274 C 
HETATM    3  N1  UNL     1      26.069   1.365  51.602  1.00  0.00    -0.354 N 
HETATM    4  C2  UNL     1      26.669   0.426  52.525  1.00  0.00     0.142 C 
HETATM    5  C3  UNL     1      25.762  -0.710  52.861  1.00  0.00     0.133 C 
HETATM    6  N2  UNL     1      24.615  -0.365  53.627  1.00  0.00    -0.417 N 
HETATM    7  C4  UNL     1      23.645   0.467  53.030  1.00  0.00     0.141 C 
HETATM    8  C5  UNL     1      22.359   0.607  53.821  1.00  0.00    -0.012 C 
HETATM    9  C6  UNL     1      21.166   0.226  53.294  1.00  0.00    -0.026 C 
HETATM   10  C7  UNL     1      19.698  -0.026  53.172  1.00  0.00     0.077 C 
HETATM   11  C8  UNL     1      19.168   0.731  51.980  1.00  0.00     0.198 A 
HETATM   12  C9  UNL     1      18.089   0.199  51.178  1.00  0.00     0.017 A 
HETATM   13  C10 UNL     1      19.337   0.048  50.653  1.00  0.00     0.017 A 
HETATM   14  N3  UNL     1      19.492   2.118  51.958  1.00  0.00     0.121 N 
HETATM   15  C11 UNL     1      20.623   2.416  51.123  1.00  0.00     0.444 C 
HETATM   16  N4  UNL     1      20.418   1.887  49.805  1.00  0.00    -0.163 NA
HETATM   17  N5  UNL     1      21.090   2.145  48.777  1.00  0.00    -0.166 NA
HETATM   18  C12 UNL     1      22.169   3.000  48.717  1.00  0.00     0.140 C 
HETATM   19  C13 UNL     1      23.372   3.124  49.197  1.00  0.00     0.024 C 
HETATM   20  C14 UNL     1      24.678   3.664  49.452  1.00  0.00     0.044 C 
HETATM   21  C15 UNL     1      25.792   3.507  50.076  1.00  0.00     0.136 C 
HETATM   22  H1  UNL     1      25.149   1.254  51.135  1.00  0.00     0.162 HD
HETATM   23  H6  UNL     1      24.720  -0.277  54.637  1.00  0.00     0.153 HD
HETATM   24  H15 UNL     1      18.655   2.663  51.663  1.00  0.00     0.320 HD
ENDROOT
BRANCH  21  25
HETATM   25  O2  UNL     1      26.666   4.543  49.799  1.00  0.00    -0.341 OA
BRANCH  25  26
HETATM   26  C16 UNL     1      26.289   5.613  48.958  1.00  0.00     0.216 C 
BRANCH  26  27
HETATM   27  C17 UNL     1      27.568   6.164  48.406  1.00  0.00    -0.009 A 
HETATM   28  C18 UNL     1      28.633   5.303  48.315  1.00  0.00     0.053 A 
HETATM   29  C19 UNL     1      29.876   5.665  47.833  1.00  0.00     0.117 A 
HETATM   30  F1  UNL     1      30.884   4.760  47.771  1.00  0.00    -0.206 F 
HETATM   31  C20 UNL     1      30.015   6.977  47.429  1.00  0.00     0.044 A 
HETATM   32  C21 UNL     1      28.948   7.852  47.516  1.00  0.00     0.027 A 
HETATM   33  C22 UNL     1      27.705   7.469  48.005  1.00  0.00     0.042 A 
HETATM   34 CL1  UNL     1      26.337   8.556  48.125  1.00  0.00    -0.084 Cl
ENDBRANCH  26  27
ENDBRANCH  25  26
ENDBRANCH  21  25
TORSDOF 3
ENDMDL
MODEL 4
REMARK VINA RESULT:      -9.2      2.075      2.684
REMARK  3 active torsions:
REMARK  status: ('A' for Active; 'I' for Inactive)
REMARK    1  A    between atoms: C15_21  and  O2_22 
REMARK    2  A    between atoms: O2_22  and  C16_23 
REMARK    3  A    between atoms: C16_23  and  C17_24 
ROOT
HETATM    1  O1  UNL     1      23.243   2.720  50.176  1.00  0.00    -0.265 OA
HETATM    2  C1  UNL     1      24.297   3.266  49.823  1.00  0.00     0.274 C 
HETATM    3  N1  UNL     1      23.446   4.145  49.104  1.00  0.00    -0.354 N 
HETATM    4  C2  UNL     1      22.026   4.329  48.901  1.00  0.00     0.142 C 
HETATM    5  C3  UNL     1      21.715   5.500  48.029  1.00  0.00     0.133 C 
HETATM    6  N2  UNL     1      22.015   6.771  48.590  1.00  0.00    -0.417 N 
HETATM    7  C4  UNL     1      23.368   7.085  48.834  1.00  0.00     0.141 C 
HETATM    8  C5  UNL     1      23.621   8.529  49.222  1.00  0.00    -0.012 C 
HETATM    9  C6  UNL     1      24.426   9.325  48.471  1.00  0.00    -0.026 C 
HETATM   10  C7  UNL     1      25.179  10.532  48.013  1.00  0.00     0.077 C 
HETATM   11  C8  UNL     1      26.646  10.190  47.926  1.00  0.00     0.198 A 
HETATM   12  C9  UNL     1      27.492  10.783  46.914  1.00  0.00     0.017 A 
HETATM   13  C10 UNL     1      27.078   9.510  46.658  1.00  0.00     0.017 A 
HETATM   14  N3  UNL     1      27.197   9.611  49.105  1.00  0.00     0.121 N 
HETATM   15  C11 UNL     1      27.284   8.179  49.038  1.00  0.00     0.444 C 
HETATM   16  N4  UNL     1      27.993   7.779  47.855  1.00  0.00    -0.163 NA
HETATM   17  N5  UNL     1      28.437   6.635  47.594  1.00  0.00    -0.166 NA
HETATM   18  C12 UNL     1      28.326   5.526  48.404  1.00  0.00     0.140 C 
HETATM   19  C13 UNL     1      27.415   4.752  48.918  1.00  0.00     0.024 C 
HETATM   20  C14 UNL     1      26.810   3.687  49.667  1.00  0.00     0.044 C 
HETATM   21  C15 UNL     1      25.708   3.121  50.015  1.00  0.00     0.136 C 
HETATM   22  H1  UNL     1      24.200   4.689  48.643  1.00  0.00     0.162 HD
HETATM   23  H6  UNL     1      21.336   7.188  49.226  1.00  0.00     0.153 HD
HETATM   24  H15 UNL     1      28.131  10.034  49.292  1.00  0.00     0.320 HD
ENDROOT
BRANCH  21  25
HETATM   25  O2  UNL     1      25.947   2.031  50.832  1.00  0.00    -0.341 OA
BRANCH  25  26
HETATM   26  C16 UNL     1      26.289   2.196  52.192  1.00  0.00     0.216 C 
BRANCH  26  27
HETATM   27  C17 UNL     1      27.080   0.979  52.561  1.00  0.00    -0.009 A 
HETATM   28  C18 UNL     1      26.583  -0.236  52.161  1.00  0.00     0.053 A 
HETATM   29  C19 UNL     1      27.196  -1.445  52.431  1.00  0.00     0.117 A 
HETATM   30  F1  UNL     1      26.647  -2.609  52.003  1.00  0.00    -0.206 F 
HETATM   31  C20 UNL     1      28.374  -1.384  53.146  1.00  0.00     0.044 A 
HETATM   32  C21 UNL     1      28.883  -0.165  53.554  1.00  0.00     0.027 A 
HETATM   33  C22 UNL     1      28.251   1.040  53.273  1.00  0.00     0.042 A 
HETATM   34 CL1  UNL     1      28.874   2.598  53.776  1.00  0.00    -0.084 Cl
ENDBRANCH  26  27
ENDBRANCH  25  26
ENDBRANCH  21  25
TORSDOF 3
ENDMDL
MODEL 5
REMARK VINA RESULT:      -9.1      2.138      5.200
REMARK  3 active torsions:
REMARK  status: ('A' for Active; 'I' for Inactive)
REMARK    1  A    between atoms: C15_21  and  O2_22 
REMARK    2  A    between atoms: O2_22  and  C16_23 
REMARK    3  A    between atoms: C16_23  and  C17_24 
ROOT
HETATM    1  O1  UNL     1      26.394   3.525  50.146  1.00  0.00    -0.265 OA
HETATM    2  C1  UNL     1      25.377   3.078  50.693  1.00  0.00     0.274 C 
HETATM    3  N1  UNL     1      24.701   4.095  49.970  1.00  0.00    -0.354 N 
HETATM    4  C2  UNL     1      25.039   5.139  49.027  1.00  0.00     0.142 C 
HETATM    5  C3  UNL     1      23.844   5.905  48.564  1.00  0.00     0.133 C 
HETATM    6  N2  UNL     1      22.931   5.175  47.755  1.00  0.00    -0.417 N 
HETATM    7  C4  UNL     1      22.235   4.100  48.345  1.00  0.00     0.141 C 
HETATM    8  C5  UNL     1      21.128   3.517  47.490  1.00  0.00    -0.012 C 
HETATM    9  C6  UNL     1      19.838   3.513  47.919  1.00  0.00    -0.026 C 
HETATM   10  C7  UNL     1      18.362   3.282  47.936  1.00  0.00     0.077 C 
HETATM   11  C8  UNL     1      18.012   2.445  49.141  1.00  0.00     0.198 A 
HETATM   12  C9  UNL     1      16.760   2.631  49.842  1.00  0.00     0.017 A 
HETATM   13  C10 UNL     1      17.850   3.201  50.429  1.00  0.00     0.017 A 
HETATM   14  N3  UNL     1      18.760   1.240  49.272  1.00  0.00     0.121 N 
HETATM   15  C11 UNL     1      19.858   1.359  50.191  1.00  0.00     0.444 C 
HETATM   16  N4  UNL     1      19.393   1.849  51.458  1.00  0.00    -0.163 NA
HETATM   17  N5  UNL     1      20.031   1.865  52.538  1.00  0.00    -0.166 NA
HETATM   18  C12 UNL     1      21.319   1.409  52.718  1.00  0.00     0.140 C 
HETATM   19  C13 UNL     1      22.531   1.661  52.319  1.00  0.00     0.024 C 
HETATM   20  C14 UNL     1      23.957   1.563  52.179  1.00  0.00     0.044 C 
HETATM   21  C15 UNL     1      25.007   2.045  51.613  1.00  0.00     0.136 C 
HETATM   22  H1  UNL     1      23.760   3.923  50.373  1.00  0.00     0.162 HD
HETATM   23  H6  UNL     1      23.137   5.083  46.760  1.00  0.00     0.153 HD
HETATM   24  H15 UNL     1      18.121   0.466  49.552  1.00  0.00     0.320 HD
ENDROOT
BRANCH  21  25
HETATM   25  O2  UNL     1      26.142   1.361  52.009  1.00  0.00    -0.341 OA
BRANCH  25  26
HETATM   26  C16 UNL     1      26.266   0.843  53.317  1.00  0.00     0.216 C 
BRANCH  26  27
HETATM   27  C17 UNL     1      27.598   0.160  53.357  1.00  0.00    -0.009 A 
HETATM   28  C18 UNL     1      27.608  -1.204  53.204  1.00  0.00     0.053 A 
HETATM   29  C19 UNL     1      28.756  -1.973  53.224  1.00  0.00     0.117 A 
HETATM   30  F1  UNL     1      28.690  -3.318  53.065  1.00  0.00    -0.206 F 
HETATM   31  C20 UNL     1      29.941  -1.293  53.411  1.00  0.00     0.044 A 
HETATM   32  C21 UNL     1      29.943   0.081  53.567  1.00  0.00     0.027 A 
HETATM   33  C22 UNL     1      28.776   0.837  53.544  1.00  0.00     0.042 A 
HETATM   34 CL1  UNL     1      28.750   2.577  53.737  1.00  0.00    -0.084 Cl
ENDBRANCH  26  27
ENDBRANCH  25  26
ENDBRANCH  21  25
TORSDOF 3
ENDMDL
MODEL 6
REMARK VINA RESULT:      -8.9      2.291      2.910
REMARK  3 active torsions:
REMARK  status: ('A' for Active; 'I' for Inactive)
REMARK    1  A    between atoms: C15_21  and  O2_22 
REMARK    2  A    between atoms: O2_22  and  C16_23 
REMARK    3  A    between atoms: C16_23  and  C17_24 
ROOT
HETATM    1  O1  UNL     1      22.868  -0.545  53.781  1.00  0.00    -0.265 OA
HETATM    2  C1  UNL     1      23.227   0.287  52.937  1.00  0.00     0.274 C 
HETATM    3  N1  UNL     1      21.886   0.206  52.479  1.00  0.00    -0.354 N 
HETATM    4  C2  UNL     1      20.674  -0.495  52.843  1.00  0.00     0.142 C 
HETATM    5  C3  UNL     1      19.515  -0.130  51.976  1.00  0.00     0.133 C 
HETATM    6  N2  UNL     1      19.042   1.202  52.124  1.00  0.00    -0.417 N 
HETATM    7  C4  UNL     1      19.894   2.256  51.735  1.00  0.00     0.141 C 
HETATM    8  C5  UNL     1      19.240   3.624  51.717  1.00  0.00    -0.012 C 
HETATM    9  C6  UNL     1      19.172   4.352  50.572  1.00  0.00    -0.026 C 
HETATM   10  C7  UNL     1      18.864   5.476  49.636  1.00  0.00     0.077 C 
HETATM   11  C8  UNL     1      20.151   5.970  49.024  1.00  0.00     0.198 A 
HETATM   12  C9  UNL     1      20.190   6.466  47.666  1.00  0.00     0.017 A 
HETATM   13  C10 UNL     1      20.643   5.191  47.837  1.00  0.00     0.017 A 
HETATM   14  N3  UNL     1      21.174   6.296  49.960  1.00  0.00     0.121 N 
HETATM   15  C11 UNL     1      22.139   5.245  50.126  1.00  0.00     0.444 C 
HETATM   16  N4  UNL     1      22.675   4.859  48.851  1.00  0.00    -0.163 NA
HETATM   17  N5  UNL     1      23.681   4.138  48.644  1.00  0.00    -0.166 NA
HETATM   18  C12 UNL     1      24.475   3.570  49.616  1.00  0.00     0.140 C 
HETATM   19  C13 UNL     1      24.400   2.707  50.588  1.00  0.00     0.024 C 
HETATM   20  C14 UNL     1      24.788   1.883  51.697  1.00  0.00     0.044 C 
HETATM   21  C15 UNL     1      24.405   1.009  52.561  1.00  0.00     0.136 C 
HETATM   22  H1  UNL     1      22.002   0.834  51.661  1.00  0.00     0.162 HD
HETATM   23  H6  UNL     1      18.404   1.402  52.894  1.00  0.00     0.153 HD
HETATM   24  H15 UNL     1      21.635   7.185  49.671  1.00  0.00     0.320 HD
ENDROOT
BRANCH  21  25
HETATM   25  O2  UNL     1      25.447   0.643  53.393  1.00  0.00    -0.341 OA
BRANCH  25  26
HETATM   26  C16 UNL     1      26.636   1.403  53.454  1.00  0.00     0.216 C 
BRANCH  26  27
HETATM   27  C17 UNL     1      27.754   0.407  53.434  1.00  0.00    -0.009 A 
HETATM   28  C18 UNL     1      27.440  -0.880  53.076  1.00  0.00     0.053 A 
HETATM   29  C19 UNL     1      28.361  -1.909  53.017  1.00  0.00     0.117 A 
HETATM   30  F1  UNL     1      27.979  -3.159  52.655  1.00  0.00    -0.206 F 
HETATM   31  C20 UNL     1      29.661  -1.583  53.345  1.00  0.00     0.044 A 
HETATM   32  C21 UNL     1      29.988  -0.289  53.706  1.00  0.00     0.027 A 
HETATM   33  C22 UNL     1      29.046   0.733  53.760  1.00  0.00     0.042 A 
HETATM   34 CL1  UNL     1      29.433   2.379  54.213  1.00  0.00    -0.084 Cl
ENDBRANCH  26  27
ENDBRANCH  25  26
ENDBRANCH  21  25
TORSDOF 3
ENDMDL
MODEL 7
REMARK VINA RESULT:      -8.9      3.921      6.990
REMARK  3 active torsions:
REMARK  status: ('A' for Active; 'I' for Inactive)
REMARK    1  A    between atoms: C15_21  and  O2_22 
REMARK    2  A    between atoms: O2_22  and  C16_23 
REMARK    3  A    between atoms: C16_23  and  C17_24 
ROOT
HETATM    1  O1  UNL     1      22.753   0.093  52.905  1.00  0.00    -0.265 OA
HETATM    2  C1  UNL     1      22.535   1.267  52.578  1.00  0.00     0.274 C 
HETATM    3  N1  UNL     1      23.946   1.407  52.637  1.00  0.00    -0.354 N 
HETATM    4  C2  UNL     1      25.091   0.570  52.920  1.00  0.00     0.142 C 
HETATM    5  C3  UNL     1      26.386   1.300  52.784  1.00  0.00     0.133 C 
HETATM    6  N2  UNL     1      26.728   1.688  51.460  1.00  0.00    -0.417 N 
HETATM    7  C4  UNL     1      25.916   2.645  50.819  1.00  0.00     0.141 C 
HETATM    8  C5  UNL     1      26.468   3.165  49.506  1.00  0.00    -0.012 C 
HETATM    9  C6  UNL     1      26.739   4.486  49.334  1.00  0.00    -0.026 C 
HETATM   10  C7  UNL     1      27.171   5.760  48.684  1.00  0.00     0.077 C 
HETATM   11  C8  UNL     1      26.021   6.735  48.704  1.00  0.00     0.198 A 
HETATM   12  C9  UNL     1      26.249   8.156  48.847  1.00  0.00     0.017 A 
HETATM   13  C10 UNL     1      25.852   7.511  49.980  1.00  0.00     0.017 A 
HETATM   14  N3  UNL     1      24.799   6.232  48.173  1.00  0.00     0.121 N 
HETATM   15  C11 UNL     1      23.890   5.777  49.189  1.00  0.00     0.444 C 
HETATM   16  N4  UNL     1      23.674   6.813  50.159  1.00  0.00    -0.163 NA
HETATM   17  N5  UNL     1      22.787   6.839  51.046  1.00  0.00    -0.166 NA
HETATM   18  C12 UNL     1      21.837   5.864  51.262  1.00  0.00     0.140 C 
HETATM   19  C13 UNL     1      21.752   4.612  51.605  1.00  0.00     0.024 C 
HETATM   20  C14 UNL     1      21.184   3.333  51.927  1.00  0.00     0.044 C 
HETATM   21  C15 UNL     1      21.424   2.119  52.278  1.00  0.00     0.136 C 
HETATM   22  H1  UNL     1      23.972   2.427  52.445  1.00  0.00     0.162 HD
HETATM   23  H6  UNL     1      27.168   0.994  50.855  1.00  0.00     0.153 HD
HETATM   24  H15 UNL     1      24.356   6.962  47.575  1.00  0.00     0.320 HD
ENDROOT
BRANCH  21  25
HETATM   25  O2  UNL     1      20.251   1.400  52.411  1.00  0.00    -0.341 OA
BRANCH  25  26
HETATM   26  C16 UNL     1      19.390   1.192  51.310  1.00  0.00     0.216 C 
BRANCH  26  27
HETATM   27  C17 UNL     1      18.399   0.163  51.759  1.00  0.00    -0.009 A 
HETATM   28  C18 UNL     1      18.791  -0.687  52.763  1.00  0.00     0.053 A 
HETATM   29  C19 UNL     1      17.991  -1.690  53.278  1.00  0.00     0.117 A 
HETATM   30  F1  UNL     1      18.444  -2.494  54.271  1.00  0.00    -0.206 F 
HETATM   31  C20 UNL     1      16.733  -1.810  52.725  1.00  0.00     0.044 A 
HETATM   32  C21 UNL     1      16.329  -0.959  51.714  1.00  0.00     0.027 A 
HETATM   33  C22 UNL     1      17.149   0.044  51.208  1.00  0.00     0.042 A 
HETATM   34 CL1  UNL     1      16.662   1.137  49.929  1.00  0.00    -0.084 Cl
ENDBRANCH  26  27
ENDBRANCH  25  26
ENDBRANCH  21  25
TORSDOF 3
ENDMDL
MODEL 8
REMARK VINA RESULT:      -8.9      2.529      5.874
REMARK  3 active torsions:
REMARK  status: ('A' for Active; 'I' for Inactive)
REMARK    1  A    between atoms: C15_21  and  O2_22 
REMARK    2  A    between atoms: O2_22  and  C16_23 
REMARK    3  A    between atoms: C16_23  and  C17_24 
ROOT
HETATM    1  O1  UNL     1      24.775   4.281  51.192  1.00  0.00    -0.265 OA
HETATM    2  C1  UNL     1      24.000   3.378  51.536  1.00  0.00     0.274 C 
HETATM    3  N1  UNL     1      22.986   4.349  51.331  1.00  0.00    -0.354 N 
HETATM    4  C2  UNL     1      22.899   5.728  50.901  1.00  0.00     0.142 C 
HETATM    5  C3  UNL     1      21.493   6.226  50.845  1.00  0.00     0.133 C 
HETATM    6  N2  UNL     1      20.681   5.638  49.837  1.00  0.00    -0.417 N 
HETATM    7  C4  UNL     1      20.379   4.265  49.946  1.00  0.00     0.141 C 
HETATM    8  C5  UNL     1      19.337   3.767  48.964  1.00  0.00    -0.012 C 
HETATM    9  C6  UNL     1      18.172   3.216  49.397  1.00  0.00    -0.026 C 
HETATM   10  C7  UNL     1      16.823   2.574  49.368  1.00  0.00     0.077 C 
HETATM   11  C8  UNL     1      16.886   1.268  50.121  1.00  0.00     0.198 A 
HETATM   12  C9  UNL     1      15.751   0.788  50.879  1.00  0.00     0.017 A 
HETATM   13  C10 UNL     1      16.739   1.374  51.612  1.00  0.00     0.017 A 
HETATM   14  N3  UNL     1      17.926   0.387  49.708  1.00  0.00     0.121 N 
HETATM   15  C11 UNL     1      19.086   0.453  50.552  1.00  0.00     0.444 C 
HETATM   16  N4  UNL     1      18.714   0.247  51.923  1.00  0.00    -0.163 NA
HETATM   17  N5  UNL     1      19.485   0.024  52.887  1.00  0.00    -0.166 NA
HETATM   18  C12 UNL     1      20.858  -0.065  52.813  1.00  0.00     0.140 C 
HETATM   19  C13 UNL     1      21.891   0.668  52.515  1.00  0.00     0.024 C 
HETATM   20  C14 UNL     1      23.256   1.057  52.296  1.00  0.00     0.044 C 
HETATM   21  C15 UNL     1      24.050   2.008  51.949  1.00  0.00     0.136 C 
HETATM   22  H1  UNL     1      22.193   3.764  51.657  1.00  0.00     0.162 HD
HETATM   23  H6  UNL     1      20.747   6.009  48.890  1.00  0.00     0.153 HD
HETATM   24  H15 UNL     1      17.554  -0.586  49.658  1.00  0.00     0.320 HD
ENDROOT
BRANCH  21  25
HETATM   25  O2  UNL     1      25.368   1.590  51.981  1.00  0.00    -0.341 OA
BRANCH  25  26
HETATM   26  C16 UNL     1      26.183   1.821  53.111  1.00  0.00     0.216 C 
BRANCH  26  27
HETATM   27  C17 UNL     1      27.185   0.708  53.122  1.00  0.00    -0.009 A 
HETATM   28  C18 UNL     1      26.743  -0.536  52.748  1.00  0.00     0.053 A 
HETATM   29  C19 UNL     1      27.546  -1.661  52.713  1.00  0.00     0.117 A 
HETATM   30  F1  UNL     1      27.041  -2.860  52.332  1.00  0.00    -0.206 F 
HETATM   31  C20 UNL     1      28.863  -1.479  53.082  1.00  0.00     0.044 A 
HETATM   32  C21 UNL     1      29.318  -0.230  53.460  1.00  0.00     0.027 A 
HETATM   33  C22 UNL     1      28.494   0.889  53.489  1.00  0.00     0.042 A 
HETATM   34 CL1  UNL     1      29.044   2.483  53.963  1.00  0.00    -0.084 Cl
ENDBRANCH  26  27
ENDBRANCH  25  26
ENDBRANCH  21  25
TORSDOF 3
ENDMDL
MODEL 9
REMARK VINA RESULT:      -8.8      4.003      7.580
REMARK  3 active torsions:
REMARK  status: ('A' for Active; 'I' for Inactive)
REMARK    1  A    between atoms: C15_21  and  O2_22 
REMARK    2  A    between atoms: O2_22  and  C16_23 
REMARK    3  A    between atoms: C16_23  and  C17_24 
ROOT
HETATM    1  O1  UNL     1      27.534   2.256  51.771  1.00  0.00    -0.265 OA
HETATM    2  C1  UNL     1      26.512   2.433  51.093  1.00  0.00     0.274 C 
HETATM    3  N1  UNL     1      26.060   1.232  51.700  1.00  0.00    -0.354 N 
HETATM    4  C2  UNL     1      26.551   0.274  52.667  1.00  0.00     0.142 C 
HETATM    5  C3  UNL     1      25.570  -0.815  52.947  1.00  0.00     0.133 C 
HETATM    6  N2  UNL     1      24.391  -0.409  53.631  1.00  0.00    -0.417 N 
HETATM    7  C4  UNL     1      23.505   0.462  52.965  1.00  0.00     0.141 C 
HETATM    8  C5  UNL     1      22.177   0.671  53.666  1.00  0.00    -0.012 C 
HETATM    9  C6  UNL     1      21.006   0.342  53.060  1.00  0.00    -0.026 C 
HETATM   10  C7  UNL     1      19.539   0.158  52.840  1.00  0.00     0.077 C 
HETATM   11  C8  UNL     1      19.128   0.928  51.611  1.00  0.00     0.198 A 
HETATM   12  C9  UNL     1      18.081   0.441  50.740  1.00  0.00     0.017 A 
HETATM   13  C10 UNL     1      19.353   0.226  50.302  1.00  0.00     0.017 A 
HETATM   14  N3  UNL     1      19.518   2.298  51.603  1.00  0.00     0.121 N 
HETATM   15  C11 UNL     1      20.716   2.535  50.845  1.00  0.00     0.444 C 
HETATM   16  N4  UNL     1      20.576   2.004  49.519  1.00  0.00    -0.163 NA
HETATM   17  N5  UNL     1      21.327   2.221  48.537  1.00  0.00    -0.166 NA
HETATM   18  C12 UNL     1      22.447   3.023  48.546  1.00  0.00     0.140 C 
HETATM   19  C13 UNL     1      23.620   3.094  49.106  1.00  0.00     0.024 C 
HETATM   20  C14 UNL     1      24.930   3.574  49.446  1.00  0.00     0.044 C 
HETATM   21  C15 UNL     1      25.991   3.371  50.146  1.00  0.00     0.136 C 
HETATM   22  H1  UNL     1      25.170   1.160  51.172  1.00  0.00     0.162 HD
HETATM   23  H6  UNL     1      24.432  -0.317  54.646  1.00  0.00     0.153 HD
HETATM   24  H15 UNL     1      18.730   2.879  51.248  1.00  0.00     0.320 HD
ENDROOT
BRANCH  21  25
HETATM   25  O2  UNL     1      26.929   4.361  49.923  1.00  0.00    -0.341 OA
BRANCH  25  26
HETATM   26  C16 UNL     1      27.055   4.980  48.659  1.00  0.00     0.216 C 
BRANCH  26  27
HETATM   27  C17 UNL     1      27.181   6.446  48.936  1.00  0.00    -0.009 A 
HETATM   28  C18 UNL     1      26.134   7.053  49.585  1.00  0.00     0.053 A 
HETATM   29  C19 UNL     1      26.101   8.397  49.904  1.00  0.00     0.117 A 
HETATM   30  F1  UNL     1      25.032   8.929  50.547  1.00  0.00    -0.206 F 
HETATM   31  C20 UNL     1      27.204   9.138  49.533  1.00  0.00     0.044 A 
HETATM   32  C21 UNL     1      28.264   8.536  48.880  1.00  0.00     0.027 A 
HETATM   33  C22 UNL     1      28.277   7.182  48.567  1.00  0.00     0.042 A 
HETATM   34 CL1  UNL     1      29.606   6.395  47.742  1.00  0.00    -0.084 Cl
ENDBRANCH  26  27
ENDBRANCH  25  26
ENDBRANCH  21  25
TORSDOF 3
ENDMDL
