MODEL 1
REMARK VINA RESULT:      -8.4      0.000      0.000
REMARK  4 active torsions:
REMARK  status: ('A' for Active; 'I' for Inactive)
REMARK    1  A    between atoms: C1_2  and  C2_3 
REMARK    2  A    between atoms: C5_7  and  C6_8 
REMARK    3  A    between atoms: N3_10  and  C8_11 
REMARK    4  A    between atoms: C8_11  and  C9_12 
ROOT
HETATM    1  C6  UNL     1      25.767   1.255  53.144  1.00  0.00     0.110 A 
HETATM    2  C7  UNL     1      24.530   0.984  52.618  1.00  0.00     0.148 A 
HETATM    3  N3  UNL     1      23.707   2.033  52.708  1.00  0.00    -0.256 N 
HETATM    4  N4  UNL     1      24.421   2.978  53.294  1.00  0.00    -0.066 NA
HETATM    5  N5  UNL     1      25.636   2.538  53.559  1.00  0.00    -0.130 NA
ENDROOT
BRANCH   1   6
HETATM    6  C5  UNL     1      27.020   0.549  53.326  1.00  0.00     0.025 A 
HETATM    7  C4  UNL     1      28.221   1.199  53.819  1.00  0.00     0.061 A 
HETATM    8  C3  UNL     1      29.250   0.135  53.853  1.00  0.00     0.044 A 
HETATM    9  N2  UNL     1      28.603   2.335  54.199  1.00  0.00    -0.299 NA
HETATM   10  C2  UNL     1      28.694  -0.986  53.428  1.00  0.00    -0.016 A 
HETATM   11  C15 UNL     1      27.301  -0.723  53.101  1.00  0.00     0.029 A 
HETATM   12  H4  UNL     1      28.159   3.234  54.291  1.00  0.00     0.187 HD
BRANCH  10  13
HETATM   13  C1  UNL     1      29.333  -2.297  53.293  1.00  0.00     0.118 C 
HETATM   14  N1  UNL     1      28.637  -3.355  53.124  1.00  0.00    -0.311 NA
HETATM   15  H1  UNL     1      27.617  -3.439  53.061  1.00  0.00     0.186 HD
ENDBRANCH  10  13
ENDBRANCH   1   6
BRANCH   3  16
HETATM   16  C8  UNL     1      22.331   2.082  52.248  1.00  0.00     0.190 C 
BRANCH  16  17
HETATM   17  C9  UNL     1      22.292   2.013  50.777  1.00  0.00    -0.038 A 
HETATM   18  C10 UNL     1      23.024   2.881  49.988  1.00  0.00     0.009 A 
HETATM   19  C11 UNL     1      23.014   2.848  48.602  1.00  0.00     0.001 A 
HETATM   20  C12 UNL     1      22.230   1.899  47.993  1.00  0.00     0.000 A 
HETATM   21  C13 UNL     1      21.481   1.011  48.748  1.00  0.00     0.001 A 
HETATM   22  C14 UNL     1      21.514   1.070  50.127  1.00  0.00     0.009 A 
ENDBRANCH  16  17
ENDBRANCH   3  16
TORSDOF 4
ENDMDL
MODEL 2
REMARK VINA RESULT:      -8.4      0.724      1.413
REMARK  4 active torsions:
REMARK  status: ('A' for Active; 'I' for Inactive)
REMARK    1  A    between atoms: C1_2  and  C2_3 
REMARK    2  A    between atoms: C5_7  and  C6_8 
REMARK    3  A    between atoms: N3_10  and  C8_11 
REMARK    4  A    between atoms: C8_11  and  C9_12 
ROOT
HETATM    1  C6  UNL     1      26.337   1.720  52.710  1.00  0.00     0.110 A 
HETATM    2  C7  UNL     1      25.807   2.281  51.576  1.00  0.00     0.148 A 
HETATM    3  N3  UNL     1      24.739   3.038  51.844  1.00  0.00    -0.256 N 
HETATM    4  N4  UNL     1      24.585   2.960  53.154  1.00  0.00    -0.066 NA
HETATM    5  N5  UNL     1      25.517   2.188  53.681  1.00  0.00    -0.130 NA
ENDROOT
BRANCH   1   6
HETATM    6  C5  UNL     1      27.445   0.846  53.044  1.00  0.00     0.025 A 
HETATM    7  C4  UNL     1      28.668   1.331  53.658  1.00  0.00     0.061 A 
HETATM    8  C3  UNL     1      29.519   0.131  53.824  1.00  0.00     0.044 A 
HETATM    9  N2  UNL     1      29.169   2.411  54.059  1.00  0.00    -0.299 NA
HETATM   10  C2  UNL     1      28.852  -0.911  53.358  1.00  0.00    -0.016 A 
HETATM   11  C15 UNL     1      27.558  -0.460  52.872  1.00  0.00     0.029 A 
HETATM   12  H4  UNL     1      28.857   3.368  54.086  1.00  0.00     0.187 HD
BRANCH  10  13
HETATM   13  C1  UNL     1      29.302  -2.305  53.318  1.00  0.00     0.118 C 
HETATM   14  N1  UNL     1      28.504  -3.245  52.982  1.00  0.00    -0.311 NA
HETATM   15  H1  UNL     1      27.517  -3.172  52.713  1.00  0.00     0.186 HD
ENDBRANCH  10  13
ENDBRANCH   1   6
BRANCH   3  16
HETATM   16  C8  UNL     1      23.946   3.771  50.875  1.00  0.00     0.190 C 
BRANCH  16  17
HETATM   17  C9  UNL     1      23.117   2.835  50.096  1.00  0.00    -0.038 A 
HETATM   18  C10 UNL     1      22.322   1.884  50.709  1.00  0.00     0.009 A 
HETATM   19  C11 UNL     1      21.527   0.986  50.012  1.00  0.00     0.001 A 
HETATM   20  C12 UNL     1      21.540   1.057  48.641  1.00  0.00     0.000 A 
HETATM   21  C13 UNL     1      22.322   1.995  47.988  1.00  0.00     0.001 A 
HETATM   22  C14 UNL     1      23.102   2.875  48.713  1.00  0.00     0.009 A 
ENDBRANCH  16  17
ENDBRANCH   3  16
TORSDOF 4
ENDMDL
MODEL 3
REMARK VINA RESULT:      -7.8      2.938      3.717
REMARK  4 active torsions:
REMARK  status: ('A' for Active; 'I' for Inactive)
REMARK    1  A    between atoms: C1_2  and  C2_3 
REMARK    2  A    between atoms: C5_7  and  C6_8 
REMARK    3  A    between atoms: N3_10  and  C8_11 
REMARK    4  A    between atoms: C8_11  and  C9_12 
ROOT
HETATM    1  C6  UNL     1      26.546   1.863  52.041  1.00  0.00     0.110 A 
HETATM    2  C7  UNL     1      26.321   2.486  50.840  1.00  0.00     0.148 A 
HETATM    3  N3  UNL     1      25.210   3.229  50.862  1.00  0.00    -0.256 N 
HETATM    4  N4  UNL     1      24.724   3.080  52.082  1.00  0.00    -0.066 NA
HETATM    5  N5  UNL     1      25.497   2.279  52.790  1.00  0.00    -0.130 NA
ENDROOT
BRANCH   1   6
HETATM    6  C5  UNL     1      27.541   0.970  52.603  1.00  0.00     0.025 A 
HETATM    7  C4  UNL     1      28.733   1.451  53.279  1.00  0.00     0.061 A 
HETATM    8  C3  UNL     1      29.462   0.231  53.690  1.00  0.00     0.044 A 
HETATM    9  N2  UNL     1      29.278   2.540  53.590  1.00  0.00    -0.299 NA
HETATM   10  C2  UNL     1      28.763  -0.818  53.293  1.00  0.00    -0.016 A 
HETATM   11  C15 UNL     1      27.564  -0.351  52.615  1.00  0.00     0.029 A 
HETATM   12  H4  UNL     1      29.042   3.510  53.458  1.00  0.00     0.187 HD
BRANCH  10  13
HETATM   13  C1  UNL     1      29.100  -2.231  53.482  1.00  0.00     0.118 C 
HETATM   14  N1  UNL     1      28.427  -3.151  52.905  1.00  0.00    -0.311 NA
HETATM   15  H1  UNL     1      27.621  -3.049  52.278  1.00  0.00     0.186 HD
ENDBRANCH  10  13
ENDBRANCH   1   6
BRANCH   3  16
HETATM   16  C8  UNL     1      24.686   4.014  49.760  1.00  0.00     0.190 C 
BRANCH  16  17
HETATM   17  C9  UNL     1      25.476   5.247  49.603  1.00  0.00    -0.038 A 
HETATM   18  C10 UNL     1      25.195   6.390  50.329  1.00  0.00     0.009 A 
HETATM   19  C11 UNL     1      25.915   7.569  50.210  1.00  0.00     0.001 A 
HETATM   20  C12 UNL     1      26.960   7.589  49.320  1.00  0.00     0.000 A 
HETATM   21  C13 UNL     1      27.275   6.465  48.574  1.00  0.00     0.001 A 
HETATM   22  C14 UNL     1      26.538   5.306  48.717  1.00  0.00     0.009 A 
ENDBRANCH  16  17
ENDBRANCH   3  16
TORSDOF 4
ENDMDL
MODEL 4
REMARK VINA RESULT:      -7.5      3.035      6.612
REMARK  4 active torsions:
REMARK  status: ('A' for Active; 'I' for Inactive)
REMARK    1  A    between atoms: C1_2  and  C2_3 
REMARK    2  A    between atoms: C5_7  and  C6_8 
REMARK    3  A    between atoms: N3_10  and  C8_11 
REMARK    4  A    between atoms: C8_11  and  C9_12 
ROOT
HETATM    1  C6  UNL     1      25.179   2.630  50.972  1.00  0.00     0.110 A 
HETATM    2  C7  UNL     1      25.685   1.769  51.912  1.00  0.00     0.148 A 
HETATM    3  N3  UNL     1      24.758   0.918  52.362  1.00  0.00    -0.256 N 
HETATM    4  N4  UNL     1      23.655   1.237  51.707  1.00  0.00    -0.066 NA
HETATM    5  N5  UNL     1      23.884   2.243  50.885  1.00  0.00    -0.130 NA
ENDROOT
BRANCH   1   6
HETATM    6  C5  UNL     1      25.674   3.723  50.159  1.00  0.00     0.025 A 
HETATM    7  C4  UNL     1      24.840   4.843  49.760  1.00  0.00     0.061 A 
HETATM    8  C3  UNL     1      25.724   5.716  48.954  1.00  0.00     0.044 A 
HETATM    9  N2  UNL     1      23.658   5.249  49.899  1.00  0.00    -0.299 NA
HETATM   10  C2  UNL     1      26.919   5.153  48.905  1.00  0.00    -0.016 A 
HETATM   11  C15 UNL     1      26.883   3.910  49.659  1.00  0.00     0.029 A 
HETATM   12  H4  UNL     1      22.843   4.897  50.373  1.00  0.00     0.187 HD
BRANCH  10  13
HETATM   13  C1  UNL     1      28.109   5.661  48.218  1.00  0.00     0.118 C 
HETATM   14  N1  UNL     1      29.108   6.109  48.877  1.00  0.00    -0.311 NA
HETATM   15  H1  UNL     1      29.219   6.175  49.895  1.00  0.00     0.186 HD
ENDBRANCH  10  13
ENDBRANCH   1   6
BRANCH   3  16
HETATM   16  C8  UNL     1      24.961  -0.118  53.357  1.00  0.00     0.190 C 
BRANCH  16  17
HETATM   17  C9  UNL     1      26.402  -0.306  53.599  1.00  0.00    -0.038 A 
HETATM   18  C10 UNL     1      27.066   0.373  54.604  1.00  0.00     0.009 A 
HETATM   19  C11 UNL     1      28.420   0.225  54.863  1.00  0.00     0.001 A 
HETATM   20  C12 UNL     1      29.127  -0.647  54.073  1.00  0.00     0.000 A 
HETATM   21  C13 UNL     1      28.499  -1.347  53.055  1.00  0.00     0.001 A 
HETATM   22  C14 UNL     1      27.149  -1.176  52.824  1.00  0.00     0.009 A 
ENDBRANCH  16  17
ENDBRANCH   3  16
TORSDOF 4
ENDMDL
MODEL 5
REMARK VINA RESULT:      -7.2      1.896      2.231
REMARK  4 active torsions:
REMARK  status: ('A' for Active; 'I' for Inactive)
REMARK    1  A    between atoms: C1_2  and  C2_3 
REMARK    2  A    between atoms: C5_7  and  C6_8 
REMARK    3  A    between atoms: N3_10  and  C8_11 
REMARK    4  A    between atoms: C8_11  and  C9_12 
ROOT
HETATM    1  C6  UNL     1      26.297   2.412  51.504  1.00  0.00     0.110 A 
HETATM    2  C7  UNL     1      24.979   2.790  51.501  1.00  0.00     0.148 A 
HETATM    3  N3  UNL     1      24.744   3.781  50.635  1.00  0.00    -0.256 N 
HETATM    4  N4  UNL     1      25.917   4.037  50.084  1.00  0.00    -0.066 NA
HETATM    5  N5  UNL     1      26.844   3.241  50.584  1.00  0.00    -0.130 NA
ENDROOT
BRANCH   1   6
HETATM    6  C5  UNL     1      27.120   1.439  52.196  1.00  0.00     0.025 A 
HETATM    7  C4  UNL     1      28.297   1.811  52.961  1.00  0.00     0.061 A 
HETATM    8  C3  UNL     1      28.831   0.537  53.493  1.00  0.00     0.044 A 
HETATM    9  N2  UNL     1      28.943   2.843  53.274  1.00  0.00    -0.299 NA
HETATM   10  C2  UNL     1      28.046  -0.441  53.076  1.00  0.00    -0.016 A 
HETATM   11  C15 UNL     1      26.979   0.127  52.268  1.00  0.00     0.029 A 
HETATM   12  H4  UNL     1      28.842   3.825  53.079  1.00  0.00     0.187 HD
BRANCH  10  13
HETATM   13  C1  UNL     1      28.187  -1.872  53.358  1.00  0.00     0.118 C 
HETATM   14  N1  UNL     1      27.550  -2.744  52.675  1.00  0.00    -0.311 NA
HETATM   15  H1  UNL     1      26.901  -2.588  51.895  1.00  0.00     0.186 HD
ENDBRANCH  10  13
ENDBRANCH   1   6
BRANCH   3  16
HETATM   16  C8  UNL     1      23.461   4.411  50.386  1.00  0.00     0.190 C 
BRANCH  16  17
HETATM   17  C9  UNL     1      22.964   4.025  49.055  1.00  0.00    -0.038 A 
HETATM   18  C10 UNL     1      22.685   4.966  48.080  1.00  0.00     0.009 A 
HETATM   19  C11 UNL     1      22.215   4.643  46.816  1.00  0.00     0.001 A 
HETATM   20  C12 UNL     1      22.022   3.314  46.530  1.00  0.00     0.000 A 
HETATM   21  C13 UNL     1      22.289   2.340  47.478  1.00  0.00     0.001 A 
HETATM   22  C14 UNL     1      22.756   2.696  48.728  1.00  0.00     0.009 A 
ENDBRANCH  16  17
ENDBRANCH   3  16
TORSDOF 4
ENDMDL
MODEL 6
REMARK VINA RESULT:      -7.1      2.452      6.837
REMARK  4 active torsions:
REMARK  status: ('A' for Active; 'I' for Inactive)
REMARK    1  A    between atoms: C1_2  and  C2_3 
REMARK    2  A    between atoms: C5_7  and  C6_8 
REMARK    3  A    between atoms: N3_10  and  C8_11 
REMARK    4  A    between atoms: C8_11  and  C9_12 
ROOT
HETATM    1  C6  UNL     1      24.503   2.345  51.500  1.00  0.00     0.110 A 
HETATM    2  C7  UNL     1      25.187   1.203  51.831  1.00  0.00     0.148 A 
HETATM    3  N3  UNL     1      24.630   0.570  52.868  1.00  0.00    -0.256 N 
HETATM    4  N4  UNL     1      23.587   1.311  53.200  1.00  0.00    -0.066 NA
HETATM    5  N5  UNL     1      23.497   2.360  52.406  1.00  0.00    -0.130 NA
ENDROOT
BRANCH   1   6
HETATM    6  C5  UNL     1      24.618   3.401  50.513  1.00  0.00     0.025 A 
HETATM    7  C4  UNL     1      25.894   3.975  50.124  1.00  0.00     0.061 A 
HETATM    8  C3  UNL     1      25.564   5.001  49.110  1.00  0.00     0.044 A 
HETATM    9  N2  UNL     1      27.116   3.850  50.391  1.00  0.00    -0.299 NA
HETATM   10  C2  UNL     1      24.252   5.006  48.945  1.00  0.00    -0.016 A 
HETATM   11  C15 UNL     1      23.667   4.005  49.822  1.00  0.00     0.029 A 
HETATM   12  H4  UNL     1      27.646   3.263  51.013  1.00  0.00     0.187 HD
BRANCH  10  13
HETATM   13  C1  UNL     1      23.476   5.858  48.041  1.00  0.00     0.118 C 
HETATM   14  N1  UNL     1      22.522   5.377  47.340  1.00  0.00    -0.311 NA
HETATM   15  H1  UNL     1      22.185   4.409  47.307  1.00  0.00     0.186 HD
ENDBRANCH  10  13
ENDBRANCH   1   6
BRANCH   3  16
HETATM   16  C8  UNL     1      25.101  -0.664  53.469  1.00  0.00     0.190 C 
BRANCH  16  17
HETATM   17  C9  UNL     1      26.555  -0.589  53.691  1.00  0.00    -0.038 A 
HETATM   18  C10 UNL     1      27.103   0.240  54.652  1.00  0.00     0.009 A 
HETATM   19  C11 UNL     1      28.466   0.339  54.891  1.00  0.00     0.001 A 
HETATM   20  C12 UNL     1      29.303  -0.435  54.126  1.00  0.00     0.000 A 
HETATM   21  C13 UNL     1      28.794  -1.280  53.153  1.00  0.00     0.001 A 
HETATM   22  C14 UNL     1      27.432  -1.354  52.941  1.00  0.00     0.009 A 
ENDBRANCH  16  17
ENDBRANCH   3  16
TORSDOF 4
ENDMDL
MODEL 7
REMARK VINA RESULT:      -7.0      1.404      2.711
REMARK  4 active torsions:
REMARK  status: ('A' for Active; 'I' for Inactive)
REMARK    1  A    between atoms: C1_2  and  C2_3 
REMARK    2  A    between atoms: C5_7  and  C6_8 
REMARK    3  A    between atoms: N3_10  and  C8_11 
REMARK    4  A    between atoms: C8_11  and  C9_12 
ROOT
HETATM    1  C6  UNL     1      24.924   0.233  52.949  1.00  0.00     0.110 A 
HETATM    2  C7  UNL     1      24.083   1.150  52.372  1.00  0.00     0.148 A 
HETATM    3  N3  UNL     1      22.807   0.756  52.415  1.00  0.00    -0.256 N 
HETATM    4  N4  UNL     1      22.832  -0.418  53.022  1.00  0.00    -0.066 NA
HETATM    5  N5  UNL     1      24.070  -0.742  53.343  1.00  0.00    -0.130 NA
ENDROOT
BRANCH   1   6
HETATM    6  C5  UNL     1      26.347   0.105  53.194  1.00  0.00     0.025 A 
HETATM    7  C4  UNL     1      27.066  -1.143  53.006  1.00  0.00     0.061 A 
HETATM    8  C3  UNL     1      28.470  -0.837  53.360  1.00  0.00     0.044 A 
HETATM    9  N2  UNL     1      26.841  -2.328  52.652  1.00  0.00    -0.299 NA
HETATM   10  C2  UNL     1      28.537   0.436  53.707  1.00  0.00    -0.016 A 
HETATM   11  C15 UNL     1      27.209   1.021  53.601  1.00  0.00     0.029 A 
HETATM   12  H4  UNL     1      26.021  -2.833  52.359  1.00  0.00     0.187 HD
BRANCH  10  13
HETATM   13  C1  UNL     1      29.726   1.178  54.133  1.00  0.00     0.118 C 
HETATM   14  N1  UNL     1      29.624   2.319  54.700  1.00  0.00    -0.311 NA
HETATM   15  H1  UNL     1      28.769   2.841  54.923  1.00  0.00     0.186 HD
ENDBRANCH  10  13
ENDBRANCH   1   6
BRANCH   3  16
HETATM   16  C8  UNL     1      21.668   1.489  51.894  1.00  0.00     0.190 C 
BRANCH  16  17
HETATM   17  C9  UNL     1      21.917   1.874  50.495  1.00  0.00    -0.038 A 
HETATM   18  C10 UNL     1      21.598   1.037  49.441  1.00  0.00     0.009 A 
HETATM   19  C11 UNL     1      21.817   1.362  48.111  1.00  0.00     0.001 A 
HETATM   20  C12 UNL     1      22.381   2.585  47.840  1.00  0.00     0.000 A 
HETATM   21  C13 UNL     1      22.714   3.453  48.867  1.00  0.00     0.001 A 
HETATM   22  C14 UNL     1      22.483   3.098  50.181  1.00  0.00     0.009 A 
ENDBRANCH  16  17
ENDBRANCH   3  16
TORSDOF 4
ENDMDL
MODEL 8
REMARK VINA RESULT:      -7.0      3.508      5.165
REMARK  4 active torsions:
REMARK  status: ('A' for Active; 'I' for Inactive)
REMARK    1  A    between atoms: C1_2  and  C2_3 
REMARK    2  A    between atoms: C5_7  and  C6_8 
REMARK    3  A    between atoms: N3_10  and  C8_11 
REMARK    4  A    between atoms: C8_11  and  C9_12 
ROOT
HETATM    1  C6  UNL     1      25.330   1.468  52.108  1.00  0.00     0.110 A 
HETATM    2  C7  UNL     1      25.275   1.954  50.826  1.00  0.00     0.148 A 
HETATM    3  N3  UNL     1      26.373   2.645  50.505  1.00  0.00    -0.256 N 
HETATM    4  N4  UNL     1      27.132   2.600  51.586  1.00  0.00    -0.066 NA
HETATM    5  N5  UNL     1      26.534   1.912  52.539  1.00  0.00    -0.130 NA
ENDROOT
BRANCH   1   6
HETATM    6  C5  UNL     1      24.480   0.682  52.981  1.00  0.00     0.025 A 
HETATM    7  C4  UNL     1      25.007  -0.311  53.901  1.00  0.00     0.061 A 
HETATM    8  C3  UNL     1      23.821  -0.868  54.589  1.00  0.00     0.044 A 
HETATM    9  N2  UNL     1      26.114  -0.794  54.249  1.00  0.00    -0.299 NA
HETATM   10  C2  UNL     1      22.748  -0.260  54.113  1.00  0.00    -0.016 A 
HETATM   11  C15 UNL     1      23.165   0.708  53.110  1.00  0.00     0.029 A 
HETATM   12  H4  UNL     1      27.070  -0.634  53.980  1.00  0.00     0.187 HD
BRANCH  10  13
HETATM   13  C1  UNL     1      21.355  -0.489  54.501  1.00  0.00     0.118 C 
HETATM   14  N1  UNL     1      20.949  -1.650  54.848  1.00  0.00    -0.311 NA
HETATM   15  H1  UNL     1      21.490  -2.519  54.902  1.00  0.00     0.186 HD
ENDBRANCH  10  13
ENDBRANCH   1   6
BRANCH   3  16
HETATM   16  C8  UNL     1      26.635   3.290  49.232  1.00  0.00     0.190 C 
BRANCH  16  17
HETATM   17  C9  UNL     1      26.445   4.745  49.359  1.00  0.00    -0.038 A 
HETATM   18  C10 UNL     1      27.268   5.646  48.708  1.00  0.00     0.009 A 
HETATM   19  C11 UNL     1      27.122   7.022  48.802  1.00  0.00     0.001 A 
HETATM   20  C12 UNL     1      26.103   7.501  49.587  1.00  0.00     0.000 A 
HETATM   21  C13 UNL     1      25.257   6.632  50.257  1.00  0.00     0.001 A 
HETATM   22  C14 UNL     1      25.429   5.267  50.141  1.00  0.00     0.009 A 
ENDBRANCH  16  17
ENDBRANCH   3  16
TORSDOF 4
ENDMDL
MODEL 9
REMARK VINA RESULT:      -6.9      2.071      2.859
REMARK  4 active torsions:
REMARK  status: ('A' for Active; 'I' for Inactive)
REMARK    1  A    between atoms: C1_2  and  C2_3 
REMARK    2  A    between atoms: C5_7  and  C6_8 
REMARK    3  A    between atoms: N3_10  and  C8_11 
REMARK    4  A    between atoms: C8_11  and  C9_12 
ROOT
HETATM    1  C6  UNL     1      24.993   1.514  52.815  1.00  0.00     0.110 A 
HETATM    2  C7  UNL     1      24.854   2.875  52.719  1.00  0.00     0.148 A 
HETATM    3  N3  UNL     1      23.576   3.240  52.583  1.00  0.00    -0.256 N 
HETATM    4  N4  UNL     1      22.895   2.107  52.591  1.00  0.00    -0.066 NA
HETATM    5  N5  UNL     1      23.713   1.080  52.726  1.00  0.00    -0.130 NA
ENDROOT
BRANCH   1   6
HETATM    6  C5  UNL     1      26.080   0.567  52.970  1.00  0.00     0.025 A 
HETATM    7  C4  UNL     1      27.331   0.910  53.621  1.00  0.00     0.061 A 
HETATM    8  C3  UNL     1      28.147  -0.324  53.566  1.00  0.00     0.044 A 
HETATM    9  N2  UNL     1      27.876   1.896  54.180  1.00  0.00    -0.299 NA
HETATM   10  C2  UNL     1      27.438  -1.256  52.955  1.00  0.00    -0.016 A 
HETATM   11  C15 UNL     1      26.148  -0.696  52.585  1.00  0.00     0.029 A 
HETATM   12  H4  UNL     1      27.594   2.843  54.370  1.00  0.00     0.187 HD
BRANCH  10  13
HETATM   13  C1  UNL     1      27.842  -2.636  52.675  1.00  0.00     0.118 C 
HETATM   14  N1  UNL     1      28.703  -3.232  53.407  1.00  0.00    -0.311 NA
HETATM   15  H1  UNL     1      29.197  -2.866  54.229  1.00  0.00     0.186 HD
ENDBRANCH  10  13
ENDBRANCH   1   6
BRANCH   3  16
HETATM   16  C8  UNL     1      23.083   4.598  52.456  1.00  0.00     0.190 C 
BRANCH  16  17
HETATM   17  C9  UNL     1      23.570   5.192  51.199  1.00  0.00    -0.038 A 
HETATM   18  C10 UNL     1      23.342   4.591  49.974  1.00  0.00     0.009 A 
HETATM   19  C11 UNL     1      23.784   5.118  48.769  1.00  0.00     0.001 A 
HETATM   20  C12 UNL     1      24.482   6.299  48.809  1.00  0.00     0.000 A 
HETATM   21  C13 UNL     1      24.731   6.933  50.016  1.00  0.00     0.001 A 
HETATM   22  C14 UNL     1      24.277   6.382  51.197  1.00  0.00     0.009 A 
ENDBRANCH  16  17
ENDBRANCH   3  16
TORSDOF 4
ENDMDL
