MODEL 1
REMARK VINA RESULT:      -7.9      0.000      0.000
REMARK  7 active torsions:
REMARK  status: ('A' for Active; 'I' for Inactive)
REMARK    1  A    between atoms: N1_1  and  C1_2 
REMARK    2  A    between atoms: C5_8  and  C6_9 
REMARK    3  A    between atoms: C9_12  and  O1_13 
REMARK    4  A    between atoms: O1_13  and  C10_14 
REMARK    5  A    between atoms: N5_21  and  C16_22 
REMARK    6  A    between atoms: C16_22  and  C17_23 
REMARK    7  A    between atoms: C17_23  and  N6_24 
ROOT
HETATM    1  C1  UNL     1      26.856   1.513  53.699  1.00  0.00     0.139 A 
HETATM    2  N2  UNL     1      27.254   0.846  54.797  1.00  0.00    -0.224 NA
HETATM    3  C2  UNL     1      26.424  -0.118  55.294  1.00  0.00     0.237 A 
HETATM    4  N3  UNL     1      25.221  -0.422  54.723  1.00  0.00    -0.222 NA
HETATM    5  C3  UNL     1      24.784   0.227  53.620  1.00  0.00     0.164 A 
HETATM    6  C4  UNL     1      25.644   1.192  53.143  1.00  0.00     0.088 A 
HETATM    7  C5  UNL     1      25.111   1.794  52.026  1.00  0.00     0.105 A 
HETATM    8  N4  UNL     1      23.911   1.172  51.843  1.00  0.00    -0.169 NA
HETATM    9  N5  UNL     1      23.731   0.248  52.792  1.00  0.00    -0.249 N 
ENDROOT
BRANCH   7  10
HETATM   10  C6  UNL     1      25.464   2.840  51.080  1.00  0.00    -0.004 A 
HETATM   11  C7  UNL     1      24.676   3.998  51.103  1.00  0.00     0.016 A 
HETATM   12  C8  UNL     1      24.930   5.055  50.217  1.00  0.00     0.037 A 
HETATM   13  C9  UNL     1      25.965   4.975  49.299  1.00  0.00     0.069 A 
HETATM   14  C14 UNL     1      26.731   3.835  49.285  1.00  0.00     0.037 A 
HETATM   15  C15 UNL     1      26.477   2.819  50.148  1.00  0.00     0.016 A 
BRANCH  13  16
HETATM   16  O1  UNL     1      26.018   6.128  48.540  1.00  0.00    -0.342 OA
BRANCH  16  17
HETATM   17  C10 UNL     1      27.060   7.042  48.657  1.00  0.00     0.155 A 
HETATM   18  C11 UNL     1      28.333   6.649  47.987  1.00  0.00     0.002 A 
HETATM   19  C12 UNL     1      28.352   7.597  47.060  1.00  0.00    -0.025 A 
HETATM   20  C13 UNL     1      27.087   8.127  47.592  1.00  0.00     0.063 A 
ENDBRANCH  16  17
ENDBRANCH  13  16
ENDBRANCH   7  10
BRANCH   1  21
HETATM   21  N1  UNL     1      27.723   2.522  53.205  1.00  0.00    -0.383 N 
HETATM   22  H1  UNL     1      27.624   3.531  52.957  1.00  0.00     0.157 HD
HETATM   23  H2  UNL     1      28.743   2.414  52.975  1.00  0.00     0.157 HD
ENDBRANCH   1  21
BRANCH   9  24
HETATM   24  C16 UNL     1      22.601  -0.636  52.969  1.00  0.00     0.177 C 
BRANCH  24  25
HETATM   25  C17 UNL     1      21.723  -0.148  54.123  1.00  0.00     0.204 C 
BRANCH  25  26
HETATM   26  N6  UNL     1      21.420  -1.268  54.979  1.00  0.00    -0.139 NA
HETATM   27  O2  UNL     1      22.273  -1.987  55.376  1.00  0.00    -0.067 OA
ENDBRANCH  25  26
ENDBRANCH  24  25
ENDBRANCH   9  24
TORSDOF 7
ENDMDL
MODEL 2
REMARK VINA RESULT:      -7.6      0.891      1.215
REMARK  7 active torsions:
REMARK  status: ('A' for Active; 'I' for Inactive)
REMARK    1  A    between atoms: N1_1  and  C1_2 
REMARK    2  A    between atoms: C5_8  and  C6_9 
REMARK    3  A    between atoms: C9_12  and  O1_13 
REMARK    4  A    between atoms: O1_13  and  C10_14 
REMARK    5  A    between atoms: N5_21  and  C16_22 
REMARK    6  A    between atoms: C16_22  and  C17_23 
REMARK    7  A    between atoms: C17_23  and  N6_24 
ROOT
HETATM    1  C1  UNL     1      27.381   1.750  53.532  1.00  0.00     0.139 A 
HETATM    2  N2  UNL     1      27.964   1.121  54.567  1.00  0.00    -0.224 NA
HETATM    3  C2  UNL     1      27.294   0.078  55.139  1.00  0.00     0.237 A 
HETATM    4  N3  UNL     1      26.070  -0.342  54.701  1.00  0.00    -0.222 NA
HETATM    5  C3  UNL     1      25.449   0.266  53.664  1.00  0.00     0.164 A 
HETATM    6  C4  UNL     1      26.152   1.314  53.109  1.00  0.00     0.088 A 
HETATM    7  C5  UNL     1      25.440   1.865  52.069  1.00  0.00     0.105 A 
HETATM    8  N4  UNL     1      24.294   1.127  52.011  1.00  0.00    -0.169 NA
HETATM    9  N5  UNL     1      24.313   0.185  52.960  1.00  0.00    -0.249 N 
ENDROOT
BRANCH   7  10
HETATM   10  C6  UNL     1      25.580   2.944  51.106  1.00  0.00    -0.004 A 
HETATM   11  C7  UNL     1      24.592   3.937  51.129  1.00  0.00     0.016 A 
HETATM   12  C8  UNL     1      24.633   5.010  50.227  1.00  0.00     0.037 A 
HETATM   13  C9  UNL     1      25.652   5.110  49.292  1.00  0.00     0.069 A 
HETATM   14  C14 UNL     1      26.615   4.131  49.278  1.00  0.00     0.037 A 
HETATM   15  C15 UNL     1      26.565   3.097  50.156  1.00  0.00     0.016 A 
BRANCH  13  16
HETATM   16  O1  UNL     1      25.479   6.243  48.521  1.00  0.00    -0.342 OA
BRANCH  16  17
HETATM   17  C10 UNL     1      26.368   7.312  48.568  1.00  0.00     0.155 A 
HETATM   18  C11 UNL     1      25.802   8.633  48.170  1.00  0.00     0.002 A 
HETATM   19  C12 UNL     1      25.892   9.233  49.349  1.00  0.00    -0.025 A 
HETATM   20  C13 UNL     1      26.469   8.005  49.918  1.00  0.00     0.063 A 
ENDBRANCH  16  17
ENDBRANCH  13  16
ENDBRANCH   7  10
BRANCH   1  21
HETATM   21  N1  UNL     1      28.085   2.842  52.960  1.00  0.00    -0.383 N 
HETATM   22  H1  UNL     1      27.983   3.881  52.975  1.00  0.00     0.157 HD
HETATM   23  H2  UNL     1      28.935   2.787  52.345  1.00  0.00     0.157 HD
ENDBRANCH   1  21
BRANCH   9  24
HETATM   24  C16 UNL     1      23.303  -0.807  53.248  1.00  0.00     0.177 C 
BRANCH  24  25
HETATM   25  C17 UNL     1      22.239  -0.224  54.181  1.00  0.00     0.204 C 
BRANCH  25  26
HETATM   26  N6  UNL     1      21.836  -1.243  55.117  1.00  0.00    -0.139 NA
HETATM   27  O2  UNL     1      22.628  -1.967  55.616  1.00  0.00    -0.067 OA
ENDBRANCH  25  26
ENDBRANCH  24  25
ENDBRANCH   9  24
TORSDOF 7
ENDMDL
MODEL 3
REMARK VINA RESULT:      -7.5      3.651      6.498
REMARK  7 active torsions:
REMARK  status: ('A' for Active; 'I' for Inactive)
REMARK    1  A    between atoms: N1_1  and  C1_2 
REMARK    2  A    between atoms: C5_8  and  C6_9 
REMARK    3  A    between atoms: C9_12  and  O1_13 
REMARK    4  A    between atoms: O1_13  and  C10_14 
REMARK    5  A    between atoms: N5_21  and  C16_22 
REMARK    6  A    between atoms: C16_22  and  C17_23 
REMARK    7  A    between atoms: C17_23  and  N6_24 
ROOT
HETATM    1  C1  UNL     1      25.585   4.550  50.013  1.00  0.00     0.139 A 
HETATM    2  N2  UNL     1      25.622   5.552  49.118  1.00  0.00    -0.224 NA
HETATM    3  C2  UNL     1      24.441   6.151  48.781  1.00  0.00     0.237 A 
HETATM    4  N3  UNL     1      23.242   5.771  49.316  1.00  0.00    -0.222 NA
HETATM    5  C3  UNL     1      23.163   4.766  50.218  1.00  0.00     0.164 A 
HETATM    6  C4  UNL     1      24.371   4.184  50.537  1.00  0.00     0.088 A 
HETATM    7  C5  UNL     1      24.185   3.176  51.455  1.00  0.00     0.105 A 
HETATM    8  N4  UNL     1      22.840   3.164  51.680  1.00  0.00    -0.169 NA
HETATM    9  N5  UNL     1      22.248   4.109  50.943  1.00  0.00    -0.249 N 
ENDROOT
BRANCH   7  10
HETATM   10  C6  UNL     1      24.985   2.200  52.176  1.00  0.00    -0.004 A 
HETATM   11  C7  UNL     1      25.272   2.492  53.515  1.00  0.00     0.016 A 
HETATM   12  C8  UNL     1      26.051   1.618  54.288  1.00  0.00     0.037 A 
HETATM   13  C9  UNL     1      26.554   0.448  53.741  1.00  0.00     0.069 A 
HETATM   14  C14 UNL     1      26.267   0.172  52.427  1.00  0.00     0.037 A 
HETATM   15  C15 UNL     1      25.512   1.025  51.689  1.00  0.00     0.016 A 
BRANCH  13  16
HETATM   16  O1  UNL     1      27.285  -0.243  54.688  1.00  0.00    -0.342 OA
BRANCH  16  17
HETATM   17  C10 UNL     1      28.655  -0.056  54.845  1.00  0.00     0.155 A 
HETATM   18  C11 UNL     1      29.521  -0.943  54.014  1.00  0.00     0.002 A 
HETATM   19  C12 UNL     1      30.049  -0.006  53.239  1.00  0.00    -0.025 A 
HETATM   20  C13 UNL     1      29.265   1.013  53.953  1.00  0.00     0.063 A 
ENDBRANCH  16  17
ENDBRANCH  13  16
ENDBRANCH   7  10
BRANCH   1  21
HETATM   21  N1  UNL     1      26.819   3.929  50.339  1.00  0.00    -0.383 N 
HETATM   22  H1  UNL     1      27.717   3.753  49.838  1.00  0.00     0.157 HD
HETATM   23  H2  UNL     1      27.073   3.482  51.256  1.00  0.00     0.157 HD
ENDBRANCH   1  21
BRANCH   9  24
HETATM   24  C16 UNL     1      20.843   4.437  50.879  1.00  0.00     0.177 C 
BRANCH  24  25
HETATM   25  C17 UNL     1      19.998   3.163  50.955  1.00  0.00     0.204 C 
BRANCH  25  26
HETATM   26  N6  UNL     1      19.132   3.250  52.104  1.00  0.00    -0.139 NA
HETATM   27  O2  UNL     1      18.074   3.777  52.038  1.00  0.00    -0.067 OA
ENDBRANCH  25  26
ENDBRANCH  24  25
ENDBRANCH   9  24
TORSDOF 7
ENDMDL
MODEL 4
REMARK VINA RESULT:      -7.5      1.870      3.560
REMARK  7 active torsions:
REMARK  status: ('A' for Active; 'I' for Inactive)
REMARK    1  A    between atoms: N1_1  and  C1_2 
REMARK    2  A    between atoms: C5_8  and  C6_9 
REMARK    3  A    between atoms: C9_12  and  O1_13 
REMARK    4  A    between atoms: O1_13  and  C10_14 
REMARK    5  A    between atoms: N5_21  and  C16_22 
REMARK    6  A    between atoms: C16_22  and  C17_23 
REMARK    7  A    between atoms: C17_23  and  N6_24 
ROOT
HETATM    1  C1  UNL     1      22.955   0.892  51.811  1.00  0.00     0.139 A 
HETATM    2  N2  UNL     1      22.086  -0.056  52.202  1.00  0.00    -0.224 NA
HETATM    3  C2  UNL     1      22.440  -0.849  53.256  1.00  0.00     0.237 A 
HETATM    4  N3  UNL     1      23.628  -0.713  53.916  1.00  0.00    -0.222 NA
HETATM    5  C3  UNL     1      24.529   0.227  53.552  1.00  0.00     0.164 A 
HETATM    6  C4  UNL     1      24.142   1.011  52.486  1.00  0.00     0.088 A 
HETATM    7  C5  UNL     1      25.123   1.930  52.192  1.00  0.00     0.105 A 
HETATM    8  N4  UNL     1      26.108   1.681  53.102  1.00  0.00    -0.169 NA
HETATM    9  N5  UNL     1      25.743   0.672  53.900  1.00  0.00    -0.249 N 
ENDROOT
BRANCH   7  10
HETATM   10  C6  UNL     1      25.361   2.998  51.236  1.00  0.00    -0.004 A 
HETATM   11  C7  UNL     1      26.427   2.815  50.344  1.00  0.00     0.016 A 
HETATM   12  C8  UNL     1      26.744   3.799  49.396  1.00  0.00     0.037 A 
HETATM   13  C9  UNL     1      26.011   4.973  49.322  1.00  0.00     0.069 A 
HETATM   14  C14 UNL     1      24.969   5.141  50.201  1.00  0.00     0.037 A 
HETATM   15  C15 UNL     1      24.670   4.183  51.114  1.00  0.00     0.016 A 
BRANCH  13  16
HETATM   16  O1  UNL     1      26.508   5.781  48.318  1.00  0.00    -0.342 OA
BRANCH  16  17
HETATM   17  C10 UNL     1      27.500   6.727  48.554  1.00  0.00     0.155 A 
HETATM   18  C11 UNL     1      28.871   6.340  48.112  1.00  0.00     0.002 A 
HETATM   19  C12 UNL     1      29.018   7.248  47.156  1.00  0.00    -0.025 A 
HETATM   20  C13 UNL     1      27.673   7.766  47.458  1.00  0.00     0.063 A 
ENDBRANCH  16  17
ENDBRANCH  13  16
ENDBRANCH   7  10
BRANCH   1  21
HETATM   21  N1  UNL     1      22.579   1.696  50.703  1.00  0.00    -0.383 N 
HETATM   22  H1  UNL     1      21.984   1.562  49.855  1.00  0.00     0.157 HD
HETATM   23  H2  UNL     1      22.870   2.690  50.522  1.00  0.00     0.157 HD
ENDBRANCH   1  21
BRANCH   9  24
HETATM   24  C16 UNL     1      26.487   0.091  54.994  1.00  0.00     0.177 C 
BRANCH  24  25
HETATM   25  C17 UNL     1      27.990   0.214  54.738  1.00  0.00     0.204 C 
BRANCH  25  26
HETATM   26  N6  UNL     1      28.437  -0.959  54.030  1.00  0.00    -0.139 NA
HETATM   27  O2  UNL     1      29.540  -1.039  53.608  1.00  0.00    -0.067 OA
ENDBRANCH  25  26
ENDBRANCH  24  25
ENDBRANCH   9  24
TORSDOF 7
ENDMDL
MODEL 5
REMARK VINA RESULT:      -7.4      2.417      7.641
REMARK  7 active torsions:
REMARK  status: ('A' for Active; 'I' for Inactive)
REMARK    1  A    between atoms: N1_1  and  C1_2 
REMARK    2  A    between atoms: C5_8  and  C6_9 
REMARK    3  A    between atoms: C9_12  and  O1_13 
REMARK    4  A    between atoms: O1_13  and  C10_14 
REMARK    5  A    between atoms: N5_21  and  C16_22 
REMARK    6  A    between atoms: C16_22  and  C17_23 
REMARK    7  A    between atoms: C17_23  and  N6_24 
ROOT
HETATM    1  C1  UNL     1      26.701   0.664  54.262  1.00  0.00     0.139 A 
HETATM    2  N2  UNL     1      27.982   0.812  54.644  1.00  0.00    -0.224 NA
HETATM    3  C2  UNL     1      28.790   1.598  53.873  1.00  0.00     0.237 A 
HETATM    4  N3  UNL     1      28.348   2.229  52.745  1.00  0.00    -0.222 NA
HETATM    5  C3  UNL     1      27.068   2.104  52.327  1.00  0.00     0.164 A 
HETATM    6  C4  UNL     1      26.278   1.306  53.126  1.00  0.00     0.088 A 
HETATM    7  C5  UNL     1      25.002   1.239  52.617  1.00  0.00     0.105 A 
HETATM    8  N4  UNL     1      25.041   2.014  51.495  1.00  0.00    -0.169 NA
HETATM    9  N5  UNL     1      26.268   2.519  51.336  1.00  0.00    -0.249 N 
ENDROOT
BRANCH   7  10
HETATM   10  C6  UNL     1      23.735   0.603  52.937  1.00  0.00    -0.004 A 
HETATM   11  C7  UNL     1      22.611   1.437  52.992  1.00  0.00     0.016 A 
HETATM   12  C8  UNL     1      21.348   0.917  53.309  1.00  0.00     0.037 A 
HETATM   13  C9  UNL     1      21.185  -0.434  53.576  1.00  0.00     0.069 A 
HETATM   14  C14 UNL     1      22.294  -1.242  53.519  1.00  0.00     0.037 A 
HETATM   15  C15 UNL     1      23.512  -0.728  53.211  1.00  0.00     0.016 A 
BRANCH  13  16
HETATM   16  O1  UNL     1      19.861  -0.706  53.860  1.00  0.00    -0.342 OA
BRANCH  16  17
HETATM   17  C10 UNL     1      19.016  -1.311  52.936  1.00  0.00     0.155 A 
HETATM   18  C11 UNL     1      17.777  -1.918  53.503  1.00  0.00     0.002 A 
HETATM   19  C12 UNL     1      16.898  -1.106  52.934  1.00  0.00    -0.025 A 
HETATM   20  C13 UNL     1      18.003  -0.382  52.285  1.00  0.00     0.063 A 
ENDBRANCH  16  17
ENDBRANCH  13  16
ENDBRANCH   7  10
BRANCH   1  21
HETATM   21  N1  UNL     1      25.879  -0.169  55.065  1.00  0.00    -0.383 N 
HETATM   22  H1  UNL     1      26.011  -1.065  55.584  1.00  0.00     0.157 HD
HETATM   23  H2  UNL     1      24.868  -0.008  55.306  1.00  0.00     0.157 HD
ENDBRANCH   1  21
BRANCH   9  24
HETATM   24  C16 UNL     1      26.743   3.387  50.283  1.00  0.00     0.177 C 
BRANCH  24  25
HETATM   25  C17 UNL     1      25.561   4.016  49.542  1.00  0.00     0.204 C 
BRANCH  25  26
HETATM   26  N6  UNL     1      25.300   5.317  50.104  1.00  0.00    -0.139 NA
HETATM   27  O2  UNL     1      24.469   5.473  50.932  1.00  0.00    -0.067 OA
ENDBRANCH  25  26
ENDBRANCH  24  25
ENDBRANCH   9  24
TORSDOF 7
ENDMDL
MODEL 6
REMARK VINA RESULT:      -7.2      2.234      3.943
REMARK  7 active torsions:
REMARK  status: ('A' for Active; 'I' for Inactive)
REMARK    1  A    between atoms: N1_1  and  C1_2 
REMARK    2  A    between atoms: C5_8  and  C6_9 
REMARK    3  A    between atoms: C9_12  and  O1_13 
REMARK    4  A    between atoms: O1_13  and  C10_14 
REMARK    5  A    between atoms: N5_21  and  C16_22 
REMARK    6  A    between atoms: C16_22  and  C17_23 
REMARK    7  A    between atoms: C17_23  and  N6_24 
ROOT
HETATM    1  C1  UNL     1      21.222   0.931  53.102  1.00  0.00     0.139 A 
HETATM    2  N2  UNL     1      20.439  -0.011  53.656  1.00  0.00    -0.224 NA
HETATM    3  C2  UNL     1      21.049  -1.064  54.277  1.00  0.00     0.237 A 
HETATM    4  N3  UNL     1      22.407  -1.189  54.353  1.00  0.00    -0.222 NA
HETATM    5  C3  UNL     1      23.229  -0.263  53.807  1.00  0.00     0.164 A 
HETATM    6  C4  UNL     1      22.583   0.786  53.189  1.00  0.00     0.088 A 
HETATM    7  C5  UNL     1      23.500   1.667  52.666  1.00  0.00     0.105 A 
HETATM    8  N4  UNL     1      24.712   1.126  52.981  1.00  0.00    -0.169 NA
HETATM    9  N5  UNL     1      24.537  -0.015  53.656  1.00  0.00    -0.249 N 
ENDROOT
BRANCH   7  10
HETATM   10  C6  UNL     1      23.508   2.914  51.920  1.00  0.00    -0.004 A 
HETATM   11  C7  UNL     1      23.610   2.810  50.526  1.00  0.00     0.016 A 
HETATM   12  C8  UNL     1      23.641   3.959  49.723  1.00  0.00     0.037 A 
HETATM   13  C9  UNL     1      23.574   5.222  50.290  1.00  0.00     0.069 A 
HETATM   14  C14 UNL     1      23.475   5.312  51.657  1.00  0.00     0.037 A 
HETATM   15  C15 UNL     1      23.444   4.193  52.426  1.00  0.00     0.016 A 
BRANCH  13  16
HETATM   16  O1  UNL     1      23.622   6.189  49.305  1.00  0.00    -0.342 OA
BRANCH  16  17
HETATM   17  C10 UNL     1      24.655   7.118  49.233  1.00  0.00     0.155 A 
HETATM   18  C11 UNL     1      26.026   6.570  49.448  1.00  0.00     0.002 A 
HETATM   19  C12 UNL     1      26.501   6.783  48.228  1.00  0.00    -0.025 A 
HETATM   20  C13 UNL     1      25.205   7.361  47.836  1.00  0.00     0.063 A 
ENDBRANCH  16  17
ENDBRANCH  13  16
ENDBRANCH   7  10
BRANCH   1  21
HETATM   21  N1  UNL     1      20.571   2.010  52.447  1.00  0.00    -0.383 N 
HETATM   22  H1  UNL     1      20.706   2.523  51.548  1.00  0.00     0.157 HD
HETATM   23  H2  UNL     1      19.737   2.545  52.798  1.00  0.00     0.157 HD
ENDBRANCH   1  21
BRANCH   9  24
HETATM   24  C16 UNL     1      25.549  -0.904  54.177  1.00  0.00     0.177 C 
BRANCH  24  25
HETATM   25  C17 UNL     1      26.729  -0.991  53.207  1.00  0.00     0.204 C 
BRANCH  25  26
HETATM   26  N6  UNL     1      27.954  -0.845  53.953  1.00  0.00    -0.139 NA
HETATM   27  O2  UNL     1      27.970  -0.314  55.011  1.00  0.00    -0.067 OA
ENDBRANCH  25  26
ENDBRANCH  24  25
ENDBRANCH   9  24
TORSDOF 7
ENDMDL
MODEL 7
REMARK VINA RESULT:      -7.2      3.136      7.912
REMARK  7 active torsions:
REMARK  status: ('A' for Active; 'I' for Inactive)
REMARK    1  A    between atoms: N1_1  and  C1_2 
REMARK    2  A    between atoms: C5_8  and  C6_9 
REMARK    3  A    between atoms: C9_12  and  O1_13 
REMARK    4  A    between atoms: O1_13  and  C10_14 
REMARK    5  A    between atoms: N5_21  and  C16_22 
REMARK    6  A    between atoms: C16_22  and  C17_23 
REMARK    7  A    between atoms: C17_23  and  N6_24 
ROOT
HETATM    1  C1  UNL     1      24.246   2.549  51.219  1.00  0.00     0.139 A 
HETATM    2  N2  UNL     1      25.041   3.385  50.528  1.00  0.00    -0.224 NA
HETATM    3  C2  UNL     1      26.391   3.187  50.600  1.00  0.00     0.237 A 
HETATM    4  N3  UNL     1      26.951   2.184  51.339  1.00  0.00    -0.222 NA
HETATM    5  C3  UNL     1      26.186   1.324  52.048  1.00  0.00     0.164 A 
HETATM    6  C4  UNL     1      24.829   1.550  51.954  1.00  0.00     0.088 A 
HETATM    7  C5  UNL     1      24.141   0.629  52.710  1.00  0.00     0.105 A 
HETATM    8  N4  UNL     1      25.112  -0.155  53.262  1.00  0.00    -0.169 NA
HETATM    9  N5  UNL     1      26.316   0.267  52.862  1.00  0.00    -0.249 N 
ENDROOT
BRANCH   7  10
HETATM   10  C6  UNL     1      22.764   0.311  53.049  1.00  0.00    -0.004 A 
HETATM   11  C7  UNL     1      21.876   0.150  51.978  1.00  0.00     0.016 A 
HETATM   12  C8  UNL     1      20.523  -0.142  52.206  1.00  0.00     0.037 A 
HETATM   13  C9  UNL     1      20.036  -0.275  53.497  1.00  0.00     0.069 A 
HETATM   14  C14 UNL     1      20.916  -0.115  54.539  1.00  0.00     0.037 A 
HETATM   15  C15 UNL     1      22.223   0.167  54.307  1.00  0.00     0.016 A 
BRANCH  13  16
HETATM   16  O1  UNL     1      18.685  -0.560  53.467  1.00  0.00    -0.342 OA
BRANCH  16  17
HETATM   17  C10 UNL     1      18.017  -0.854  52.283  1.00  0.00     0.155 A 
HETATM   18  C11 UNL     1      16.794  -1.695  52.430  1.00  0.00     0.002 A 
HETATM   19  C12 UNL     1      15.903  -0.789  52.050  1.00  0.00    -0.025 A 
HETATM   20  C13 UNL     1      16.991   0.181  51.849  1.00  0.00     0.063 A 
ENDBRANCH  16  17
ENDBRANCH  13  16
ENDBRANCH   7  10
BRANCH   1  21
HETATM   21  N1  UNL     1      22.847   2.779  51.146  1.00  0.00    -0.383 N 
HETATM   22  H1  UNL     1      22.193   3.157  50.425  1.00  0.00     0.157 HD
HETATM   23  H2  UNL     1      22.140   2.584  51.898  1.00  0.00     0.157 HD
ENDBRANCH   1  21
BRANCH   9  24
HETATM   24  C16 UNL     1      27.609  -0.277  53.207  1.00  0.00     0.177 C 
BRANCH  24  25
HETATM   25  C17 UNL     1      28.055   0.246  54.574  1.00  0.00     0.204 C 
BRANCH  25  26
HETATM   26  N6  UNL     1      28.937   1.368  54.375  1.00  0.00    -0.139 NA
HETATM   27  O2  UNL     1      28.534   2.481  54.411  1.00  0.00    -0.067 OA
ENDBRANCH  25  26
ENDBRANCH  24  25
ENDBRANCH   9  24
TORSDOF 7
ENDMDL
MODEL 8
REMARK VINA RESULT:      -7.1      1.439      1.910
REMARK  7 active torsions:
REMARK  status: ('A' for Active; 'I' for Inactive)
REMARK    1  A    between atoms: N1_1  and  C1_2 
REMARK    2  A    between atoms: C5_8  and  C6_9 
REMARK    3  A    between atoms: C9_12  and  O1_13 
REMARK    4  A    between atoms: O1_13  and  C10_14 
REMARK    5  A    between atoms: N5_21  and  C16_22 
REMARK    6  A    between atoms: C16_22  and  C17_23 
REMARK    7  A    between atoms: C17_23  and  N6_24 
ROOT
HETATM    1  C1  UNL     1      26.457   1.564  52.489  1.00  0.00     0.139 A 
HETATM    2  N2  UNL     1      27.266   0.648  53.050  1.00  0.00    -0.224 NA
HETATM    3  C2  UNL     1      26.698  -0.500  53.523  1.00  0.00     0.237 A 
HETATM    4  N3  UNL     1      25.357  -0.747  53.446  1.00  0.00    -0.222 NA
HETATM    5  C3  UNL     1      24.510   0.149  52.890  1.00  0.00     0.164 A 
HETATM    6  C4  UNL     1      25.113   1.297  52.423  1.00  0.00     0.088 A 
HETATM    7  C5  UNL     1      24.172   2.142  51.882  1.00  0.00     0.105 A 
HETATM    8  N4  UNL     1      22.990   1.479  52.035  1.00  0.00    -0.169 NA
HETATM    9  N5  UNL     1      23.204   0.302  52.632  1.00  0.00    -0.249 N 
ENDROOT
BRANCH   7  10
HETATM   10  C6  UNL     1      24.119   3.451  51.252  1.00  0.00    -0.004 A 
HETATM   11  C7  UNL     1      24.350   3.492  49.871  1.00  0.00     0.016 A 
HETATM   12  C8  UNL     1      24.336   4.711  49.178  1.00  0.00     0.037 A 
HETATM   13  C9  UNL     1      24.093   5.902  49.846  1.00  0.00     0.069 A 
HETATM   14  C14 UNL     1      23.868   5.849  51.200  1.00  0.00     0.037 A 
HETATM   15  C15 UNL     1      23.884   4.664  51.860  1.00  0.00     0.016 A 
BRANCH  13  16
HETATM   16  O1  UNL     1      24.130   6.960  48.958  1.00  0.00    -0.342 OA
BRANCH  16  17
HETATM   17  C10 UNL     1      24.865   6.909  47.779  1.00  0.00     0.155 A 
HETATM   18  C11 UNL     1      24.679   8.069  46.859  1.00  0.00     0.002 A 
HETATM   19  C12 UNL     1      25.904   8.568  46.942  1.00  0.00    -0.025 A 
HETATM   20  C13 UNL     1      26.269   7.486  47.871  1.00  0.00     0.063 A 
ENDBRANCH  16  17
ENDBRANCH  13  16
ENDBRANCH   7  10
BRANCH   1  21
HETATM   21  N1  UNL     1      27.061   2.759  52.018  1.00  0.00    -0.383 N 
HETATM   22  H1  UNL     1      27.967   3.250  52.186  1.00  0.00     0.157 HD
HETATM   23  H2  UNL     1      26.649   3.441  51.333  1.00  0.00     0.157 HD
ENDBRANCH   1  21
BRANCH   9  24
HETATM   24  C16 UNL     1      22.232  -0.708  52.982  1.00  0.00     0.177 C 
BRANCH  24  25
HETATM   25  C17 UNL     1      21.696  -0.460  54.394  1.00  0.00     0.204 C 
BRANCH  25  26
HETATM   26  N6  UNL     1      21.993  -1.610  55.210  1.00  0.00    -0.139 NA
HETATM   27  O2  UNL     1      23.016  -1.698  55.800  1.00  0.00    -0.067 OA
ENDBRANCH  25  26
ENDBRANCH  24  25
ENDBRANCH   9  24
TORSDOF 7
ENDMDL
MODEL 9
REMARK VINA RESULT:      -7.1      3.160      7.843
REMARK  7 active torsions:
REMARK  status: ('A' for Active; 'I' for Inactive)
REMARK    1  A    between atoms: N1_1  and  C1_2 
REMARK    2  A    between atoms: C5_8  and  C6_9 
REMARK    3  A    between atoms: C9_12  and  O1_13 
REMARK    4  A    between atoms: O1_13  and  C10_14 
REMARK    5  A    between atoms: N5_21  and  C16_22 
REMARK    6  A    between atoms: C16_22  and  C17_23 
REMARK    7  A    between atoms: C17_23  and  N6_24 
ROOT
HETATM    1  C1  UNL     1      24.154   3.362  50.096  1.00  0.00     0.139 A 
HETATM    2  N2  UNL     1      24.957   4.206  49.426  1.00  0.00    -0.224 NA
HETATM    3  C2  UNL     1      26.302   4.120  49.651  1.00  0.00     0.237 A 
HETATM    4  N3  UNL     1      26.849   3.220  50.520  1.00  0.00    -0.222 NA
HETATM    5  C3  UNL     1      26.075   2.356  51.215  1.00  0.00     0.164 A 
HETATM    6  C4  UNL     1      24.724   2.467  50.965  1.00  0.00     0.088 A 
HETATM    7  C5  UNL     1      24.025   1.551  51.718  1.00  0.00     0.105 A 
HETATM    8  N4  UNL     1      24.983   0.888  52.426  1.00  0.00    -0.169 NA
HETATM    9  N5  UNL     1      26.191   1.374  52.119  1.00  0.00    -0.249 N 
ENDROOT
BRANCH   7  10
HETATM   10  C6  UNL     1      22.645   1.152  51.939  1.00  0.00    -0.004 A 
HETATM   11  C7  UNL     1      21.991   0.536  50.864  1.00  0.00     0.016 A 
HETATM   12  C8  UNL     1      20.653   0.130  50.977  1.00  0.00     0.037 A 
HETATM   13  C9  UNL     1      19.949   0.330  52.154  1.00  0.00     0.069 A 
HETATM   14  C14 UNL     1      20.601   0.935  53.201  1.00  0.00     0.037 A 
HETATM   15  C15 UNL     1      21.896   1.324  53.081  1.00  0.00     0.016 A 
BRANCH  13  16
HETATM   16  O1  UNL     1      18.660  -0.149  52.025  1.00  0.00    -0.342 OA
BRANCH  16  17
HETATM   17  C10 UNL     1      17.965  -0.697  53.097  1.00  0.00     0.155 A 
HETATM   18  C11 UNL     1      16.809  -1.567  52.733  1.00  0.00     0.002 A 
HETATM   19  C12 UNL     1      17.294  -2.715  53.186  1.00  0.00    -0.025 A 
HETATM   20  C13 UNL     1      18.516  -2.016  53.616  1.00  0.00     0.063 A 
ENDBRANCH  16  17
ENDBRANCH  13  16
ENDBRANCH   7  10
BRANCH   1  21
HETATM   21  N1  UNL     1      22.758   3.475  49.863  1.00  0.00    -0.383 N 
HETATM   22  H1  UNL     1      21.894   3.275  50.414  1.00  0.00     0.157 HD
HETATM   23  H2  UNL     1      22.295   3.823  48.986  1.00  0.00     0.157 HD
ENDBRANCH   1  21
BRANCH   9  24
HETATM   24  C16 UNL     1      27.474   0.959  52.637  1.00  0.00     0.177 C 
BRANCH  24  25
HETATM   25  C17 UNL     1      27.375  -0.445  53.236  1.00  0.00     0.204 C 
BRANCH  25  26
HETATM   26  N6  UNL     1      27.435  -0.341  54.672  1.00  0.00    -0.139 NA
HETATM   27  O2  UNL     1      26.464  -0.465  55.339  1.00  0.00    -0.067 OA
ENDBRANCH  25  26
ENDBRANCH  24  25
ENDBRANCH   9  24
TORSDOF 7
ENDMDL
