MODEL 1
REMARK VINA RESULT:      -8.9      0.000      0.000
REMARK  8 active torsions:
REMARK  status: ('A' for Active; 'I' for Inactive)
REMARK    1  A    between atoms: O1_2  and  C2_3 
REMARK    2  A    between atoms: C2_3  and  C3_5 
REMARK    3  A    between atoms: C6_8  and  C7_9 
REMARK    4  A    between atoms: C7_9  and  N1_10 
REMARK       I    between atoms: N1_10  and  C8_11 
REMARK    5  A    between atoms: C8_11  and  C9_13 
REMARK    6  A    between atoms: C9_13  and  C10_14 
REMARK    7  A    between atoms: C10_14  and  C11_15 
REMARK    8  A    between atoms: C20_26  and  O4_27 
ROOT
HETATM    1  N1  UNL     1      22.305   2.707  52.174  1.00  0.00    -0.357 N 
HETATM    2  C8  UNL     1      22.332   1.292  52.165  1.00  0.00     0.218 C 
HETATM    3  O3  UNL     1      22.297   0.667  51.047  1.00  0.00    -0.274 OA
HETATM    4  H8  UNL     1      22.332   3.041  53.154  1.00  0.00     0.162 HD
ENDROOT
BRANCH   2   5
HETATM    5  C9  UNL     1      22.397   0.268  53.273  1.00  0.00     0.106 C 
BRANCH   5   6
HETATM    6  C10 UNL     1      23.867  -0.134  53.292  1.00  0.00     0.039 C 
BRANCH   6   7
HETATM    7  C11 UNL     1      24.794   0.945  53.520  1.00  0.00     0.006 C 
HETATM    8  C12 UNL     1      26.062   1.305  53.622  1.00  0.00     0.057 A 
HETATM    9  N2  UNL     1      26.571   2.614  53.880  1.00  0.00    -0.300 N 
HETATM   10  C18 UNL     1      27.216   0.406  53.504  1.00  0.00     0.020 A 
HETATM   11  N3  UNL     1      27.946   2.446  53.904  1.00  0.00    -0.299 N 
HETATM   12  H14 UNL     1      26.022   3.490  54.018  1.00  0.00     0.187 HD
HETATM   13  C13 UNL     1      28.386   1.115  53.679  1.00  0.00     0.060 A 
HETATM   14  H15 UNL     1      28.568   3.266  54.079  1.00  0.00     0.187 HD
HETATM   15  C14 UNL     1      29.666   0.601  53.637  1.00  0.00     0.032 A 
HETATM   16  C15 UNL     1      29.765  -0.765  53.393  1.00  0.00     0.002 A 
HETATM   17  C16 UNL     1      28.639  -1.554  53.204  1.00  0.00     0.001 A 
HETATM   18  C17 UNL     1      27.408  -0.941  53.266  1.00  0.00     0.016 A 
ENDBRANCH   6   7
ENDBRANCH   5   6
ENDBRANCH   2   5
BRANCH   1  19
HETATM   19  C7  UNL     1      22.249   3.125  50.792  1.00  0.00     0.161 C 
BRANCH  19  20
HETATM   20  C6  UNL     1      23.578   3.608  50.378  1.00  0.00    -0.038 A 
HETATM   21  C5  UNL     1      23.568   4.514  49.307  1.00  0.00     0.010 A 
HETATM   22  C4  UNL     1      24.719   5.050  48.790  1.00  0.00     0.021 A 
HETATM   23  C3  UNL     1      25.951   4.734  49.290  1.00  0.00     0.072 A 
HETATM   24  C20 UNL     1      25.966   3.842  50.346  1.00  0.00     0.082 A 
HETATM   25  C19 UNL     1      24.820   3.290  50.881  1.00  0.00     0.046 A 
BRANCH  23  26
HETATM   26  C2  UNL     1      27.157   5.318  48.715  1.00  0.00     0.295 C 
HETATM   27  O2  UNL     1      28.232   4.673  48.628  1.00  0.00    -0.259 OA
BRANCH  26  28
HETATM   28  O1  UNL     1      27.112   6.618  48.249  1.00  0.00    -0.322 OA
HETATM   29  C1  UNL     1      27.188   7.759  49.070  1.00  0.00     0.213 C 
ENDBRANCH  26  28
ENDBRANCH  23  26
BRANCH  24  30
HETATM   30  O4  UNL     1      27.186   3.494  50.884  1.00  0.00    -0.360 OA
HETATM   31  H21 UNL     1      27.192   2.789  51.618  1.00  0.00     0.217 HD
ENDBRANCH  24  30
ENDBRANCH  19  20
ENDBRANCH   1  19
TORSDOF 8
ENDMDL
MODEL 2
REMARK VINA RESULT:      -8.6      1.399      2.293
REMARK  8 active torsions:
REMARK  status: ('A' for Active; 'I' for Inactive)
REMARK    1  A    between atoms: O1_2  and  C2_3 
REMARK    2  A    between atoms: C2_3  and  C3_5 
REMARK    3  A    between atoms: C6_8  and  C7_9 
REMARK    4  A    between atoms: C7_9  and  N1_10 
REMARK       I    between atoms: N1_10  and  C8_11 
REMARK    5  A    between atoms: C8_11  and  C9_13 
REMARK    6  A    between atoms: C9_13  and  C10_14 
REMARK    7  A    between atoms: C10_14  and  C11_15 
REMARK    8  A    between atoms: C20_26  and  O4_27 
ROOT
HETATM    1  N1  UNL     1      23.798   3.913  51.214  1.00  0.00    -0.357 N 
HETATM    2  C8  UNL     1      23.343   2.599  51.480  1.00  0.00     0.218 C 
HETATM    3  O3  UNL     1      22.979   1.847  50.509  1.00  0.00    -0.274 OA
HETATM    4  H8  UNL     1      24.041   4.376  52.108  1.00  0.00     0.162 HD
ENDROOT
BRANCH   2   5
HETATM    5  C9  UNL     1      23.176   1.821  52.764  1.00  0.00     0.106 C 
BRANCH   5   6
HETATM    6  C10 UNL     1      24.453   0.992  52.839  1.00  0.00     0.039 C 
BRANCH   6   7
HETATM    7  C11 UNL     1      25.629   1.715  53.251  1.00  0.00     0.006 C 
HETATM    8  C12 UNL     1      26.926   1.660  53.498  1.00  0.00     0.057 A 
HETATM    9  N2  UNL     1      27.772   2.728  53.925  1.00  0.00    -0.300 N 
HETATM   10  C18 UNL     1      27.763   0.458  53.395  1.00  0.00     0.020 A 
HETATM   11  N3  UNL     1      29.021   2.143  54.053  1.00  0.00    -0.299 N 
HETATM   12  H14 UNL     1      27.499   3.719  54.098  1.00  0.00     0.187 HD
HETATM   13  C13 UNL     1      29.064   0.759  53.739  1.00  0.00     0.060 A 
HETATM   14  H15 UNL     1      29.836   2.718  54.359  1.00  0.00     0.187 HD
HETATM   15  C14 UNL     1      30.127  -0.120  53.760  1.00  0.00     0.032 A 
HETATM   16  C15 UNL     1      29.838  -1.431  53.395  1.00  0.00     0.002 A 
HETATM   17  C16 UNL     1      28.556  -1.821  53.034  1.00  0.00     0.001 A 
HETATM   18  C17 UNL     1      27.568  -0.863  53.047  1.00  0.00     0.016 A 
ENDBRANCH   6   7
ENDBRANCH   5   6
ENDBRANCH   2   5
BRANCH   1  19
HETATM   19  C7  UNL     1      23.739   4.084  49.780  1.00  0.00     0.161 C 
BRANCH  19  20
HETATM   20  C6  UNL     1      24.989   4.711  49.316  1.00  0.00    -0.038 A 
HETATM   21  C5  UNL     1      26.116   3.877  49.356  1.00  0.00     0.010 A 
HETATM   22  C4  UNL     1      27.360   4.307  48.971  1.00  0.00     0.021 A 
HETATM   23  C3  UNL     1      27.577   5.579  48.521  1.00  0.00     0.072 A 
HETATM   24  C20 UNL     1      26.469   6.405  48.480  1.00  0.00     0.082 A 
HETATM   25  C19 UNL     1      25.209   5.992  48.863  1.00  0.00     0.046 A 
BRANCH  23  26
HETATM   26  C2  UNL     1      28.913   6.007  48.124  1.00  0.00     0.295 C 
HETATM   27  O2  UNL     1      29.096   6.878  47.238  1.00  0.00    -0.259 OA
BRANCH  26  28
HETATM   28  O1  UNL     1      30.008   5.437  48.744  1.00  0.00    -0.322 OA
HETATM   29  C1  UNL     1      31.294   5.366  48.177  1.00  0.00     0.213 C 
ENDBRANCH  26  28
ENDBRANCH  23  26
BRANCH  24  30
HETATM   30  O4  UNL     1      26.639   7.697  48.033  1.00  0.00    -0.360 OA
HETATM   31  H21 UNL     1      26.047   8.012  47.269  1.00  0.00     0.217 HD
ENDBRANCH  24  30
ENDBRANCH  19  20
ENDBRANCH   1  19
TORSDOF 8
ENDMDL
MODEL 3
REMARK VINA RESULT:      -8.5      3.333      6.301
REMARK  8 active torsions:
REMARK  status: ('A' for Active; 'I' for Inactive)
REMARK    1  A    between atoms: O1_2  and  C2_3 
REMARK    2  A    between atoms: C2_3  and  C3_5 
REMARK    3  A    between atoms: C6_8  and  C7_9 
REMARK    4  A    between atoms: C7_9  and  N1_10 
REMARK       I    between atoms: N1_10  and  C8_11 
REMARK    5  A    between atoms: C8_11  and  C9_13 
REMARK    6  A    between atoms: C9_13  and  C10_14 
REMARK    7  A    between atoms: C10_14  and  C11_15 
REMARK    8  A    between atoms: C20_26  and  O4_27 
ROOT
HETATM    1  N1  UNL     1      23.505   2.987  50.699  1.00  0.00    -0.357 N 
HETATM    2  C8  UNL     1      22.159   3.396  50.858  1.00  0.00     0.218 C 
HETATM    3  O3  UNL     1      21.824   4.083  51.886  1.00  0.00    -0.274 OA
HETATM    4  H8  UNL     1      23.593   2.440  49.824  1.00  0.00     0.162 HD
ENDROOT
BRANCH   2   5
HETATM    5  C9  UNL     1      20.925   3.184  50.014  1.00  0.00     0.106 C 
BRANCH   5   6
HETATM    6  C10 UNL     1      20.864   1.669  49.857  1.00  0.00     0.039 C 
BRANCH   6   7
HETATM    7  C11 UNL     1      19.977   0.994  50.770  1.00  0.00     0.006 C 
HETATM    8  C12 UNL     1      19.871   0.280  51.878  1.00  0.00     0.057 A 
HETATM    9  N2  UNL     1      18.673  -0.223  52.471  1.00  0.00    -0.300 N 
HETATM   10  C18 UNL     1      20.990  -0.158  52.720  1.00  0.00     0.020 A 
HETATM   11  N3  UNL     1      19.111  -0.909  53.592  1.00  0.00    -0.299 N 
HETATM   12  H14 UNL     1      17.697  -0.095  52.128  1.00  0.00     0.187 HD
HETATM   13  C13 UNL     1      20.518  -0.896  53.786  1.00  0.00     0.060 A 
HETATM   14  H15 UNL     1      18.420  -1.382  54.215  1.00  0.00     0.187 HD
HETATM   15  C14 UNL     1      21.279  -1.470  54.782  1.00  0.00     0.032 A 
HETATM   16  C15 UNL     1      22.653  -1.275  54.686  1.00  0.00     0.002 A 
HETATM   17  C16 UNL     1      23.214  -0.544  53.648  1.00  0.00     0.001 A 
HETATM   18  C17 UNL     1      22.363  -0.014  52.705  1.00  0.00     0.016 A 
ENDBRANCH   6   7
ENDBRANCH   5   6
ENDBRANCH   2   5
BRANCH   1  19
HETATM   19  C7  UNL     1      24.228   3.504  51.839  1.00  0.00     0.161 C 
BRANCH  19  20
HETATM   20  C6  UNL     1      25.099   2.446  52.380  1.00  0.00    -0.038 A 
HETATM   21  C5  UNL     1      25.538   1.505  51.437  1.00  0.00     0.010 A 
HETATM   22  C4  UNL     1      26.345   0.450  51.775  1.00  0.00     0.021 A 
HETATM   23  C3  UNL     1      26.773   0.251  53.058  1.00  0.00     0.072 A 
HETATM   24  C20 UNL     1      26.343   1.176  53.991  1.00  0.00     0.082 A 
HETATM   25  C19 UNL     1      25.531   2.245  53.672  1.00  0.00     0.046 A 
BRANCH  23  26
HETATM   26  C2  UNL     1      27.627  -0.885  53.386  1.00  0.00     0.295 C 
HETATM   27  O2  UNL     1      27.379  -2.044  52.970  1.00  0.00    -0.259 OA
BRANCH  26  28
HETATM   28  O1  UNL     1      28.741  -0.676  54.175  1.00  0.00    -0.322 OA
HETATM   29  C1  UNL     1      30.053  -1.028  53.806  1.00  0.00     0.213 C 
ENDBRANCH  26  28
ENDBRANCH  23  26
BRANCH  24  30
HETATM   30  O4  UNL     1      26.750   1.016  55.298  1.00  0.00    -0.360 OA
HETATM   31  H21 UNL     1      26.241   1.527  56.015  1.00  0.00     0.217 HD
ENDBRANCH  24  30
ENDBRANCH  19  20
ENDBRANCH   1  19
TORSDOF 8
ENDMDL
MODEL 4
REMARK VINA RESULT:      -8.5      1.539      2.346
REMARK  8 active torsions:
REMARK  status: ('A' for Active; 'I' for Inactive)
REMARK    1  A    between atoms: O1_2  and  C2_3 
REMARK    2  A    between atoms: C2_3  and  C3_5 
REMARK    3  A    between atoms: C6_8  and  C7_9 
REMARK    4  A    between atoms: C7_9  and  N1_10 
REMARK       I    between atoms: N1_10  and  C8_11 
REMARK    5  A    between atoms: C8_11  and  C9_13 
REMARK    6  A    between atoms: C9_13  and  C10_14 
REMARK    7  A    between atoms: C10_14  and  C11_15 
REMARK    8  A    between atoms: C20_26  and  O4_27 
ROOT
HETATM    1  N1  UNL     1      24.343   4.256  50.909  1.00  0.00    -0.357 N 
HETATM    2  C8  UNL     1      23.767   3.038  51.342  1.00  0.00     0.218 C 
HETATM    3  O3  UNL     1      23.493   2.128  50.483  1.00  0.00    -0.274 OA
HETATM    4  H8  UNL     1      24.490   4.873  51.728  1.00  0.00     0.162 HD
ENDROOT
BRANCH   2   5
HETATM    5  C9  UNL     1      23.368   2.529  52.706  1.00  0.00     0.106 C 
BRANCH   5   6
HETATM    6  C10 UNL     1      24.439   1.489  53.019  1.00  0.00     0.039 C 
BRANCH   6   7
HETATM    7  C11 UNL     1      25.720   2.026  53.402  1.00  0.00     0.006 C 
HETATM    8  C12 UNL     1      27.005   1.780  53.594  1.00  0.00     0.057 A 
HETATM    9  N2  UNL     1      28.008   2.704  54.015  1.00  0.00    -0.300 N 
HETATM   10  C18 UNL     1      27.657   0.476  53.424  1.00  0.00     0.020 A 
HETATM   11  N3  UNL     1      29.166   1.944  54.076  1.00  0.00    -0.299 N 
HETATM   12  H14 UNL     1      27.885   3.717  54.226  1.00  0.00     0.187 HD
HETATM   13  C13 UNL     1      29.000   0.579  53.723  1.00  0.00     0.060 A 
HETATM   14  H15 UNL     1      30.064   2.389  54.364  1.00  0.00     0.187 HD
HETATM   15  C14 UNL     1      29.927  -0.441  53.676  1.00  0.00     0.032 A 
HETATM   16  C15 UNL     1      29.442  -1.686  53.288  1.00  0.00     0.002 A 
HETATM   17  C16 UNL     1      28.105  -1.879  52.968  1.00  0.00     0.001 A 
HETATM   18  C17 UNL     1      27.264  -0.792  53.048  1.00  0.00     0.016 A 
ENDBRANCH   6   7
ENDBRANCH   5   6
ENDBRANCH   2   5
BRANCH   1  19
HETATM   19  C7  UNL     1      24.498   4.150  49.476  1.00  0.00     0.161 C 
BRANCH  19  20
HETATM   20  C6  UNL     1      25.683   4.921  49.059  1.00  0.00    -0.038 A 
HETATM   21  C5  UNL     1      25.423   6.251  48.698  1.00  0.00     0.010 A 
HETATM   22  C4  UNL     1      26.410   7.102  48.274  1.00  0.00     0.021 A 
HETATM   23  C3  UNL     1      27.715   6.705  48.180  1.00  0.00     0.072 A 
HETATM   24  C20 UNL     1      27.976   5.395  48.536  1.00  0.00     0.082 A 
HETATM   25  C19 UNL     1      26.997   4.522  48.964  1.00  0.00     0.046 A 
BRANCH  23  26
HETATM   26  C2  UNL     1      28.741   7.633  47.721  1.00  0.00     0.295 C 
HETATM   27  O2  UNL     1      29.421   7.414  46.688  1.00  0.00    -0.259 OA
BRANCH  26  28
HETATM   28  O1  UNL     1      28.968   8.788  48.445  1.00  0.00    -0.322 OA
HETATM   29  C1  UNL     1      30.191   9.110  49.062  1.00  0.00     0.213 C 
ENDBRANCH  26  28
ENDBRANCH  23  26
BRANCH  24  30
HETATM   30  O4  UNL     1      29.278   4.949  48.457  1.00  0.00    -0.360 OA
HETATM   31  H21 UNL     1      29.642   4.420  49.246  1.00  0.00     0.217 HD
ENDBRANCH  24  30
ENDBRANCH  19  20
ENDBRANCH   1  19
TORSDOF 8
ENDMDL
MODEL 5
REMARK VINA RESULT:      -8.1      2.523      4.788
REMARK  8 active torsions:
REMARK  status: ('A' for Active; 'I' for Inactive)
REMARK    1  A    between atoms: O1_2  and  C2_3 
REMARK    2  A    between atoms: C2_3  and  C3_5 
REMARK    3  A    between atoms: C6_8  and  C7_9 
REMARK    4  A    between atoms: C7_9  and  N1_10 
REMARK       I    between atoms: N1_10  and  C8_11 
REMARK    5  A    between atoms: C8_11  and  C9_13 
REMARK    6  A    between atoms: C9_13  and  C10_14 
REMARK    7  A    between atoms: C10_14  and  C11_15 
REMARK    8  A    between atoms: C20_26  and  O4_27 
ROOT
HETATM    1  N1  UNL     1      26.980   3.342  50.897  1.00  0.00    -0.357 N 
HETATM    2  C8  UNL     1      26.095   2.630  51.741  1.00  0.00     0.218 C 
HETATM    3  O3  UNL     1      24.956   2.254  51.291  1.00  0.00    -0.274 OA
HETATM    4  H8  UNL     1      27.842   3.569  51.423  1.00  0.00     0.162 HD
ENDROOT
BRANCH   2   5
HETATM    5  C9  UNL     1      26.203   2.177  53.178  1.00  0.00     0.106 C 
BRANCH   5   6
HETATM    6  C10 UNL     1      26.512   0.689  53.053  1.00  0.00     0.039 C 
BRANCH   6   7
HETATM    7  C11 UNL     1      25.987  -0.136  54.111  1.00  0.00     0.006 C 
HETATM    8  C12 UNL     1      24.916  -0.707  54.634  1.00  0.00     0.057 A 
HETATM    9  N2  UNL     1      24.854  -1.520  55.806  1.00  0.00    -0.300 N 
HETATM   10  C18 UNL     1      23.550  -0.599  54.108  1.00  0.00     0.020 A 
HETATM   11  N3  UNL     1      23.513  -1.846  55.924  1.00  0.00    -0.299 N 
HETATM   12  H14 UNL     1      25.646  -1.797  56.425  1.00  0.00     0.187 HD
HETATM   13  C13 UNL     1      22.678  -1.307  54.910  1.00  0.00     0.060 A 
HETATM   14  H15 UNL     1      23.191  -2.446  56.715  1.00  0.00     0.187 HD
HETATM   15  C14 UNL     1      21.317  -1.430  54.726  1.00  0.00     0.032 A 
HETATM   16  C15 UNL     1      20.791  -0.770  53.620  1.00  0.00     0.002 A 
HETATM   17  C16 UNL     1      21.595  -0.035  52.760  1.00  0.00     0.001 A 
HETATM   18  C17 UNL     1      22.942   0.023  53.036  1.00  0.00     0.016 A 
ENDBRANCH   6   7
ENDBRANCH   5   6
ENDBRANCH   2   5
BRANCH   1  19
HETATM   19  C7  UNL     1      26.315   3.468  49.620  1.00  0.00     0.161 C 
BRANCH  19  20
HETATM   20  C6  UNL     1      26.660   4.769  49.020  1.00  0.00    -0.038 A 
HETATM   21  C5  UNL     1      28.002   4.901  48.632  1.00  0.00     0.010 A 
HETATM   22  C4  UNL     1      28.492   6.050  48.069  1.00  0.00     0.021 A 
HETATM   23  C3  UNL     1      27.699   7.143  47.850  1.00  0.00     0.072 A 
HETATM   24  C20 UNL     1      26.376   7.017  48.231  1.00  0.00     0.082 A 
HETATM   25  C19 UNL     1      25.863   5.869  48.800  1.00  0.00     0.046 A 
BRANCH  23  26
HETATM   26  C2  UNL     1      28.253   8.352  47.254  1.00  0.00     0.295 C 
HETATM   27  O2  UNL     1      28.832   8.339  46.139  1.00  0.00    -0.259 OA
BRANCH  26  28
HETATM   28  O1  UNL     1      28.133   9.548  47.937  1.00  0.00    -0.322 OA
HETATM   29  C1  UNL     1      28.632   9.775  49.233  1.00  0.00     0.213 C 
ENDBRANCH  26  28
ENDBRANCH  23  26
BRANCH  24  30
HETATM   30  O4  UNL     1      25.539   8.093  48.030  1.00  0.00    -0.360 OA
HETATM   31  H21 UNL     1      24.944   8.377  48.804  1.00  0.00     0.217 HD
ENDBRANCH  24  30
ENDBRANCH  19  20
ENDBRANCH   1  19
TORSDOF 8
ENDMDL
MODEL 6
REMARK VINA RESULT:      -8.1      2.435      3.591
REMARK  8 active torsions:
REMARK  status: ('A' for Active; 'I' for Inactive)
REMARK    1  A    between atoms: O1_2  and  C2_3 
REMARK    2  A    between atoms: C2_3  and  C3_5 
REMARK    3  A    between atoms: C6_8  and  C7_9 
REMARK    4  A    between atoms: C7_9  and  N1_10 
REMARK       I    between atoms: N1_10  and  C8_11 
REMARK    5  A    between atoms: C8_11  and  C9_13 
REMARK    6  A    between atoms: C9_13  and  C10_14 
REMARK    7  A    between atoms: C10_14  and  C11_15 
REMARK    8  A    between atoms: C20_26  and  O4_27 
ROOT
HETATM    1  N1  UNL     1      25.653   4.565  50.606  1.00  0.00    -0.357 N 
HETATM    2  C8  UNL     1      24.378   4.081  50.985  1.00  0.00     0.218 C 
HETATM    3  O3  UNL     1      23.374   4.273  50.213  1.00  0.00    -0.274 OA
HETATM    4  H8  UNL     1      26.339   4.329  51.345  1.00  0.00     0.162 HD
ENDROOT
BRANCH   2   5
HETATM    5  C9  UNL     1      23.897   3.324  52.200  1.00  0.00     0.106 C 
BRANCH   5   6
HETATM    6  C10 UNL     1      23.899   1.873  51.733  1.00  0.00     0.039 C 
BRANCH   6   7
HETATM    7  C11 UNL     1      24.282   0.909  52.732  1.00  0.00     0.006 C 
HETATM    8  C12 UNL     1      25.238   0.475  53.536  1.00  0.00     0.057 A 
HETATM    9  N2  UNL     1      25.170  -0.621  54.448  1.00  0.00    -0.300 N 
HETATM   10  C18 UNL     1      26.590   1.039  53.635  1.00  0.00     0.020 A 
HETATM   11  N3  UNL     1      26.429  -0.662  55.026  1.00  0.00    -0.299 N 
HETATM   12  H14 UNL     1      24.353  -1.242  54.629  1.00  0.00     0.187 HD
HETATM   13  C13 UNL     1      27.329   0.333  54.561  1.00  0.00     0.060 A 
HETATM   14  H15 UNL     1      26.648  -1.387  55.743  1.00  0.00     0.187 HD
HETATM   15  C14 UNL     1      28.639   0.577  54.916  1.00  0.00     0.032 A 
HETATM   16  C15 UNL     1      29.257   1.641  54.268  1.00  0.00     0.002 A 
HETATM   17  C16 UNL     1      28.588   2.405  53.323  1.00  0.00     0.001 A 
HETATM   18  C17 UNL     1      27.281   2.077  53.042  1.00  0.00     0.016 A 
ENDBRANCH   6   7
ENDBRANCH   5   6
ENDBRANCH   2   5
BRANCH   1  19
HETATM   19  C7  UNL     1      25.483   5.205  49.321  1.00  0.00     0.161 C 
BRANCH  19  20
HETATM   20  C6  UNL     1      26.793   5.678  48.839  1.00  0.00    -0.038 A 
HETATM   21  C5  UNL     1      26.862   7.054  48.577  1.00  0.00     0.010 A 
HETATM   22  C4  UNL     1      28.003   7.655  48.111  1.00  0.00     0.021 A 
HETATM   23  C3  UNL     1      29.147   6.946  47.874  1.00  0.00     0.072 A 
HETATM   24  C20 UNL     1      29.084   5.589  48.131  1.00  0.00     0.082 A 
HETATM   25  C19 UNL     1      27.946   4.965  48.600  1.00  0.00     0.046 A 
BRANCH  23  26
HETATM   26  C2  UNL     1      30.343   7.614  47.373  1.00  0.00     0.295 C 
HETATM   27  O2  UNL     1      30.823   7.356  46.242  1.00  0.00    -0.259 OA
BRANCH  26  28
HETATM   28  O1  UNL     1      30.960   8.560  48.168  1.00  0.00    -0.322 OA
HETATM   29  C1  UNL     1      31.632   8.271  49.371  1.00  0.00     0.213 C 
ENDBRANCH  26  28
ENDBRANCH  23  26
BRANCH  24  30
HETATM   30  O4  UNL     1      30.214   4.833  47.908  1.00  0.00    -0.360 OA
HETATM   31  H21 UNL     1      31.001   4.967  48.537  1.00  0.00     0.217 HD
ENDBRANCH  24  30
ENDBRANCH  19  20
ENDBRANCH   1  19
TORSDOF 8
ENDMDL
MODEL 7
REMARK VINA RESULT:      -8.1      2.322      6.081
REMARK  8 active torsions:
REMARK  status: ('A' for Active; 'I' for Inactive)
REMARK    1  A    between atoms: O1_2  and  C2_3 
REMARK    2  A    between atoms: C2_3  and  C3_5 
REMARK    3  A    between atoms: C6_8  and  C7_9 
REMARK    4  A    between atoms: C7_9  and  N1_10 
REMARK       I    between atoms: N1_10  and  C8_11 
REMARK    5  A    between atoms: C8_11  and  C9_13 
REMARK    6  A    between atoms: C9_13  and  C10_14 
REMARK    7  A    between atoms: C10_14  and  C11_15 
REMARK    8  A    between atoms: C20_26  and  O4_27 
ROOT
HETATM    1  N1  UNL     1      22.537   1.501  52.189  1.00  0.00    -0.357 N 
HETATM    2  C8  UNL     1      21.208   1.514  52.675  1.00  0.00     0.218 C 
HETATM    3  O3  UNL     1      20.829   0.616  53.506  1.00  0.00    -0.274 OA
HETATM    4  H8  UNL     1      22.665   2.287  51.528  1.00  0.00     0.162 HD
ENDROOT
BRANCH   2   5
HETATM    5  C9  UNL     1      20.037   2.430  52.408  1.00  0.00     0.106 C 
BRANCH   5   6
HETATM    6  C10 UNL     1      20.453   3.172  51.143  1.00  0.00     0.039 C 
BRANCH   6   7
HETATM    7  C11 UNL     1      20.954   4.506  51.353  1.00  0.00     0.006 C 
HETATM    8  C12 UNL     1      21.968   5.340  51.194  1.00  0.00     0.057 A 
HETATM    9  N2  UNL     1      22.032   6.709  51.593  1.00  0.00    -0.300 N 
HETATM   10  C18 UNL     1      23.258   5.005  50.580  1.00  0.00     0.020 A 
HETATM   11  N3  UNL     1      23.302   7.114  51.216  1.00  0.00    -0.299 N 
HETATM   12  H14 UNL     1      21.286   7.266  52.062  1.00  0.00     0.187 HD
HETATM   13  C13 UNL     1      24.087   6.108  50.593  1.00  0.00     0.060 A 
HETATM   14  H15 UNL     1      23.611   8.094  51.398  1.00  0.00     0.187 HD
HETATM   15  C14 UNL     1      25.375   6.167  50.102  1.00  0.00     0.032 A 
HETATM   16  C15 UNL     1      25.867   4.992  49.544  1.00  0.00     0.002 A 
HETATM   17  C16 UNL     1      25.101   3.836  49.488  1.00  0.00     0.001 A 
HETATM   18  C17 UNL     1      23.828   3.885  50.007  1.00  0.00     0.016 A 
ENDBRANCH   6   7
ENDBRANCH   5   6
ENDBRANCH   2   5
BRANCH   1  19
HETATM   19  C7  UNL     1      23.192   0.377  52.819  1.00  0.00     0.161 C 
BRANCH  19  20
HETATM   20  C6  UNL     1      24.608   0.712  53.055  1.00  0.00    -0.038 A 
HETATM   21  C5  UNL     1      25.211   0.011  54.110  1.00  0.00     0.010 A 
HETATM   22  C4  UNL     1      26.518   0.211  54.470  1.00  0.00     0.021 A 
HETATM   23  C3  UNL     1      27.317   1.110  53.819  1.00  0.00     0.072 A 
HETATM   24  C20 UNL     1      26.727   1.803  52.779  1.00  0.00     0.082 A 
HETATM   25  C19 UNL     1      25.413   1.617  52.400  1.00  0.00     0.046 A 
BRANCH  23  26
HETATM   26  C2  UNL     1      28.703   1.303  54.230  1.00  0.00     0.295 C 
HETATM   27  O2  UNL     1      29.198   2.448  54.380  1.00  0.00    -0.259 OA
BRANCH  26  28
HETATM   28  O1  UNL     1      29.490   0.193  54.464  1.00  0.00    -0.322 OA
HETATM   29  C1  UNL     1      29.993  -0.651  53.456  1.00  0.00     0.213 C 
ENDBRANCH  26  28
ENDBRANCH  23  26
BRANCH  24  30
HETATM   30  O4  UNL     1      27.494   2.719  52.093  1.00  0.00    -0.360 OA
HETATM   31  H21 UNL     1      27.374   2.772  51.084  1.00  0.00     0.217 HD
ENDBRANCH  24  30
ENDBRANCH  19  20
ENDBRANCH   1  19
TORSDOF 8
ENDMDL
MODEL 8
REMARK VINA RESULT:      -8.0      2.486      7.569
REMARK  8 active torsions:
REMARK  status: ('A' for Active; 'I' for Inactive)
REMARK    1  A    between atoms: O1_2  and  C2_3 
REMARK    2  A    between atoms: C2_3  and  C3_5 
REMARK    3  A    between atoms: C6_8  and  C7_9 
REMARK    4  A    between atoms: C7_9  and  N1_10 
REMARK       I    between atoms: N1_10  and  C8_11 
REMARK    5  A    between atoms: C8_11  and  C9_13 
REMARK    6  A    between atoms: C9_13  and  C10_14 
REMARK    7  A    between atoms: C10_14  and  C11_15 
REMARK    8  A    between atoms: C20_26  and  O4_27 
ROOT
HETATM    1  N1  UNL     1      25.550   3.429  51.337  1.00  0.00    -0.357 N 
HETATM    2  C8  UNL     1      26.008   3.904  50.085  1.00  0.00     0.218 C 
HETATM    3  O3  UNL     1      26.994   3.322  49.510  1.00  0.00    -0.274 OA
HETATM    4  H8  UNL     1      24.759   4.016  51.654  1.00  0.00     0.162 HD
ENDROOT
BRANCH   2   5
HETATM    5  C9  UNL     1      25.556   5.042  49.201  1.00  0.00     0.106 C 
BRANCH   5   6
HETATM    6  C10 UNL     1      24.036   4.982  49.304  1.00  0.00     0.039 C 
BRANCH   6   7
HETATM    7  C11 UNL     1      23.435   3.774  48.798  1.00  0.00     0.006 C 
HETATM    8  C12 UNL     1      22.553   2.812  49.006  1.00  0.00     0.057 A 
HETATM    9  N2  UNL     1      22.260   1.707  48.150  1.00  0.00    -0.300 N 
HETATM   10  C18 UNL     1      21.697   2.682  50.191  1.00  0.00     0.020 A 
HETATM   11  N3  UNL     1      21.286   0.997  48.833  1.00  0.00    -0.299 N 
HETATM   12  H14 UNL     1      22.690   1.494  47.224  1.00  0.00     0.187 HD
HETATM   13  C13 UNL     1      20.910   1.554  50.083  1.00  0.00     0.060 A 
HETATM   14  H15 UNL     1      20.890   0.125  48.417  1.00  0.00     0.187 HD
HETATM   15  C14 UNL     1      19.986   1.112  51.007  1.00  0.00     0.032 A 
HETATM   16  C15 UNL     1      19.849   1.892  52.151  1.00  0.00     0.002 A 
HETATM   17  C16 UNL     1      20.601   3.043  52.342  1.00  0.00     0.001 A 
HETATM   18  C17 UNL     1      21.495   3.394  51.356  1.00  0.00     0.016 A 
ENDBRANCH   6   7
ENDBRANCH   5   6
ENDBRANCH   2   5
BRANCH   1  19
HETATM   19  C7  UNL     1      26.383   2.297  51.676  1.00  0.00     0.161 C 
BRANCH  19  20
HETATM   20  C6  UNL     1      25.597   1.339  52.474  1.00  0.00    -0.038 A 
HETATM   21  C5  UNL     1      24.225   1.319  52.186  1.00  0.00     0.010 A 
HETATM   22  C4  UNL     1      23.349   0.496  52.845  1.00  0.00     0.021 A 
HETATM   23  C3  UNL     1      23.764  -0.361  53.826  1.00  0.00     0.072 A 
HETATM   24  C20 UNL     1      25.116  -0.345  54.113  1.00  0.00     0.082 A 
HETATM   25  C19 UNL     1      26.013   0.476  53.463  1.00  0.00     0.046 A 
BRANCH  23  26
HETATM   26  C2  UNL     1      22.806  -1.220  54.512  1.00  0.00     0.295 C 
HETATM   27  O2  UNL     1      22.937  -1.527  55.723  1.00  0.00    -0.259 OA
BRANCH  26  28
HETATM   28  O1  UNL     1      21.723  -1.708  53.807  1.00  0.00    -0.322 OA
HETATM   29  C1  UNL     1      20.385  -1.351  54.062  1.00  0.00     0.213 C 
ENDBRANCH  26  28
ENDBRANCH  23  26
BRANCH  24  30
HETATM   30  O4  UNL     1      25.580  -1.192  55.096  1.00  0.00    -0.360 OA
HETATM   31  H21 UNL     1      26.312  -0.844  55.710  1.00  0.00     0.217 HD
ENDBRANCH  24  30
ENDBRANCH  19  20
ENDBRANCH   1  19
TORSDOF 8
ENDMDL
MODEL 9
REMARK VINA RESULT:      -7.9      2.300      3.639
REMARK  8 active torsions:
REMARK  status: ('A' for Active; 'I' for Inactive)
REMARK    1  A    between atoms: O1_2  and  C2_3 
REMARK    2  A    between atoms: C2_3  and  C3_5 
REMARK    3  A    between atoms: C6_8  and  C7_9 
REMARK    4  A    between atoms: C7_9  and  N1_10 
REMARK       I    between atoms: N1_10  and  C8_11 
REMARK    5  A    between atoms: C8_11  and  C9_13 
REMARK    6  A    between atoms: C9_13  and  C10_14 
REMARK    7  A    between atoms: C10_14  and  C11_15 
REMARK    8  A    between atoms: C20_26  and  O4_27 
ROOT
HETATM    1  N1  UNL     1      25.836   4.493  50.631  1.00  0.00    -0.357 N 
HETATM    2  C8  UNL     1      24.992   3.357  50.622  1.00  0.00     0.218 C 
HETATM    3  O3  UNL     1      23.903   3.383  49.949  1.00  0.00    -0.274 OA
HETATM    4  H8  UNL     1      26.661   4.299  51.226  1.00  0.00     0.162 HD
ENDROOT
BRANCH   2   5
HETATM    5  C9  UNL     1      25.100   2.005  51.287  1.00  0.00     0.106 C 
BRANCH   5   6
HETATM    6  C10 UNL     1      25.242   2.351  52.764  1.00  0.00     0.039 C 
BRANCH   6   7
HETATM    7  C11 UNL     1      26.597   2.461  53.240  1.00  0.00     0.006 C 
HETATM    8  C12 UNL     1      27.733   1.830  53.487  1.00  0.00     0.057 A 
HETATM    9  N2  UNL     1      28.939   2.392  54.005  1.00  0.00    -0.300 N 
HETATM   10  C18 UNL     1      27.972   0.396  53.288  1.00  0.00     0.020 A 
HETATM   11  N3  UNL     1      29.807   1.316  54.089  1.00  0.00    -0.299 N 
HETATM   12  H14 UNL     1      29.114   3.388  54.258  1.00  0.00     0.187 HD
HETATM   13  C13 UNL     1      29.261   0.077  53.662  1.00  0.00     0.060 A 
HETATM   14  H15 UNL     1      30.777   1.457  54.446  1.00  0.00     0.187 HD
HETATM   15  C14 UNL     1      29.838  -1.175  53.614  1.00  0.00     0.032 A 
HETATM   16  C15 UNL     1      29.027  -2.201  53.140  1.00  0.00     0.002 A 
HETATM   17  C16 UNL     1      27.718  -1.969  52.742  1.00  0.00     0.001 A 
HETATM   18  C17 UNL     1      27.240  -0.681  52.830  1.00  0.00     0.016 A 
ENDBRANCH   6   7
ENDBRANCH   5   6
ENDBRANCH   2   5
BRANCH   1  19
HETATM   19  C7  UNL     1      25.198   5.483  49.794  1.00  0.00     0.161 C 
BRANCH  19  20
HETATM   20  C6  UNL     1      26.148   6.579  49.531  1.00  0.00    -0.038 A 
HETATM   21  C5  UNL     1      27.069   6.327  48.504  1.00  0.00     0.010 A 
HETATM   22  C4  UNL     1      28.028   7.236  48.140  1.00  0.00     0.021 A 
HETATM   23  C3  UNL     1      28.145   8.449  48.759  1.00  0.00     0.072 A 
HETATM   24  C20 UNL     1      27.239   8.703  49.771  1.00  0.00     0.082 A 
HETATM   25  C19 UNL     1      26.266   7.802  50.154  1.00  0.00     0.046 A 
BRANCH  23  26
HETATM   26  C2  UNL     1      29.180   9.392  48.351  1.00  0.00     0.295 C 
HETATM   27  O2  UNL     1      29.766  10.133  49.179  1.00  0.00    -0.259 OA
BRANCH  26  28
HETATM   28  O1  UNL     1      29.526   9.467  47.016  1.00  0.00    -0.322 OA
HETATM   29  C1  UNL     1      30.807   9.176  46.510  1.00  0.00     0.213 C 
ENDBRANCH  26  28
ENDBRANCH  23  26
BRANCH  24  30
HETATM   30  O4  UNL     1      27.318   9.914  50.424  1.00  0.00    -0.360 OA
HETATM   31  H21 UNL     1      26.768  10.685  50.052  1.00  0.00     0.217 HD
ENDBRANCH  24  30
ENDBRANCH  19  20
ENDBRANCH   1  19
TORSDOF 8
ENDMDL
