MODEL 1
REMARK VINA RESULT:      -7.1      0.000      0.000
REMARK  7 active torsions:
REMARK  status: ('A' for Active; 'I' for Inactive)
REMARK       I    between atoms: C1_2  and  N1_3 
REMARK    1  A    between atoms: C1_2  and  C7_9 
REMARK    2  A    between atoms: N1_3  and  C2_4 
REMARK    3  A    between atoms: C10_12  and  N2_13 
REMARK    4  A    between atoms: N2_13  and  C11_14 
REMARK    5  A    between atoms: N2_13  and  C13_17 
REMARK    6  A    between atoms: C11_14  and  C12_15 
REMARK    7  A    between atoms: C13_17  and  C14_18 
ROOT
HETATM    1  C7  UNL     1      23.896  -0.418  53.485  1.00  0.00     0.032 A 
HETATM    2  C8  UNL     1      22.957  -1.056  54.276  1.00  0.00     0.019 A 
HETATM    3  C9  UNL     1      21.631  -0.919  53.949  1.00  0.00     0.030 A 
HETATM    4  C10 UNL     1      21.124  -0.198  52.891  1.00  0.00     0.030 A 
HETATM    5  C15 UNL     1      22.107   0.396  52.166  1.00  0.00     0.030 A 
HETATM    6  C16 UNL     1      23.458   0.325  52.406  1.00  0.00     0.019 A 
ENDROOT
BRANCH   1   7
HETATM    7  C1  UNL     1      25.334  -0.482  53.716  1.00  0.00     0.256 C 
HETATM    8  O1  UNL     1      25.819  -0.727  54.853  1.00  0.00    -0.267 OA
HETATM    9  N1  UNL     1      26.316  -0.281  52.710  1.00  0.00    -0.322 N 
HETATM   10  H1  UNL     1      25.992  -0.075  51.744  1.00  0.00     0.169 HD
BRANCH   9  11
HETATM   11  C2  UNL     1      27.677  -0.375  53.100  1.00  0.00     0.046 A 
HETATM   12  C3  UNL     1      28.511  -1.370  53.198  1.00  0.00     0.003 A 
HETATM   13  C4  UNL     1      29.708  -1.002  53.669  1.00  0.00     0.014 A 
HETATM   14  C5  UNL     1      29.605   0.440  53.837  1.00  0.00     0.003 A 
HETATM   15  C6  UNL     1      28.396   0.839  53.502  1.00  0.00     0.030 A 
ENDBRANCH   9  11
ENDBRANCH   1   7
BRANCH   4  16
HETATM   16  N2  UNL     1      19.710  -0.110  52.608  1.00  0.00    -0.379 N 
BRANCH  16  17
HETATM   17  C11 UNL     1      19.291   0.636  51.447  1.00  0.00     0.138 C 
BRANCH  17  18
HETATM   18  C12 UNL     1      18.700   1.977  51.673  1.00  0.00     0.134 C 
HETATM   19 CL1  UNL     1      19.882   3.245  52.058  1.00  0.00    -0.129 Cl
ENDBRANCH  17  18
ENDBRANCH  16  17
BRANCH  16  20
HETATM   20  C13 UNL     1      18.795  -0.768  53.509  1.00  0.00     0.138 C 
BRANCH  20  21
HETATM   21  C14 UNL     1      17.657  -1.507  52.905  1.00  0.00     0.134 C 
HETATM   22 CL2  UNL     1      17.540  -3.162  53.575  1.00  0.00    -0.129 Cl
ENDBRANCH  20  21
ENDBRANCH  16  20
ENDBRANCH   4  16
TORSDOF 7
ENDMDL
MODEL 2
REMARK VINA RESULT:      -7.0      0.115      2.592
REMARK  7 active torsions:
REMARK  status: ('A' for Active; 'I' for Inactive)
REMARK       I    between atoms: C1_2  and  N1_3 
REMARK    1  A    between atoms: C1_2  and  C7_9 
REMARK    2  A    between atoms: N1_3  and  C2_4 
REMARK    3  A    between atoms: C10_12  and  N2_13 
REMARK    4  A    between atoms: N2_13  and  C11_14 
REMARK    5  A    between atoms: N2_13  and  C13_17 
REMARK    6  A    between atoms: C11_14  and  C12_15 
REMARK    7  A    between atoms: C13_17  and  C14_18 
ROOT
HETATM    1  C7  UNL     1      23.978  -0.342  53.491  1.00  0.00     0.032 A 
HETATM    2  C8  UNL     1      23.034  -0.948  54.300  1.00  0.00     0.019 A 
HETATM    3  C9  UNL     1      21.709  -0.805  53.971  1.00  0.00     0.030 A 
HETATM    4  C10 UNL     1      21.207  -0.106  52.896  1.00  0.00     0.030 A 
HETATM    5  C15 UNL     1      22.196   0.458  52.154  1.00  0.00     0.030 A 
HETATM    6  C16 UNL     1      23.546   0.378  52.393  1.00  0.00     0.019 A 
ENDROOT
BRANCH   1   7
HETATM    7  C1  UNL     1      25.416  -0.416  53.720  1.00  0.00     0.256 C 
HETATM    8  O1  UNL     1      25.901  -0.638  54.862  1.00  0.00    -0.267 OA
HETATM    9  N1  UNL     1      26.398  -0.250  52.707  1.00  0.00    -0.322 N 
HETATM   10  H1  UNL     1      26.074  -0.064  51.737  1.00  0.00     0.169 HD
BRANCH   9  11
HETATM   11  C2  UNL     1      27.759  -0.349  53.097  1.00  0.00     0.046 A 
HETATM   12  C3  UNL     1      28.577  -1.353  53.236  1.00  0.00     0.003 A 
HETATM   13  C4  UNL     1      29.781  -0.984  53.686  1.00  0.00     0.014 A 
HETATM   14  C5  UNL     1      29.703   0.465  53.791  1.00  0.00     0.003 A 
HETATM   15  C6  UNL     1      28.500   0.869  53.442  1.00  0.00     0.030 A 
ENDBRANCH   9  11
ENDBRANCH   1   7
BRANCH   4  16
HETATM   16  N2  UNL     1      19.794  -0.009  52.614  1.00  0.00    -0.379 N 
BRANCH  16  17
HETATM   17  C11 UNL     1      18.872  -0.666  53.509  1.00  0.00     0.138 C 
BRANCH  17  18
HETATM   18  C12 UNL     1      17.795  -1.484  52.901  1.00  0.00     0.134 C 
HETATM   19 CL1  UNL     1      17.584  -3.086  53.636  1.00  0.00    -0.129 Cl
ENDBRANCH  17  18
ENDBRANCH  16  17
BRANCH  16  20
HETATM   20  C13 UNL     1      19.384   0.732  51.447  1.00  0.00     0.138 C 
BRANCH  20  21
HETATM   21  C14 UNL     1      18.752   2.058  51.669  1.00  0.00     0.134 C 
HETATM   22 CL2  UNL     1      19.985   3.308  52.010  1.00  0.00    -0.129 Cl
ENDBRANCH  20  21
ENDBRANCH  16  20
ENDBRANCH   4  16
TORSDOF 7
ENDMDL
MODEL 3
REMARK VINA RESULT:      -6.6      2.043      2.341
REMARK  7 active torsions:
REMARK  status: ('A' for Active; 'I' for Inactive)
REMARK       I    between atoms: C1_2  and  N1_3 
REMARK    1  A    between atoms: C1_2  and  C7_9 
REMARK    2  A    between atoms: N1_3  and  C2_4 
REMARK    3  A    between atoms: C10_12  and  N2_13 
REMARK    4  A    between atoms: N2_13  and  C11_14 
REMARK    5  A    between atoms: N2_13  and  C13_17 
REMARK    6  A    between atoms: C11_14  and  C12_15 
REMARK    7  A    between atoms: C13_17  and  C14_18 
ROOT
HETATM    1  C7  UNL     1      24.354   0.094  53.162  1.00  0.00     0.032 A 
HETATM    2  C8  UNL     1      23.208  -0.681  53.169  1.00  0.00     0.019 A 
HETATM    3  C9  UNL     1      22.012  -0.075  52.880  1.00  0.00     0.030 A 
HETATM    4  C10 UNL     1      21.825   1.254  52.575  1.00  0.00     0.030 A 
HETATM    5  C15 UNL     1      22.995   1.945  52.589  1.00  0.00     0.030 A 
HETATM    6  C16 UNL     1      24.241   1.439  52.865  1.00  0.00     0.019 A 
ENDROOT
BRANCH   1   7
HETATM    7  C1  UNL     1      25.688  -0.420  53.447  1.00  0.00     0.256 C 
HETATM    8  O1  UNL     1      25.993  -0.906  54.569  1.00  0.00    -0.267 OA
HETATM    9  N1  UNL     1      26.759  -0.429  52.514  1.00  0.00    -0.322 N 
HETATM   10  H1  UNL     1      26.583  -0.045  51.563  1.00  0.00     0.169 HD
BRANCH   9  11
HETATM   11  C2  UNL     1      27.999  -0.964  52.950  1.00  0.00     0.046 A 
HETATM   12  C3  UNL     1      28.497  -2.167  52.961  1.00  0.00     0.003 A 
HETATM   13  C4  UNL     1      29.708  -2.222  53.527  1.00  0.00     0.014 A 
HETATM   14  C5  UNL     1      30.016  -0.841  53.866  1.00  0.00     0.003 A 
HETATM   15  C6  UNL     1      29.005  -0.068  53.529  1.00  0.00     0.030 A 
ENDBRANCH   9  11
ENDBRANCH   1   7
BRANCH   4  16
HETATM   16  N2  UNL     1      20.529   1.815  52.273  1.00  0.00    -0.379 N 
BRANCH  16  17
HETATM   17  C11 UNL     1      20.325   3.225  52.499  1.00  0.00     0.138 C 
BRANCH  17  18
HETATM   18  C12 UNL     1      20.492   4.134  51.339  1.00  0.00     0.134 C 
HETATM   19 CL1  UNL     1      21.806   5.316  51.514  1.00  0.00    -0.129 Cl
ENDBRANCH  17  18
ENDBRANCH  16  17
BRANCH  16  20
HETATM   20  C13 UNL     1      19.507   0.930  51.769  1.00  0.00     0.138 C 
BRANCH  20  21
HETATM   21  C14 UNL     1      19.222   0.978  50.312  1.00  0.00     0.134 C 
HETATM   22 CL2  UNL     1      20.737   0.994  49.361  1.00  0.00    -0.129 Cl
ENDBRANCH  20  21
ENDBRANCH  16  20
ENDBRANCH   4  16
TORSDOF 7
ENDMDL
MODEL 4
REMARK VINA RESULT:      -6.5      1.588      2.983
REMARK  7 active torsions:
REMARK  status: ('A' for Active; 'I' for Inactive)
REMARK       I    between atoms: C1_2  and  N1_3 
REMARK    1  A    between atoms: C1_2  and  C7_9 
REMARK    2  A    between atoms: N1_3  and  C2_4 
REMARK    3  A    between atoms: C10_12  and  N2_13 
REMARK    4  A    between atoms: N2_13  and  C11_14 
REMARK    5  A    between atoms: N2_13  and  C13_17 
REMARK    6  A    between atoms: C11_14  and  C12_15 
REMARK    7  A    between atoms: C13_17  and  C14_18 
ROOT
HETATM    1  C7  UNL     1      24.184   0.297  53.191  1.00  0.00     0.032 A 
HETATM    2  C8  UNL     1      23.945   1.397  52.387  1.00  0.00     0.019 A 
HETATM    3  C9  UNL     1      22.645   1.791  52.195  1.00  0.00     0.030 A 
HETATM    4  C10 UNL     1      21.525   1.195  52.731  1.00  0.00     0.030 A 
HETATM    5  C15 UNL     1      21.844   0.125  53.506  1.00  0.00     0.030 A 
HETATM    6  C16 UNL     1      23.106  -0.353  53.763  1.00  0.00     0.019 A 
ENDROOT
BRANCH   1   7
HETATM    7  C1  UNL     1      25.514  -0.227  53.482  1.00  0.00     0.256 C 
HETATM    8  O1  UNL     1      25.795  -0.761  54.588  1.00  0.00    -0.267 OA
HETATM    9  N1  UNL     1      26.604  -0.192  52.573  1.00  0.00    -0.322 N 
HETATM   10  H1  UNL     1      26.448   0.234  51.637  1.00  0.00     0.169 HD
BRANCH   9  11
HETATM   11  C2  UNL     1      27.836  -0.742  53.012  1.00  0.00     0.046 A 
HETATM   12  C3  UNL     1      28.897  -0.227  53.565  1.00  0.00     0.003 A 
HETATM   13  C4  UNL     1      29.867  -1.126  53.766  1.00  0.00     0.014 A 
HETATM   14  C5  UNL     1      29.296  -2.385  53.314  1.00  0.00     0.003 A 
HETATM   15  C6  UNL     1      28.078  -2.180  52.858  1.00  0.00     0.030 A 
ENDBRANCH   9  11
ENDBRANCH   1   7
BRANCH   4  16
HETATM   16  N2  UNL     1      20.187   1.678  52.487  1.00  0.00    -0.379 N 
BRANCH  16  17
HETATM   17  C11 UNL     1      19.139   0.709  52.275  1.00  0.00     0.138 C 
BRANCH  17  18
HETATM   18  C12 UNL     1      19.007   0.132  50.916  1.00  0.00     0.134 C 
HETATM   19 CL1  UNL     1      17.332  -0.117  50.382  1.00  0.00    -0.129 Cl
ENDBRANCH  17  18
ENDBRANCH  16  17
BRANCH  16  20
HETATM   20  C13 UNL     1      19.974   3.104  52.460  1.00  0.00     0.138 C 
BRANCH  20  21
HETATM   21  C14 UNL     1      19.511   3.701  51.182  1.00  0.00     0.134 C 
HETATM   22 CL2  UNL     1      17.760   4.064  51.239  1.00  0.00    -0.129 Cl
ENDBRANCH  20  21
ENDBRANCH  16  20
ENDBRANCH   4  16
TORSDOF 7
ENDMDL
MODEL 5
REMARK VINA RESULT:      -6.1      1.892      2.673
REMARK  7 active torsions:
REMARK  status: ('A' for Active; 'I' for Inactive)
REMARK       I    between atoms: C1_2  and  N1_3 
REMARK    1  A    between atoms: C1_2  and  C7_9 
REMARK    2  A    between atoms: N1_3  and  C2_4 
REMARK    3  A    between atoms: C10_12  and  N2_13 
REMARK    4  A    between atoms: N2_13  and  C11_14 
REMARK    5  A    between atoms: N2_13  and  C13_17 
REMARK    6  A    between atoms: C11_14  and  C12_15 
REMARK    7  A    between atoms: C13_17  and  C14_18 
ROOT
HETATM    1  C7  UNL     1      24.333   0.824  52.538  1.00  0.00     0.032 A 
HETATM    2  C8  UNL     1      24.284   1.724  51.489  1.00  0.00     0.019 A 
HETATM    3  C9  UNL     1      23.069   2.262  51.151  1.00  0.00     0.030 A 
HETATM    4  C10 UNL     1      21.862   1.996  51.760  1.00  0.00     0.030 A 
HETATM    5  C15 UNL     1      21.995   1.105  52.776  1.00  0.00     0.030 A 
HETATM    6  C16 UNL     1      23.159   0.508  53.196  1.00  0.00     0.019 A 
ENDROOT
BRANCH   1   7
HETATM    7  C1  UNL     1      25.556   0.181  53.004  1.00  0.00     0.256 C 
HETATM    8  O1  UNL     1      25.699  -0.200  54.197  1.00  0.00    -0.267 OA
HETATM    9  N1  UNL     1      26.687  -0.078  52.185  1.00  0.00    -0.322 N 
HETATM   10  H1  UNL     1      26.643   0.208  51.185  1.00  0.00     0.169 HD
BRANCH   9  11
HETATM   11  C2  UNL     1      27.802  -0.710  52.793  1.00  0.00     0.046 A 
HETATM   12  C3  UNL     1      28.831  -0.262  53.453  1.00  0.00     0.003 A 
HETATM   13  C4  UNL     1      29.684  -1.230  53.806  1.00  0.00     0.014 A 
HETATM   14  C5  UNL     1      29.059  -2.456  53.336  1.00  0.00     0.003 A 
HETATM   15  C6  UNL     1      27.928  -2.170  52.726  1.00  0.00     0.030 A 
ENDBRANCH   9  11
ENDBRANCH   1   7
BRANCH   4  16
HETATM   16  N2  UNL     1      20.623   2.613  51.348  1.00  0.00    -0.379 N 
BRANCH  16  17
HETATM   17  C11 UNL     1      20.655   3.541  50.244  1.00  0.00     0.138 C 
BRANCH  17  18
HETATM   18  C12 UNL     1      20.478   4.980  50.555  1.00  0.00     0.134 C 
HETATM   19 CL1  UNL     1      21.787   5.689  51.523  1.00  0.00    -0.129 Cl
ENDBRANCH  17  18
ENDBRANCH  16  17
BRANCH  16  20
HETATM   20  C13 UNL     1      19.422   2.272  52.071  1.00  0.00     0.138 C 
BRANCH  20  21
HETATM   21  C14 UNL     1      18.474   1.336  51.414  1.00  0.00     0.134 C 
HETATM   22 CL2  UNL     1      18.659  -0.322  52.059  1.00  0.00    -0.129 Cl
ENDBRANCH  20  21
ENDBRANCH  16  20
ENDBRANCH   4  16
TORSDOF 7
ENDMDL
MODEL 6
REMARK VINA RESULT:      -6.1      7.885     10.341
REMARK  7 active torsions:
REMARK  status: ('A' for Active; 'I' for Inactive)
REMARK       I    between atoms: C1_2  and  N1_3 
REMARK    1  A    between atoms: C1_2  and  C7_9 
REMARK    2  A    between atoms: N1_3  and  C2_4 
REMARK    3  A    between atoms: C10_12  and  N2_13 
REMARK    4  A    between atoms: N2_13  and  C11_14 
REMARK    5  A    between atoms: N2_13  and  C13_17 
REMARK    6  A    between atoms: C11_14  and  C12_15 
REMARK    7  A    between atoms: C13_17  and  C14_18 
ROOT
HETATM    1  C7  UNL     1      26.572   5.020  49.082  1.00  0.00     0.032 A 
HETATM    2  C8  UNL     1      25.775   6.095  48.732  1.00  0.00     0.019 A 
HETATM    3  C9  UNL     1      26.350   7.133  48.044  1.00  0.00     0.030 A 
HETATM    4  C10 UNL     1      27.668   7.222  47.655  1.00  0.00     0.030 A 
HETATM    5  C15 UNL     1      28.382   6.130  48.037  1.00  0.00     0.030 A 
HETATM    6  C16 UNL     1      27.907   5.041  48.725  1.00  0.00     0.019 A 
ENDROOT
BRANCH   1   7
HETATM    7  C1  UNL     1      26.090   3.850  49.808  1.00  0.00     0.256 C 
HETATM    8  O1  UNL     1      25.162   3.122  49.365  1.00  0.00    -0.267 OA
HETATM    9  N1  UNL     1      26.603   3.419  51.061  1.00  0.00    -0.322 N 
HETATM   10  H1  UNL     1      27.373   3.971  51.491  1.00  0.00     0.169 HD
BRANCH   9  11
HETATM   11  C2  UNL     1      26.021   2.260  51.638  1.00  0.00     0.046 A 
HETATM   12  C3  UNL     1      24.876   2.029  52.213  1.00  0.00     0.003 A 
HETATM   13  C4  UNL     1      24.768   0.776  52.670  1.00  0.00     0.014 A 
HETATM   14  C5  UNL     1      26.010   0.134  52.271  1.00  0.00     0.003 A 
HETATM   15  C6  UNL     1      26.779   1.004  51.650  1.00  0.00     0.030 A 
ENDBRANCH   9  11
ENDBRANCH   1   7
BRANCH   4  16
HETATM   16  N2  UNL     1      28.196   8.350  46.924  1.00  0.00    -0.379 N 
BRANCH  16  17
HETATM   17  C11 UNL     1      28.655   8.134  45.574  1.00  0.00     0.138 C 
BRANCH  17  18
HETATM   18  C12 UNL     1      30.085   8.403  45.287  1.00  0.00     0.134 C 
HETATM   19 CL1  UNL     1      31.222   7.463  46.274  1.00  0.00    -0.129 Cl
ENDBRANCH  17  18
ENDBRANCH  16  17
BRANCH  16  20
HETATM   20  C13 UNL     1      28.242   9.629  47.590  1.00  0.00     0.138 C 
BRANCH  20  21
HETATM   21  C14 UNL     1      28.950   9.693  48.894  1.00  0.00     0.134 C 
HETATM   22 CL2  UNL     1      27.809   9.477  50.255  1.00  0.00    -0.129 Cl
ENDBRANCH  20  21
ENDBRANCH  16  20
ENDBRANCH   4  16
TORSDOF 7
ENDMDL
MODEL 7
REMARK VINA RESULT:      -6.0      7.066      8.166
REMARK  7 active torsions:
REMARK  status: ('A' for Active; 'I' for Inactive)
REMARK       I    between atoms: C1_2  and  N1_3 
REMARK    1  A    between atoms: C1_2  and  C7_9 
REMARK    2  A    between atoms: N1_3  and  C2_4 
REMARK    3  A    between atoms: C10_12  and  N2_13 
REMARK    4  A    between atoms: N2_13  and  C11_14 
REMARK    5  A    between atoms: N2_13  and  C13_17 
REMARK    6  A    between atoms: C11_14  and  C12_15 
REMARK    7  A    between atoms: C13_17  and  C14_18 
ROOT
HETATM    1  C7  UNL     1      27.308   5.767  48.581  1.00  0.00     0.032 A 
HETATM    2  C8  UNL     1      26.142   6.506  48.489  1.00  0.00     0.019 A 
HETATM    3  C9  UNL     1      24.963   5.909  48.859  1.00  0.00     0.030 A 
HETATM    4  C10 UNL     1      24.812   4.622  49.323  1.00  0.00     0.030 A 
HETATM    5  C15 UNL     1      26.000   3.964  49.382  1.00  0.00     0.030 A 
HETATM    6  C16 UNL     1      27.232   4.465  49.038  1.00  0.00     0.019 A 
ENDROOT
BRANCH   1   7
HETATM    7  C1  UNL     1      28.627   6.277  48.226  1.00  0.00     0.256 C 
HETATM    8  O1  UNL     1      28.814   6.999  47.211  1.00  0.00    -0.267 OA
HETATM    9  N1  UNL     1      29.810   6.022  48.969  1.00  0.00    -0.322 N 
HETATM   10  H1  UNL     1      29.735   5.432  49.823  1.00  0.00     0.169 HD
BRANCH   9  11
HETATM   11  C2  UNL     1      31.017   6.591  48.487  1.00  0.00     0.046 A 
HETATM   12  C3  UNL     1      31.854   6.247  47.550  1.00  0.00     0.003 A 
HETATM   13  C4  UNL     1      32.912   7.063  47.472  1.00  0.00     0.014 A 
HETATM   14  C5  UNL     1      32.659   8.084  48.477  1.00  0.00     0.003 A 
HETATM   15  C6  UNL     1      31.528   7.822  49.099  1.00  0.00     0.030 A 
ENDBRANCH   9  11
ENDBRANCH   1   7
BRANCH   4  16
HETATM   16  N2  UNL     1      23.533   4.068  49.700  1.00  0.00    -0.379 N 
BRANCH  16  17
HETATM   17  C11 UNL     1      22.754   4.764  50.695  1.00  0.00     0.138 C 
BRANCH  17  18
HETATM   18  C12 UNL     1      23.379   4.982  52.022  1.00  0.00     0.134 C 
HETATM   19 CL1  UNL     1      23.998   3.508  52.794  1.00  0.00    -0.129 Cl
ENDBRANCH  17  18
ENDBRANCH  16  17
BRANCH  16  20
HETATM   20  C13 UNL     1      23.109   2.845  49.065  1.00  0.00     0.138 C 
BRANCH  20  21
HETATM   21  C14 UNL     1      22.458   1.822  49.922  1.00  0.00     0.134 C 
HETATM   22 CL2  UNL     1      21.257   0.875  48.993  1.00  0.00    -0.129 Cl
ENDBRANCH  20  21
ENDBRANCH  16  20
ENDBRANCH   4  16
TORSDOF 7
ENDMDL
MODEL 8
REMARK VINA RESULT:      -6.0      7.886     10.259
REMARK  7 active torsions:
REMARK  status: ('A' for Active; 'I' for Inactive)
REMARK       I    between atoms: C1_2  and  N1_3 
REMARK    1  A    between atoms: C1_2  and  C7_9 
REMARK    2  A    between atoms: N1_3  and  C2_4 
REMARK    3  A    between atoms: C10_12  and  N2_13 
REMARK    4  A    between atoms: N2_13  and  C11_14 
REMARK    5  A    between atoms: N2_13  and  C13_17 
REMARK    6  A    between atoms: C11_14  and  C12_15 
REMARK    7  A    between atoms: C13_17  and  C14_18 
ROOT
HETATM    1  C7  UNL     1      26.583   4.878  49.284  1.00  0.00     0.032 A 
HETATM    2  C8  UNL     1      25.721   5.911  48.961  1.00  0.00     0.019 A 
HETATM    3  C9  UNL     1      26.223   6.984  48.270  1.00  0.00     0.030 A 
HETATM    4  C10 UNL     1      27.525   7.147  47.852  1.00  0.00     0.030 A 
HETATM    5  C15 UNL     1      28.305   6.094  48.207  1.00  0.00     0.030 A 
HETATM    6  C16 UNL     1      27.907   4.975  48.897  1.00  0.00     0.019 A 
ENDROOT
BRANCH   1   7
HETATM    7  C1  UNL     1      26.183   3.679  50.011  1.00  0.00     0.256 C 
HETATM    8  O1  UNL     1      25.246   2.937  49.614  1.00  0.00    -0.267 OA
HETATM    9  N1  UNL     1      26.792   3.232  51.214  1.00  0.00    -0.322 N 
HETATM   10  H1  UNL     1      27.576   3.794  51.604  1.00  0.00     0.169 HD
BRANCH   9  11
HETATM   11  C2  UNL     1      26.282   2.044  51.800  1.00  0.00     0.046 A 
HETATM   12  C3  UNL     1      26.614   0.789  51.705  1.00  0.00     0.003 A 
HETATM   13  C4  UNL     1      25.808  -0.017  52.406  1.00  0.00     0.014 A 
HETATM   14  C5  UNL     1      24.877   0.885  53.066  1.00  0.00     0.003 A 
HETATM   15  C6  UNL     1      25.142   2.127  52.718  1.00  0.00     0.030 A 
ENDBRANCH   9  11
ENDBRANCH   1   7
BRANCH   4  16
HETATM   16  N2  UNL     1      27.973   8.308  47.118  1.00  0.00    -0.379 N 
BRANCH  16  17
HETATM   17  C11 UNL     1      27.846   9.602  47.742  1.00  0.00     0.138 C 
BRANCH  17  18
HETATM   18  C12 UNL     1      28.455   9.777  49.083  1.00  0.00     0.134 C 
HETATM   19 CL1  UNL     1      30.137   9.220  49.205  1.00  0.00    -0.129 Cl
ENDBRANCH  17  18
ENDBRANCH  16  17
BRANCH  16  20
HETATM   20  C13 UNL     1      28.516   8.107  45.797  1.00  0.00     0.138 C 
BRANCH  20  21
HETATM   21  C14 UNL     1      29.912   8.555  45.558  1.00  0.00     0.134 C 
HETATM   22 CL2  UNL     1      31.085   7.403  46.263  1.00  0.00    -0.129 Cl
ENDBRANCH  20  21
ENDBRANCH  16  20
ENDBRANCH   4  16
TORSDOF 7
ENDMDL
MODEL 9
REMARK VINA RESULT:      -5.9      3.288      4.897
REMARK  7 active torsions:
REMARK  status: ('A' for Active; 'I' for Inactive)
REMARK       I    between atoms: C1_2  and  N1_3 
REMARK    1  A    between atoms: C1_2  and  C7_9 
REMARK    2  A    between atoms: N1_3  and  C2_4 
REMARK    3  A    between atoms: C10_12  and  N2_13 
REMARK    4  A    between atoms: N2_13  and  C11_14 
REMARK    5  A    between atoms: N2_13  and  C13_17 
REMARK    6  A    between atoms: C11_14  and  C12_15 
REMARK    7  A    between atoms: C13_17  and  C14_18 
ROOT
HETATM    1  C7  UNL     1      24.857   2.547  51.825  1.00  0.00     0.032 A 
HETATM    2  C8  UNL     1      24.306   2.542  50.555  1.00  0.00     0.019 A 
HETATM    3  C9  UNL     1      23.105   3.177  50.366  1.00  0.00     0.030 A 
HETATM    4  C10 UNL     1      22.371   3.835  51.327  1.00  0.00     0.030 A 
HETATM    5  C15 UNL     1      22.977   3.794  52.542  1.00  0.00     0.030 A 
HETATM    6  C16 UNL     1      24.174   3.189  52.840  1.00  0.00     0.019 A 
ENDROOT
BRANCH   1   7
HETATM    7  C1  UNL     1      26.127   1.916  52.165  1.00  0.00     0.256 C 
HETATM    8  O1  UNL     1      27.193   2.185  51.550  1.00  0.00    -0.267 OA
HETATM    9  N1  UNL     1      26.292   0.957  53.199  1.00  0.00    -0.322 N 
HETATM   10  H1  UNL     1      25.455   0.685  53.753  1.00  0.00     0.169 HD
BRANCH   9  11
HETATM   11  C2  UNL     1      27.596   0.435  53.401  1.00  0.00     0.046 A 
HETATM   12  C3  UNL     1      28.700   0.947  53.865  1.00  0.00     0.003 A 
HETATM   13  C4  UNL     1      29.727   0.091  53.826  1.00  0.00     0.014 A 
HETATM   14  C5  UNL     1      29.154  -1.142  53.308  1.00  0.00     0.003 A 
HETATM   15  C6  UNL     1      27.877  -0.960  53.046  1.00  0.00     0.030 A 
ENDBRANCH   9  11
ENDBRANCH   1   7
BRANCH   4  16
HETATM   16  N2  UNL     1      21.114   4.487  51.044  1.00  0.00    -0.379 N 
BRANCH  16  17
HETATM   17  C11 UNL     1      19.907   3.910  51.584  1.00  0.00     0.138 C 
BRANCH  17  18
HETATM   18  C12 UNL     1      19.804   2.431  51.598  1.00  0.00     0.134 C 
HETATM   19 CL1  UNL     1      19.724   1.685  49.989  1.00  0.00    -0.129 Cl
ENDBRANCH  17  18
ENDBRANCH  16  17
BRANCH  16  20
HETATM   20  C13 UNL     1      21.136   5.677  50.229  1.00  0.00     0.138 C 
BRANCH  20  21
HETATM   21  C14 UNL     1      21.549   6.945  50.884  1.00  0.00     0.134 C 
HETATM   22 CL2  UNL     1      23.304   7.229  50.682  1.00  0.00    -0.129 Cl
ENDBRANCH  20  21
ENDBRANCH  16  20
ENDBRANCH   4  16
TORSDOF 7
ENDMDL
