MODEL 1
REMARK VINA RESULT:      -7.6      0.000      0.000
REMARK  6 active torsions:
REMARK  status: ('A' for Active; 'I' for Inactive)
REMARK    1  A    between atoms: N1_1  and  C1_2 
REMARK    2  A    between atoms: C2_3  and  S1_4 
REMARK    3  A    between atoms: S1_4  and  C3_5 
REMARK    4  A    between atoms: C3_5  and  C4_6 
REMARK    5  A    between atoms: C8_10  and  N2_11 
REMARK    6  A    between atoms: N2_11  and  C9_12 
ROOT
HETATM    1  C1  UNL     1      28.459   1.356  53.748  1.00  0.00     0.025 A 
HETATM    2  C2  UNL     1      27.357   1.069  53.092  1.00  0.00     0.077 A 
HETATM    3  C8  UNL     1      26.740  -0.187  53.450  1.00  0.00     0.142 A 
HETATM    4  N3  UNL     1      27.515  -0.652  54.355  1.00  0.00    -0.266 NA
HETATM    5  C15 UNL     1      28.632   0.198  54.650  1.00  0.00     0.203 A 
ENDROOT
BRANCH   3   6
HETATM    6  N2  UNL     1      25.563  -0.779  52.926  1.00  0.00    -0.340 N 
HETATM    7  H6  UNL     1      25.615  -1.451  52.135  1.00  0.00     0.167 HD
BRANCH   6   8
HETATM    8  C9  UNL     1      24.275  -0.497  53.434  1.00  0.00     0.035 A 
HETATM    9  C10 UNL     1      23.688  -1.120  54.516  1.00  0.00     0.032 A 
HETATM   10  C11 UNL     1      22.429  -0.845  55.012  1.00  0.00     0.046 A 
HETATM   11  C12 UNL     1      21.759   0.142  54.325  1.00  0.00     0.138 A 
HETATM   12  F1  UNL     1      20.498   0.470  54.764  1.00  0.00    -0.204 F 
HETATM   13  C13 UNL     1      22.246   0.828  53.234  1.00  0.00     0.074 A 
HETATM   14 CL1  UNL     1      21.263   2.059  52.470  1.00  0.00    -0.081 Cl
HETATM   15  C14 UNL     1      23.513   0.491  52.803  1.00  0.00     0.056 A 
ENDBRANCH   6   8
ENDBRANCH   3   6
BRANCH   2  16
HETATM   16  S1  UNL     1      26.752   2.148  51.915  1.00  0.00    -0.041 SA
BRANCH  16  17
HETATM   17  C3  UNL     1      26.237   3.076  50.937  1.00  0.00    -0.067 C 
BRANCH  17  18
HETATM   18  C4  UNL     1      25.747   3.980  50.020  1.00  0.00     0.017 A 
HETATM   19  C5  UNL     1      24.513   4.123  49.501  1.00  0.00     0.020 A 
HETATM   20  C6  UNL     1      25.099   5.224  48.768  1.00  0.00     0.003 A 
HETATM   21  C7  UNL     1      26.311   5.096  49.265  1.00  0.00     0.020 A 
ENDBRANCH  17  18
ENDBRANCH  16  17
ENDBRANCH   2  16
BRANCH   1  22
HETATM   22  N1  UNL     1      29.139   2.572  53.467  1.00  0.00    -0.303 NA
HETATM   23  H1  UNL     1      29.526   3.180  54.198  1.00  0.00     0.124 HD
HETATM   24  H2  UNL     1      29.526   3.175  54.247  1.00  0.00     0.124 HD
ENDBRANCH   1  22
TORSDOF 6
ENDMDL
MODEL 2
REMARK VINA RESULT:      -7.2      3.561      5.349
REMARK  6 active torsions:
REMARK  status: ('A' for Active; 'I' for Inactive)
REMARK    1  A    between atoms: N1_1  and  C1_2 
REMARK    2  A    between atoms: C2_3  and  S1_4 
REMARK    3  A    between atoms: S1_4  and  C3_5 
REMARK    4  A    between atoms: C3_5  and  C4_6 
REMARK    5  A    between atoms: C8_10  and  N2_11 
REMARK    6  A    between atoms: N2_11  and  C9_12 
ROOT
HETATM    1  C1  UNL     1      23.552   2.472  50.338  1.00  0.00     0.025 A 
HETATM    2  C2  UNL     1      24.696   2.820  50.884  1.00  0.00     0.077 A 
HETATM    3  C8  UNL     1      24.927   2.295  52.209  1.00  0.00     0.142 A 
HETATM    4  N3  UNL     1      23.871   1.611  52.447  1.00  0.00    -0.266 NA
HETATM    5  C15 UNL     1      22.921   1.627  51.372  1.00  0.00     0.203 A 
ENDROOT
BRANCH   3   6
HETATM    6  N2  UNL     1      26.044   2.490  53.060  1.00  0.00    -0.340 N 
HETATM    7  H6  UNL     1      26.150   3.370  53.603  1.00  0.00     0.167 HD
BRANCH   6   8
HETATM    8  C9  UNL     1      27.063   1.523  53.217  1.00  0.00     0.035 A 
HETATM    9  C10 UNL     1      28.341   1.775  53.668  1.00  0.00     0.032 A 
HETATM   10  C11 UNL     1      29.337   0.830  53.821  1.00  0.00     0.046 A 
HETATM   11  C12 UNL     1      28.956  -0.447  53.476  1.00  0.00     0.138 A 
HETATM   12  F1  UNL     1      29.897  -1.441  53.603  1.00  0.00    -0.204 F 
HETATM   13  C13 UNL     1      27.710  -0.812  53.014  1.00  0.00     0.074 A 
HETATM   14 CL1  UNL     1      27.385  -2.486  52.617  1.00  0.00    -0.081 Cl
HETATM   15  C14 UNL     1      26.774   0.194  52.892  1.00  0.00     0.056 A 
ENDBRANCH   6   8
ENDBRANCH   3   6
BRANCH   2  16
HETATM   16  S1  UNL     1      25.787   3.820  50.032  1.00  0.00    -0.041 SA
BRANCH  16  17
HETATM   17  C3  UNL     1      26.722   4.645  49.306  1.00  0.00    -0.067 C 
BRANCH  17  18
HETATM   18  C4  UNL     1      27.606   5.452  48.624  1.00  0.00     0.017 A 
HETATM   19  C5  UNL     1      27.457   6.694  48.124  1.00  0.00     0.020 A 
HETATM   20  C6  UNL     1      28.830   6.537  47.696  1.00  0.00     0.003 A 
HETATM   21  C7  UNL     1      28.991   5.324  48.178  1.00  0.00     0.020 A 
ENDBRANCH  17  18
ENDBRANCH  16  17
ENDBRANCH   2  16
BRANCH   1  22
HETATM   22  N1  UNL     1      23.235   2.938  49.033  1.00  0.00    -0.303 NA
HETATM   23  H1  UNL     1      23.896   3.463  48.448  1.00  0.00     0.124 HD
HETATM   24  H2  UNL     1      23.942   3.477  48.457  1.00  0.00     0.124 HD
ENDBRANCH   1  22
TORSDOF 6
ENDMDL
MODEL 3
REMARK VINA RESULT:      -7.2      3.205      5.942
REMARK  6 active torsions:
REMARK  status: ('A' for Active; 'I' for Inactive)
REMARK    1  A    between atoms: N1_1  and  C1_2 
REMARK    2  A    between atoms: C2_3  and  S1_4 
REMARK    3  A    between atoms: S1_4  and  C3_5 
REMARK    4  A    between atoms: C3_5  and  C4_6 
REMARK    5  A    between atoms: C8_10  and  N2_11 
REMARK    6  A    between atoms: N2_11  and  C9_12 
ROOT
HETATM    1  C1  UNL     1      22.592  -1.069  54.816  1.00  0.00     0.025 A 
HETATM    2  C2  UNL     1      23.224  -0.494  53.817  1.00  0.00     0.077 A 
HETATM    3  C8  UNL     1      22.372   0.090  52.808  1.00  0.00     0.142 A 
HETATM    4  N3  UNL     1      21.192  -0.156  53.236  1.00  0.00    -0.266 NA
HETATM    5  C15 UNL     1      21.168  -0.872  54.479  1.00  0.00     0.203 A 
ENDROOT
BRANCH   3   6
HETATM    6  N2  UNL     1      22.740   0.766  51.616  1.00  0.00    -0.340 N 
HETATM    7  H6  UNL     1      22.748   0.267  50.705  1.00  0.00     0.167 HD
BRANCH   6   8
HETATM    8  C9  UNL     1      23.114   2.128  51.597  1.00  0.00     0.035 A 
HETATM    9  C10 UNL     1      22.553   3.122  52.372  1.00  0.00     0.032 A 
HETATM   10  C11 UNL     1      22.918   4.454  52.352  1.00  0.00     0.046 A 
HETATM   11  C12 UNL     1      23.930   4.745  51.465  1.00  0.00     0.138 A 
HETATM   12  F1  UNL     1      24.346   6.053  51.392  1.00  0.00    -0.204 F 
HETATM   13  C13 UNL     1      24.560   3.835  50.644  1.00  0.00     0.074 A 
HETATM   14 CL1  UNL     1      25.833   4.371  49.568  1.00  0.00    -0.081 Cl
HETATM   15  C14 UNL     1      24.134   2.526  50.727  1.00  0.00     0.056 A 
ENDBRANCH   6   8
ENDBRANCH   3   6
BRANCH   2  16
HETATM   16  S1  UNL     1      24.931  -0.471  53.778  1.00  0.00    -0.041 SA
BRANCH  16  17
HETATM   17  C3  UNL     1      26.374  -0.449  53.769  1.00  0.00    -0.067 C 
BRANCH  17  18
HETATM   18  C4  UNL     1      27.752  -0.426  53.784  1.00  0.00     0.017 A 
HETATM   19  C5  UNL     1      28.610   0.440  54.356  1.00  0.00     0.020 A 
HETATM   20  C6  UNL     1      29.632  -0.416  53.793  1.00  0.00     0.003 A 
HETATM   21  C7  UNL     1      28.806  -1.270  53.229  1.00  0.00     0.020 A 
ENDBRANCH  17  18
ENDBRANCH  16  17
ENDBRANCH   2  16
BRANCH   1  22
HETATM   22  N1  UNL     1      23.346  -1.671  55.860  1.00  0.00    -0.303 NA
HETATM   23  H1  UNL     1      24.342  -1.480  56.015  1.00  0.00     0.124 HD
HETATM   24  H2  UNL     1      24.373  -1.450  55.991  1.00  0.00     0.124 HD
ENDBRANCH   1  22
TORSDOF 6
ENDMDL
MODEL 4
REMARK VINA RESULT:      -7.1      3.440      6.325
REMARK  6 active torsions:
REMARK  status: ('A' for Active; 'I' for Inactive)
REMARK    1  A    between atoms: N1_1  and  C1_2 
REMARK    2  A    between atoms: C2_3  and  S1_4 
REMARK    3  A    between atoms: S1_4  and  C3_5 
REMARK    4  A    between atoms: C3_5  and  C4_6 
REMARK    5  A    between atoms: C8_10  and  N2_11 
REMARK    6  A    between atoms: N2_11  and  C9_12 
ROOT
HETATM    1  C1  UNL     1      23.498   4.967  51.607  1.00  0.00     0.025 A 
HETATM    2  C2  UNL     1      24.059   3.780  51.559  1.00  0.00     0.077 A 
HETATM    3  C8  UNL     1      25.282   3.712  50.793  1.00  0.00     0.142 A 
HETATM    4  N3  UNL     1      25.440   4.911  50.376  1.00  0.00    -0.266 NA
HETATM    5  C15 UNL     1      24.406   5.810  50.803  1.00  0.00     0.203 A 
ENDROOT
BRANCH   3   6
HETATM    6  N2  UNL     1      26.113   2.589  50.544  1.00  0.00    -0.340 N 
HETATM    7  H6  UNL     1      26.287   2.265  49.573  1.00  0.00     0.167 HD
BRANCH   6   8
HETATM    8  C9  UNL     1      26.737   1.858  51.579  1.00  0.00     0.035 A 
HETATM    9  C10 UNL     1      27.514   2.398  52.583  1.00  0.00     0.032 A 
HETATM   10  C11 UNL     1      28.125   1.684  53.594  1.00  0.00     0.046 A 
HETATM   11  C12 UNL     1      27.900   0.327  53.537  1.00  0.00     0.138 A 
HETATM   12  F1  UNL     1      28.478  -0.450  54.514  1.00  0.00    -0.204 F 
HETATM   13  C13 UNL     1      27.144  -0.319  52.583  1.00  0.00     0.074 A 
HETATM   14 CL1  UNL     1      26.956  -2.058  52.652  1.00  0.00    -0.081 Cl
HETATM   15  C14 UNL     1      26.569   0.470  51.609  1.00  0.00     0.056 A 
ENDBRANCH   6   8
ENDBRANCH   3   6
BRANCH   2  16
HETATM   16  S1  UNL     1      23.345   2.457  52.368  1.00  0.00    -0.041 SA
BRANCH  16  17
HETATM   17  C3  UNL     1      22.751   1.323  53.035  1.00  0.00    -0.067 C 
BRANCH  17  18
HETATM   18  C4  UNL     1      22.197   0.245  53.690  1.00  0.00     0.017 A 
HETATM   19  C5  UNL     1      22.537  -1.058  53.680  1.00  0.00     0.020 A 
HETATM   20  C6  UNL     1      21.427  -1.212  54.595  1.00  0.00     0.003 A 
HETATM   21  C7  UNL     1      21.083   0.057  54.615  1.00  0.00     0.020 A 
ENDBRANCH  17  18
ENDBRANCH  16  17
ENDBRANCH   2  16
BRANCH   1  22
HETATM   22  N1  UNL     1      22.291   5.136  52.339  1.00  0.00    -0.303 NA
HETATM   23  H1  UNL     1      21.367   4.896  51.961  1.00  0.00     0.124 HD
HETATM   24  H2  UNL     1      21.355   4.878  51.918  1.00  0.00     0.124 HD
ENDBRANCH   1  22
TORSDOF 6
ENDMDL
MODEL 5
REMARK VINA RESULT:      -7.0      3.422      5.168
REMARK  6 active torsions:
REMARK  status: ('A' for Active; 'I' for Inactive)
REMARK    1  A    between atoms: N1_1  and  C1_2 
REMARK    2  A    between atoms: C2_3  and  S1_4 
REMARK    3  A    between atoms: S1_4  and  C3_5 
REMARK    4  A    between atoms: C3_5  and  C4_6 
REMARK    5  A    between atoms: C8_10  and  N2_11 
REMARK    6  A    between atoms: N2_11  and  C9_12 
ROOT
HETATM    1  C1  UNL     1      22.038   1.172  50.603  1.00  0.00     0.025 A 
HETATM    2  C2  UNL     1      23.113   1.570  51.246  1.00  0.00     0.077 A 
HETATM    3  C8  UNL     1      23.288   0.997  52.561  1.00  0.00     0.142 A 
HETATM    4  N3  UNL     1      22.270   0.233  52.690  1.00  0.00    -0.266 NA
HETATM    5  C15 UNL     1      21.399   0.236  51.550  1.00  0.00     0.203 A 
ENDROOT
BRANCH   3   6
HETATM    6  N2  UNL     1      24.326   1.226  53.499  1.00  0.00    -0.340 N 
HETATM    7  H6  UNL     1      24.186   1.877  54.297  1.00  0.00     0.167 HD
BRANCH   6   8
HETATM    8  C9  UNL     1      25.590   0.600  53.407  1.00  0.00     0.035 A 
HETATM    9  C10 UNL     1      25.824  -0.654  52.883  1.00  0.00     0.032 A 
HETATM   10  C11 UNL     1      27.058  -1.267  52.794  1.00  0.00     0.046 A 
HETATM   11  C12 UNL     1      28.097  -0.509  53.286  1.00  0.00     0.138 A 
HETATM   12  F1  UNL     1      29.357  -1.056  53.229  1.00  0.00    -0.204 F 
HETATM   13  C13 UNL     1      27.979   0.751  53.831  1.00  0.00     0.074 A 
HETATM   14 CL1  UNL     1      29.405   1.583  54.415  1.00  0.00    -0.081 Cl
HETATM   15  C14 UNL     1      26.710   1.289  53.882  1.00  0.00     0.056 A 
ENDBRANCH   6   8
ENDBRANCH   3   6
BRANCH   2  16
HETATM   16  S1  UNL     1      24.187   2.683  50.522  1.00  0.00    -0.041 SA
BRANCH  16  17
HETATM   17  C3  UNL     1      25.105   3.627  49.932  1.00  0.00    -0.067 C 
BRANCH  17  18
HETATM   18  C4  UNL     1      25.966   4.534  49.352  1.00  0.00     0.017 A 
HETATM   19  C5  UNL     1      27.257   4.412  48.992  1.00  0.00     0.020 A 
HETATM   20  C6  UNL     1      27.122   5.786  48.558  1.00  0.00     0.003 A 
HETATM   21  C7  UNL     1      25.860   5.920  48.905  1.00  0.00     0.020 A 
ENDBRANCH  17  18
ENDBRANCH  16  17
ENDBRANCH   2  16
BRANCH   1  22
HETATM   22  N1  UNL     1      21.781   1.679  49.300  1.00  0.00    -0.303 NA
HETATM   23  H1  UNL     1      21.802   1.094  48.457  1.00  0.00     0.124 HD
HETATM   24  H2  UNL     1      21.811   1.046  48.452  1.00  0.00     0.124 HD
ENDBRANCH   1  22
TORSDOF 6
ENDMDL
MODEL 6
REMARK VINA RESULT:      -6.9      3.605      5.069
REMARK  6 active torsions:
REMARK  status: ('A' for Active; 'I' for Inactive)
REMARK    1  A    between atoms: N1_1  and  C1_2 
REMARK    2  A    between atoms: C2_3  and  S1_4 
REMARK    3  A    between atoms: S1_4  and  C3_5 
REMARK    4  A    between atoms: C3_5  and  C4_6 
REMARK    5  A    between atoms: C8_10  and  N2_11 
REMARK    6  A    between atoms: N2_11  and  C9_12 
ROOT
HETATM    1  C1  UNL     1      22.115   4.771  51.645  1.00  0.00     0.025 A 
HETATM    2  C2  UNL     1      23.102   3.974  51.301  1.00  0.00     0.077 A 
HETATM    3  C8  UNL     1      22.937   2.592  51.687  1.00  0.00     0.142 A 
HETATM    4  N3  UNL     1      21.805   2.583  52.283  1.00  0.00    -0.266 NA
HETATM    5  C15 UNL     1      21.171   3.869  52.336  1.00  0.00     0.203 A 
ENDROOT
BRANCH   3   6
HETATM    6  N2  UNL     1      23.815   1.499  51.475  1.00  0.00    -0.340 N 
HETATM    7  H6  UNL     1      23.773   0.949  50.594  1.00  0.00     0.167 HD
BRANCH   6   8
HETATM    8  C9  UNL     1      24.777   1.096  52.428  1.00  0.00     0.035 A 
HETATM    9  C10 UNL     1      24.661   0.011  53.272  1.00  0.00     0.032 A 
HETATM   10  C11 UNL     1      25.601  -0.382  54.204  1.00  0.00     0.046 A 
HETATM   11  C12 UNL     1      26.721   0.417  54.242  1.00  0.00     0.138 A 
HETATM   12  F1  UNL     1      27.701   0.085  55.147  1.00  0.00    -0.204 F 
HETATM   13  C13 UNL     1      26.942   1.522  53.449  1.00  0.00     0.074 A 
HETATM   14 CL1  UNL     1      28.426   2.435  53.624  1.00  0.00    -0.081 Cl
HETATM   15  C14 UNL     1      25.952   1.845  52.544  1.00  0.00     0.056 A 
ENDBRANCH   6   8
ENDBRANCH   3   6
BRANCH   2  16
HETATM   16  S1  UNL     1      24.452   4.591  50.456  1.00  0.00    -0.041 SA
BRANCH  16  17
HETATM   17  C3  UNL     1      25.586   5.098  49.723  1.00  0.00    -0.067 C 
BRANCH  17  18
HETATM   18  C4  UNL     1      26.657   5.600  49.015  1.00  0.00     0.017 A 
HETATM   19  C5  UNL     1      26.871   6.824  48.496  1.00  0.00     0.020 A 
HETATM   20  C6  UNL     1      28.130   6.265  48.054  1.00  0.00     0.003 A 
HETATM   21  C7  UNL     1      27.935   5.064  48.555  1.00  0.00     0.020 A 
ENDBRANCH  17  18
ENDBRANCH  16  17
ENDBRANCH   2  16
BRANCH   1  22
HETATM   22  N1  UNL     1      22.185   6.149  51.307  1.00  0.00    -0.303 NA
HETATM   23  H1  UNL     1      23.068   6.636  51.114  1.00  0.00     0.124 HD
HETATM   24  H2  UNL     1      23.114   6.619  51.114  1.00  0.00     0.124 HD
ENDBRANCH   1  22
TORSDOF 6
ENDMDL
MODEL 7
REMARK VINA RESULT:      -6.9      3.161      6.470
REMARK  6 active torsions:
REMARK  status: ('A' for Active; 'I' for Inactive)
REMARK    1  A    between atoms: N1_1  and  C1_2 
REMARK    2  A    between atoms: C2_3  and  S1_4 
REMARK    3  A    between atoms: S1_4  and  C3_5 
REMARK    4  A    between atoms: C3_5  and  C4_6 
REMARK    5  A    between atoms: C8_10  and  N2_11 
REMARK    6  A    between atoms: N2_11  and  C9_12 
ROOT
HETATM    1  C1  UNL     1      27.258   1.091  54.007  1.00  0.00     0.025 A 
HETATM    2  C2  UNL     1      26.305   1.270  53.120  1.00  0.00     0.077 A 
HETATM    3  C8  UNL     1      26.666   2.095  51.991  1.00  0.00     0.142 A 
HETATM    4  N3  UNL     1      27.882   2.411  52.230  1.00  0.00    -0.266 NA
HETATM    5  C15 UNL     1      28.391   1.858  53.453  1.00  0.00     0.203 A 
ENDROOT
BRANCH   3   6
HETATM    6  N2  UNL     1      25.870   2.480  50.882  1.00  0.00    -0.340 N 
HETATM    7  H6  UNL     1      25.156   1.834  50.492  1.00  0.00     0.167 HD
BRANCH   6   8
HETATM    8  C9  UNL     1      26.000   3.738  50.250  1.00  0.00     0.035 A 
HETATM    9  C10 UNL     1      26.943   4.059  49.296  1.00  0.00     0.032 A 
HETATM   10  C11 UNL     1      27.071   5.288  48.679  1.00  0.00     0.046 A 
HETATM   11  C12 UNL     1      26.151   6.223  49.096  1.00  0.00     0.138 A 
HETATM   12  F1  UNL     1      26.217   7.471  48.523  1.00  0.00    -0.204 F 
HETATM   13  C13 UNL     1      25.169   6.012  50.039  1.00  0.00     0.074 A 
HETATM   14 CL1  UNL     1      24.073   7.313  50.460  1.00  0.00    -0.081 Cl
HETATM   15  C14 UNL     1      25.111   4.756  50.606  1.00  0.00     0.056 A 
ENDBRANCH   6   8
ENDBRANCH   3   6
BRANCH   2  16
HETATM   16  S1  UNL     1      24.773   0.549  53.345  1.00  0.00    -0.041 SA
BRANCH  16  17
HETATM   17  C3  UNL     1      23.484  -0.063  53.559  1.00  0.00    -0.067 C 
BRANCH  17  18
HETATM   18  C4  UNL     1      22.243  -0.628  53.759  1.00  0.00     0.017 A 
HETATM   19  C5  UNL     1      21.879  -1.732  54.438  1.00  0.00     0.020 A 
HETATM   20  C6  UNL     1      20.539  -1.379  54.020  1.00  0.00     0.003 A 
HETATM   21  C7  UNL     1      20.879  -0.298  53.352  1.00  0.00     0.020 A 
ENDBRANCH  17  18
ENDBRANCH  16  17
ENDBRANCH   2  16
BRANCH   1  22
HETATM   22  N1  UNL     1      26.999   0.291  55.154  1.00  0.00    -0.303 NA
HETATM   23  H1  UNL     1      26.062  -0.051  55.400  1.00  0.00     0.124 HD
HETATM   24  H2  UNL     1      26.019  -0.044  55.377  1.00  0.00     0.124 HD
ENDBRANCH   1  22
TORSDOF 6
ENDMDL
MODEL 8
REMARK VINA RESULT:      -6.8      2.127      4.773
REMARK  6 active torsions:
REMARK  status: ('A' for Active; 'I' for Inactive)
REMARK    1  A    between atoms: N1_1  and  C1_2 
REMARK    2  A    between atoms: C2_3  and  S1_4 
REMARK    3  A    between atoms: S1_4  and  C3_5 
REMARK    4  A    between atoms: C3_5  and  C4_6 
REMARK    5  A    between atoms: C8_10  and  N2_11 
REMARK    6  A    between atoms: N2_11  and  C9_12 
ROOT
HETATM    1  C1  UNL     1      27.735   0.768  54.110  1.00  0.00     0.025 A 
HETATM    2  C2  UNL     1      26.744   1.171  53.346  1.00  0.00     0.077 A 
HETATM    3  C8  UNL     1      27.082   2.208  52.400  1.00  0.00     0.142 A 
HETATM    4  N3  UNL     1      28.324   2.420  52.622  1.00  0.00    -0.266 NA
HETATM    5  C15 UNL     1      28.872   1.596  53.661  1.00  0.00     0.203 A 
ENDROOT
BRANCH   3   6
HETATM    6  N2  UNL     1      26.246   2.855  51.454  1.00  0.00    -0.340 N 
HETATM    7  H6  UNL     1      26.654   3.328  50.623  1.00  0.00     0.167 HD
BRANCH   6   8
HETATM    8  C9  UNL     1      24.840   2.898  51.582  1.00  0.00     0.035 A 
HETATM    9  C10 UNL     1      24.143   3.663  52.493  1.00  0.00     0.032 A 
HETATM   10  C11 UNL     1      22.769   3.704  52.619  1.00  0.00     0.046 A 
HETATM   11  C12 UNL     1      22.100   2.892  51.731  1.00  0.00     0.138 A 
HETATM   12  F1  UNL     1      20.726   2.882  51.798  1.00  0.00    -0.204 F 
HETATM   13  C13 UNL     1      22.692   2.087  50.782  1.00  0.00     0.074 A 
HETATM   14 CL1  UNL     1      21.694   1.110  49.726  1.00  0.00    -0.081 Cl
HETATM   15  C14 UNL     1      24.070   2.106  50.724  1.00  0.00     0.056 A 
ENDBRANCH   6   8
ENDBRANCH   3   6
BRANCH   2  16
HETATM   16  S1  UNL     1      25.193   0.474  53.510  1.00  0.00    -0.041 SA
BRANCH  16  17
HETATM   17  C3  UNL     1      23.887  -0.118  53.672  1.00  0.00    -0.067 C 
BRANCH  17  18
HETATM   18  C4  UNL     1      22.630  -0.661  53.827  1.00  0.00     0.017 A 
HETATM   19  C5  UNL     1      21.514  -0.518  53.088  1.00  0.00     0.020 A 
HETATM   20  C6  UNL     1      20.924  -1.416  54.056  1.00  0.00     0.003 A 
HETATM   21  C7  UNL     1      22.007  -1.566  54.788  1.00  0.00     0.020 A 
ENDBRANCH  17  18
ENDBRANCH  16  17
ENDBRANCH   2  16
BRANCH   1  22
HETATM   22  N1  UNL     1      27.501  -0.252  55.072  1.00  0.00    -0.303 NA
HETATM   23  H1  UNL     1      28.179  -0.995  55.279  1.00  0.00     0.124 HD
HETATM   24  H2  UNL     1      28.223  -1.003  55.260  1.00  0.00     0.124 HD
ENDBRANCH   1  22
TORSDOF 6
ENDMDL
MODEL 9
REMARK VINA RESULT:      -6.8      4.260      6.097
REMARK  6 active torsions:
REMARK  status: ('A' for Active; 'I' for Inactive)
REMARK    1  A    between atoms: N1_1  and  C1_2 
REMARK    2  A    between atoms: C2_3  and  S1_4 
REMARK    3  A    between atoms: S1_4  and  C3_5 
REMARK    4  A    between atoms: C3_5  and  C4_6 
REMARK    5  A    between atoms: C8_10  and  N2_11 
REMARK    6  A    between atoms: N2_11  and  C9_12 
ROOT
HETATM    1  C1  UNL     1      22.250  -1.192  54.792  1.00  0.00     0.025 A 
HETATM    2  C2  UNL     1      22.885  -0.588  53.812  1.00  0.00     0.077 A 
HETATM    3  C8  UNL     1      24.319  -0.512  53.966  1.00  0.00     0.142 A 
HETATM    4  N3  UNL     1      24.530  -1.096  55.084  1.00  0.00    -0.266 NA
HETATM    5  C15 UNL     1      23.335  -1.575  55.718  1.00  0.00     0.203 A 
ENDROOT
BRANCH   3   6
HETATM    6  N2  UNL     1      25.276   0.077  53.100  1.00  0.00    -0.340 N 
HETATM    7  H6  UNL     1      24.974   0.670  52.302  1.00  0.00     0.167 HD
BRANCH   6   8
HETATM    8  C9  UNL     1      26.667  -0.106  53.263  1.00  0.00     0.035 A 
HETATM    9  C10 UNL     1      27.364  -1.255  52.955  1.00  0.00     0.032 A 
HETATM   10  C11 UNL     1      28.724  -1.434  53.115  1.00  0.00     0.046 A 
HETATM   11  C12 UNL     1      29.377  -0.337  53.629  1.00  0.00     0.138 A 
HETATM   12  F1  UNL     1      30.735  -0.442  53.815  1.00  0.00    -0.204 F 
HETATM   13  C13 UNL     1      28.784   0.858  53.972  1.00  0.00     0.074 A 
HETATM   14 CL1  UNL     1      29.760   2.162  54.616  1.00  0.00    -0.081 Cl
HETATM   15  C14 UNL     1      27.421   0.953  53.780  1.00  0.00     0.056 A 
ENDBRANCH   6   8
ENDBRANCH   3   6
BRANCH   2  16
HETATM   16  S1  UNL     1      22.017   0.037  52.480  1.00  0.00    -0.041 SA
BRANCH  16  17
HETATM   17  C3  UNL     1      21.290   0.587  51.362  1.00  0.00    -0.067 C 
BRANCH  17  18
HETATM   18  C4  UNL     1      20.616   1.113  50.281  1.00  0.00     0.017 A 
HETATM   19  C5  UNL     1      19.340   1.523  50.157  1.00  0.00     0.020 A 
HETATM   20  C6  UNL     1      19.717   1.831  48.794  1.00  0.00     0.003 A 
HETATM   21  C7  UNL     1      20.967   1.435  48.900  1.00  0.00     0.020 A 
ENDBRANCH  17  18
ENDBRANCH  16  17
ENDBRANCH   2  16
BRANCH   1  22
HETATM   22  N1  UNL     1      20.836  -1.319  54.730  1.00  0.00    -0.303 NA
HETATM   23  H1  UNL     1      20.302  -1.955  55.333  1.00  0.00     0.124 HD
HETATM   24  H2  UNL     1      20.318  -1.986  55.368  1.00  0.00     0.124 HD
ENDBRANCH   1  22
TORSDOF 6
ENDMDL
