MODEL 1
REMARK VINA RESULT:      -8.9      0.000      0.000
REMARK  3 active torsions:
REMARK  status: ('A' for Active; 'I' for Inactive)
REMARK    1  A    between atoms: C8_10  and  N2_11 
REMARK    2  A    between atoms: N2_11  and  C9_12 
REMARK    3  A    between atoms: C12_16  and  C13_17 
ROOT
HETATM    1  N2  UNL     1      22.759   1.863  50.807  1.00  0.00    -0.211 N 
HETATM    2  H11 UNL     1      22.665   1.387  49.884  1.00  0.00     0.179 HD
ENDROOT
BRANCH   1   3
HETATM    3  C8  UNL     1      22.319   3.235  50.861  1.00  0.00     0.154 A 
HETATM    4  C7  UNL     1      23.343   4.203  50.397  1.00  0.00    -0.023 A 
HETATM    5  C2  UNL     1      23.918   4.156  49.032  1.00  0.00     0.015 C 
HETATM    6  C6  UNL     1      23.642   5.070  51.353  1.00  0.00     0.039 A 
HETATM    7  C1  UNL     1      23.017   4.872  48.050  1.00  0.00     0.015 C 
HETATM    8  C3  UNL     1      25.341   4.616  48.990  1.00  0.00     0.018 C 
HETATM    9  C4  UNL     1      25.493   6.105  48.899  1.00  0.00     0.103 C 
HETATM   10  C5  UNL     1      25.360   6.675  50.267  1.00  0.00     0.222 C 
HETATM   11  O1  UNL     1      25.978   7.709  50.584  1.00  0.00    -0.273 OA
HETATM   12  N1  UNL     1      24.566   6.170  51.357  1.00  0.00    -0.327 N 
HETATM   13  H9  UNL     1      24.681   6.675  52.278  1.00  0.00     0.169 HD
HETATM   14  C19 UNL     1      22.852   4.768  52.545  1.00  0.00     0.028 A 
HETATM   15  C18 UNL     1      22.092   3.705  52.248  1.00  0.00     0.005 A 
ENDBRANCH   1   3
BRANCH   1  16
HETATM   16  C9  UNL     1      23.310   1.104  51.904  1.00  0.00     0.723 A 
HETATM   17  N3  UNL     1      22.542   0.208  52.575  1.00  0.00    -0.075 NA
HETATM   18  C10 UNL     1      23.130  -0.469  53.596  1.00  0.00     0.139 A 
HETATM   19  C11 UNL     1      24.450  -0.212  53.888  1.00  0.00     0.053 A 
HETATM   20  C12 UNL     1      25.213   0.703  53.195  1.00  0.00     0.089 A 
HETATM   21  N5  UNL     1      24.615   1.362  52.189  1.00  0.00    -0.062 NA
BRANCH  20  22
HETATM   22  C13 UNL     1      26.612   0.999  53.477  1.00  0.00     0.011 A 
HETATM   23  C14 UNL     1      27.231   0.253  54.452  1.00  0.00     0.017 A 
HETATM   24  C15 UNL     1      28.567   0.471  54.785  1.00  0.00     0.020 A 
HETATM   25  C16 UNL     1      29.210   1.480  54.071  1.00  0.00     0.116 A 
HETATM   26  N4  UNL     1      28.629   2.219  53.118  1.00  0.00    -0.272 NA
HETATM   27  C17 UNL     1      27.319   1.981  52.815  1.00  0.00     0.130 A 
ENDBRANCH  20  22
ENDBRANCH   1  16
TORSDOF 3
ENDMDL
MODEL 2
REMARK VINA RESULT:      -8.9      3.147      6.695
REMARK  3 active torsions:
REMARK  status: ('A' for Active; 'I' for Inactive)
REMARK    1  A    between atoms: C8_10  and  N2_11 
REMARK    2  A    between atoms: N2_11  and  C9_12 
REMARK    3  A    between atoms: C12_16  and  C13_17 
ROOT
HETATM    1  N2  UNL     1      24.372   3.038  51.724  1.00  0.00    -0.211 N 
HETATM    2  H11 UNL     1      24.365   3.408  52.699  1.00  0.00     0.179 HD
ENDROOT
BRANCH   1   3
HETATM    3  C8  UNL     1      24.445   1.604  51.591  1.00  0.00     0.154 A 
HETATM    4  C7  UNL     1      23.436   0.883  52.405  1.00  0.00    -0.023 A 
HETATM    5  C2  UNL     1      21.980   1.096  52.234  1.00  0.00     0.015 C 
HETATM    6  C6  UNL     1      24.021   0.060  53.263  1.00  0.00     0.039 A 
HETATM    7  C1  UNL     1      21.446   0.249  51.101  1.00  0.00     0.015 C 
HETATM    8  C3  UNL     1      21.221   0.938  53.515  1.00  0.00     0.018 C 
HETATM    9  C4  UNL     1      20.876  -0.484  53.840  1.00  0.00     0.103 C 
HETATM   10  C5  UNL     1      22.061  -1.120  54.478  1.00  0.00     0.222 C 
HETATM   11  O1  UNL     1      21.916  -2.018  55.329  1.00  0.00    -0.273 OA
HETATM   12  N1  UNL     1      23.450  -0.829  54.238  1.00  0.00    -0.327 N 
HETATM   13  H9  UNL     1      24.138  -1.334  54.862  1.00  0.00     0.169 HD
HETATM   14  C19 UNL     1      25.472   0.150  53.109  1.00  0.00     0.028 A 
HETATM   15  C18 UNL     1      25.704   1.046  52.140  1.00  0.00     0.005 A 
ENDBRANCH   1   3
BRANCH   1  16
HETATM   16  C9  UNL     1      24.307   3.988  50.641  1.00  0.00     0.723 A 
HETATM   17  N3  UNL     1      23.118   4.290  50.059  1.00  0.00    -0.075 NA
HETATM   18  C10 UNL     1      23.136   5.194  49.045  1.00  0.00     0.139 A 
HETATM   19  C11 UNL     1      24.339   5.745  48.670  1.00  0.00     0.053 A 
HETATM   20  C12 UNL     1      25.538   5.426  49.273  1.00  0.00     0.089 A 
HETATM   21  N5  UNL     1      25.500   4.530  50.274  1.00  0.00    -0.062 NA
BRANCH  20  22
HETATM   22  C13 UNL     1      26.830   5.990  48.901  1.00  0.00     0.011 A 
HETATM   23  C14 UNL     1      27.833   5.108  48.576  1.00  0.00     0.017 A 
HETATM   24  C15 UNL     1      29.099   5.561  48.209  1.00  0.00     0.020 A 
HETATM   25  C16 UNL     1      29.264   6.945  48.199  1.00  0.00     0.116 A 
HETATM   26  N4  UNL     1      28.303   7.823  48.512  1.00  0.00    -0.272 NA
HETATM   27  C17 UNL     1      27.073   7.347  48.866  1.00  0.00     0.130 A 
ENDBRANCH  20  22
ENDBRANCH   1  16
TORSDOF 3
ENDMDL
MODEL 3
REMARK VINA RESULT:      -8.9      2.776      6.073
REMARK  3 active torsions:
REMARK  status: ('A' for Active; 'I' for Inactive)
REMARK    1  A    between atoms: C8_10  and  N2_11 
REMARK    2  A    between atoms: N2_11  and  C9_12 
REMARK    3  A    between atoms: C12_16  and  C13_17 
ROOT
HETATM    1  N2  UNL     1      22.638   2.223  51.802  1.00  0.00    -0.211 N 
HETATM    2  H11 UNL     1      22.168   1.606  51.104  1.00  0.00     0.179 HD
ENDROOT
BRANCH   1   3
HETATM    3  C8  UNL     1      23.063   1.589  53.024  1.00  0.00     0.154 A 
HETATM    4  C7  UNL     1      24.396   0.944  52.923  1.00  0.00    -0.023 A 
HETATM    5  C2  UNL     1      25.619   1.704  52.573  1.00  0.00     0.015 C 
HETATM    6  C6  UNL     1      24.316  -0.352  53.185  1.00  0.00     0.039 A 
HETATM    7  C1  UNL     1      26.204   2.369  53.799  1.00  0.00     0.015 C 
HETATM    8  C3  UNL     1      26.607   0.882  51.804  1.00  0.00     0.018 C 
HETATM    9  C4  UNL     1      27.494   0.039  52.670  1.00  0.00     0.103 C 
HETATM   10  C5  UNL     1      26.757  -1.204  53.029  1.00  0.00     0.222 C 
HETATM   11  O1  UNL     1      27.370  -2.272  53.213  1.00  0.00    -0.273 OA
HETATM   12  N1  UNL     1      25.337  -1.362  53.208  1.00  0.00    -0.327 N 
HETATM   13  H9  UNL     1      25.006  -2.352  53.375  1.00  0.00     0.169 HD
HETATM   14  C19 UNL     1      22.929  -0.700  53.485  1.00  0.00     0.028 A 
HETATM   15  C18 UNL     1      22.215   0.429  53.388  1.00  0.00     0.005 A 
ENDBRANCH   1   3
BRANCH   1  16
HETATM   16  C9  UNL     1      22.805   3.616  51.466  1.00  0.00     0.723 A 
HETATM   17  N3  UNL     1      21.852   4.524  51.797  1.00  0.00    -0.075 NA
HETATM   18  C10 UNL     1      22.079   5.817  51.447  1.00  0.00     0.139 A 
HETATM   19  C11 UNL     1      23.245   6.129  50.787  1.00  0.00     0.053 A 
HETATM   20  C12 UNL     1      24.202   5.193  50.458  1.00  0.00     0.089 A 
HETATM   21  N5  UNL     1      23.959   3.919  50.812  1.00  0.00    -0.062 NA
BRANCH  20  22
HETATM   22  C13 UNL     1      25.447   5.489  49.760  1.00  0.00     0.011 A 
HETATM   23  C14 UNL     1      26.253   4.425  49.429  1.00  0.00     0.017 A 
HETATM   24  C15 UNL     1      27.461   4.618  48.760  1.00  0.00     0.020 A 
HETATM   25  C16 UNL     1      27.780   5.941  48.463  1.00  0.00     0.116 A 
HETATM   26  N4  UNL     1      27.012   6.993  48.775  1.00  0.00    -0.272 NA
HETATM   27  C17 UNL     1      25.835   6.770  49.429  1.00  0.00     0.130 A 
ENDBRANCH  20  22
ENDBRANCH   1  16
TORSDOF 3
ENDMDL
MODEL 4
REMARK VINA RESULT:      -8.8      3.552      6.887
REMARK  3 active torsions:
REMARK  status: ('A' for Active; 'I' for Inactive)
REMARK    1  A    between atoms: C8_10  and  N2_11 
REMARK    2  A    between atoms: N2_11  and  C9_12 
REMARK    3  A    between atoms: C12_16  and  C13_17 
ROOT
HETATM    1  N2  UNL     1      21.858  -0.684  52.615  1.00  0.00    -0.211 N 
HETATM    2  H11 UNL     1      22.229  -1.606  52.299  1.00  0.00     0.179 HD
ENDROOT
BRANCH   1   3
HETATM    3  C8  UNL     1      22.467  -0.127  53.797  1.00  0.00     0.154 A 
HETATM    4  C7  UNL     1      23.937   0.036  53.683  1.00  0.00    -0.023 A 
HETATM    5  C2  UNL     1      24.563   0.877  52.635  1.00  0.00     0.015 C 
HETATM    6  C6  UNL     1      24.564  -0.655  54.623  1.00  0.00     0.039 A 
HETATM    7  C1  UNL     1      24.589   2.328  53.060  1.00  0.00     0.015 C 
HETATM    8  C3  UNL     1      25.895   0.353  52.197  1.00  0.00     0.018 C 
HETATM    9  C4  UNL     1      27.030   0.777  53.079  1.00  0.00     0.103 C 
HETATM   10  C5  UNL     1      27.075  -0.131  54.257  1.00  0.00     0.222 C 
HETATM   11  O1  UNL     1      28.158  -0.400  54.809  1.00  0.00    -0.273 OA
HETATM   12  N1  UNL     1      25.968  -0.793  54.898  1.00  0.00    -0.327 N 
HETATM   13  H9  UNL     1      26.225  -1.469  55.669  1.00  0.00     0.169 HD
HETATM   14  C19 UNL     1      23.580  -1.346  55.454  1.00  0.00     0.028 A 
HETATM   15  C18 UNL     1      22.373  -1.034  54.966  1.00  0.00     0.005 A 
ENDBRANCH   1   3
BRANCH   1  16
HETATM   16  C9  UNL     1      20.797  -0.084  51.843  1.00  0.00     0.723 A 
HETATM   17  N3  UNL     1      19.501  -0.233  52.221  1.00  0.00    -0.075 NA
HETATM   18  C10 UNL     1      18.558   0.361  51.445  1.00  0.00     0.139 A 
HETATM   19  C11 UNL     1      18.961   1.070  50.337  1.00  0.00     0.053 A 
HETATM   20  C12 UNL     1      20.283   1.210  49.969  1.00  0.00     0.089 A 
HETATM   21  N5  UNL     1      21.202   0.616  50.749  1.00  0.00    -0.062 NA
BRANCH  20  22
HETATM   22  C13 UNL     1      20.745   1.953  48.803  1.00  0.00     0.011 A 
HETATM   23  C14 UNL     1      22.021   1.697  48.357  1.00  0.00     0.017 A 
HETATM   24  C15 UNL     1      22.542   2.362  47.248  1.00  0.00     0.020 A 
HETATM   25  C16 UNL     1      21.691   3.286  46.644  1.00  0.00     0.116 A 
HETATM   26  N4  UNL     1      20.447   3.553  47.061  1.00  0.00    -0.272 NA
HETATM   27  C17 UNL     1      19.965   2.883  48.148  1.00  0.00     0.130 A 
ENDBRANCH  20  22
ENDBRANCH   1  16
TORSDOF 3
ENDMDL
MODEL 5
REMARK VINA RESULT:      -8.8      1.736      2.363
REMARK  3 active torsions:
REMARK  status: ('A' for Active; 'I' for Inactive)
REMARK    1  A    between atoms: C8_10  and  N2_11 
REMARK    2  A    between atoms: N2_11  and  C9_12 
REMARK    3  A    between atoms: C12_16  and  C13_17 
ROOT
HETATM    1  N2  UNL     1      21.144   0.328  51.153  1.00  0.00    -0.211 N 
HETATM    2  H11 UNL     1      21.023  -0.381  50.396  1.00  0.00     0.179 HD
ENDROOT
BRANCH   1   3
HETATM    3  C8  UNL     1      20.737   1.673  50.832  1.00  0.00     0.154 A 
HETATM    4  C7  UNL     1      21.872   2.620  50.707  1.00  0.00    -0.023 A 
HETATM    5  C2  UNL     1      22.962   2.426  49.723  1.00  0.00     0.015 C 
HETATM    6  C6  UNL     1      21.754   3.616  51.574  1.00  0.00     0.039 A 
HETATM    7  C1  UNL     1      22.561   2.967  48.369  1.00  0.00     0.015 C 
HETATM    8  C3  UNL     1      24.279   2.943  50.213  1.00  0.00     0.018 C 
HETATM    9  C4  UNL     1      24.470   4.413  49.991  1.00  0.00     0.103 C 
HETATM   10  C5  UNL     1      23.786   5.148  51.090  1.00  0.00     0.222 C 
HETATM   11  O1  UNL     1      24.227   6.241  51.490  1.00  0.00    -0.273 OA
HETATM   12  N1  UNL     1      22.605   4.750  51.810  1.00  0.00    -0.327 N 
HETATM   13  H9  UNL     1      22.330   5.374  52.618  1.00  0.00     0.169 HD
HETATM   14  C19 UNL     1      20.536   3.433  52.360  1.00  0.00     0.028 A 
HETATM   15  C18 UNL     1      19.958   2.306  51.922  1.00  0.00     0.005 A 
ENDBRANCH   1   3
BRANCH   1  16
HETATM   16  C9  UNL     1      21.695  -0.115  52.410  1.00  0.00     0.723 A 
HETATM   17  N3  UNL     1      20.885  -0.607  53.383  1.00  0.00    -0.075 NA
HETATM   18  C10 UNL     1      21.476  -1.004  54.539  1.00  0.00     0.139 A 
HETATM   19  C11 UNL     1      22.842  -0.889  54.659  1.00  0.00     0.053 A 
HETATM   20  C12 UNL     1      23.649  -0.387  53.660  1.00  0.00     0.089 A 
HETATM   21  N5  UNL     1      23.046   0.002  52.523  1.00  0.00    -0.062 NA
BRANCH  20  22
HETATM   22  C13 UNL     1      25.097  -0.250  53.753  1.00  0.00     0.011 A 
HETATM   23  C14 UNL     1      25.785  -0.011  52.587  1.00  0.00     0.017 A 
HETATM   24  C15 UNL     1      27.171   0.133  52.585  1.00  0.00     0.020 A 
HETATM   25  C16 UNL     1      27.790   0.016  53.828  1.00  0.00     0.116 A 
HETATM   26  N4  UNL     1      27.143  -0.217  54.976  1.00  0.00    -0.272 NA
HETATM   27  C17 UNL     1      25.785  -0.352  54.945  1.00  0.00     0.130 A 
ENDBRANCH  20  22
ENDBRANCH   1  16
TORSDOF 3
ENDMDL
MODEL 6
REMARK VINA RESULT:      -8.6      2.628      5.934
REMARK  3 active torsions:
REMARK  status: ('A' for Active; 'I' for Inactive)
REMARK    1  A    between atoms: C8_10  and  N2_11 
REMARK    2  A    between atoms: N2_11  and  C9_12 
REMARK    3  A    between atoms: C12_16  and  C13_17 
ROOT
HETATM    1  N2  UNL     1      22.152  -0.016  51.887  1.00  0.00    -0.211 N 
HETATM    2  H11 UNL     1      22.067  -1.037  51.691  1.00  0.00     0.179 HD
ENDROOT
BRANCH   1   3
HETATM    3  C8  UNL     1      22.561   0.341  53.223  1.00  0.00     0.154 A 
HETATM    4  C7  UNL     1      24.033   0.411  53.391  1.00  0.00    -0.023 A 
HETATM    5  C2  UNL     1      24.880   1.330  52.594  1.00  0.00     0.015 C 
HETATM    6  C6  UNL     1      24.444  -0.437  54.322  1.00  0.00     0.039 A 
HETATM    7  C1  UNL     1      24.898   2.710  53.212  1.00  0.00     0.015 C 
HETATM    8  C3  UNL     1      26.243   0.771  52.328  1.00  0.00     0.018 C 
HETATM    9  C4  UNL     1      27.217   0.997  53.444  1.00  0.00     0.103 C 
HETATM   10  C5  UNL     1      27.001  -0.054  54.476  1.00  0.00     0.222 C 
HETATM   11  O1  UNL     1      27.951  -0.468  55.167  1.00  0.00    -0.273 OA
HETATM   12  N1  UNL     1      25.765  -0.710  54.816  1.00  0.00    -0.327 N 
HETATM   13  H9  UNL     1      25.843  -1.494  55.520  1.00  0.00     0.169 HD
HETATM   14  C19 UNL     1      23.292  -1.155  54.865  1.00  0.00     0.028 A 
HETATM   15  C18 UNL     1      22.210  -0.696  54.221  1.00  0.00     0.005 A 
ENDBRANCH   1   3
BRANCH   1  16
HETATM   16  C9  UNL     1      21.855   0.904  50.816  1.00  0.00     0.723 A 
HETATM   17  N3  UNL     1      20.684   0.814  50.135  1.00  0.00    -0.075 NA
HETATM   18  C10 UNL     1      20.476   1.714  49.139  1.00  0.00     0.139 A 
HETATM   19  C11 UNL     1      21.448   2.653  48.880  1.00  0.00     0.053 A 
HETATM   20  C12 UNL     1      22.632   2.728  49.583  1.00  0.00     0.089 A 
HETATM   21  N5  UNL     1      22.820   1.829  50.564  1.00  0.00    -0.062 NA
BRANCH  20  22
HETATM   22  C13 UNL     1      23.683   3.708  49.335  1.00  0.00     0.011 A 
HETATM   23  C14 UNL     1      24.976   3.329  49.610  1.00  0.00     0.017 A 
HETATM   24  C15 UNL     1      26.041   4.204  49.402  1.00  0.00     0.020 A 
HETATM   25  C16 UNL     1      25.701   5.462  48.908  1.00  0.00     0.116 A 
HETATM   26  N4  UNL     1      24.450   5.853  48.635  1.00  0.00    -0.272 NA
HETATM   27  C17 UNL     1      23.429   4.973  48.848  1.00  0.00     0.130 A 
ENDBRANCH  20  22
ENDBRANCH   1  16
TORSDOF 3
ENDMDL
MODEL 7
REMARK VINA RESULT:      -8.5      1.758      2.269
REMARK  3 active torsions:
REMARK  status: ('A' for Active; 'I' for Inactive)
REMARK    1  A    between atoms: C8_10  and  N2_11 
REMARK    2  A    between atoms: N2_11  and  C9_12 
REMARK    3  A    between atoms: C12_16  and  C13_17 
ROOT
HETATM    1  N2  UNL     1      23.168   2.595  51.099  1.00  0.00    -0.211 N 
HETATM    2  H11 UNL     1      22.697   3.417  51.534  1.00  0.00     0.179 HD
ENDROOT
BRANCH   1   3
HETATM    3  C8  UNL     1      23.533   2.735  49.711  1.00  0.00     0.154 A 
HETATM    4  C7  UNL     1      24.127   4.056  49.387  1.00  0.00    -0.023 A 
HETATM    5  C2  UNL     1      25.358   4.554  50.044  1.00  0.00     0.015 C 
HETATM    6  C6  UNL     1      23.413   4.682  48.463  1.00  0.00     0.039 A 
HETATM    7  C1  UNL     1      26.589   4.005  49.357  1.00  0.00     0.015 C 
HETATM    8  C3  UNL     1      25.367   6.044  50.196  1.00  0.00     0.018 C 
HETATM    9  C4  UNL     1      25.839   6.772  48.974  1.00  0.00     0.103 C 
HETATM   10  C5  UNL     1      24.698   6.888  48.025  1.00  0.00     0.222 C 
HETATM   11  O1  UNL     1      24.606   7.867  47.262  1.00  0.00    -0.273 OA
HETATM   12  N1  UNL     1      23.606   5.966  47.849  1.00  0.00    -0.327 N 
HETATM   13  H9  UNL     1      22.847   6.279  47.182  1.00  0.00     0.169 HD
HETATM   14  C19 UNL     1      22.277   3.845  48.080  1.00  0.00     0.028 A 
HETATM   15  C18 UNL     1      22.358   2.724  48.809  1.00  0.00     0.005 A 
ENDBRANCH   1   3
BRANCH   1  16
HETATM   16  C9  UNL     1      23.395   1.433  51.923  1.00  0.00     0.723 A 
HETATM   17  N3  UNL     1      22.370   0.597  52.233  1.00  0.00    -0.075 NA
HETATM   18  C10 UNL     1      22.661  -0.476  53.014  1.00  0.00     0.139 A 
HETATM   19  C11 UNL     1      23.957  -0.653  53.440  1.00  0.00     0.053 A 
HETATM   20  C12 UNL     1      24.985   0.207  53.115  1.00  0.00     0.089 A 
HETATM   21  N5  UNL     1      24.678   1.262  52.342  1.00  0.00    -0.062 NA
BRANCH  20  22
HETATM   22  C13 UNL     1      26.367   0.049  53.549  1.00  0.00     0.011 A 
HETATM   23  C14 UNL     1      27.161  -0.812  52.828  1.00  0.00     0.017 A 
HETATM   24  C15 UNL     1      28.495  -1.021  53.174  1.00  0.00     0.020 A 
HETATM   25  C16 UNL     1      28.949  -0.308  54.282  1.00  0.00     0.116 A 
HETATM   26  N4  UNL     1      28.196   0.534  55.000  1.00  0.00    -0.272 NA
HETATM   27  C17 UNL     1      26.893   0.718  54.635  1.00  0.00     0.130 A 
ENDBRANCH  20  22
ENDBRANCH   1  16
TORSDOF 3
ENDMDL
MODEL 8
REMARK VINA RESULT:      -8.5      3.849      7.665
REMARK  3 active torsions:
REMARK  status: ('A' for Active; 'I' for Inactive)
REMARK    1  A    between atoms: C8_10  and  N2_11 
REMARK    2  A    between atoms: N2_11  and  C9_12 
REMARK    3  A    between atoms: C12_16  and  C13_17 
ROOT
HETATM    1  N2  UNL     1      21.815  -0.279  52.000  1.00  0.00    -0.211 N 
HETATM    2  H11 UNL     1      22.017  -1.272  51.750  1.00  0.00     0.179 HD
ENDROOT
BRANCH   1   3
HETATM    3  C8  UNL     1      22.314   0.167  53.277  1.00  0.00     0.154 A 
HETATM    4  C7  UNL     1      23.794   0.260  53.334  1.00  0.00    -0.023 A 
HETATM    5  C2  UNL     1      24.569   1.132  52.421  1.00  0.00     0.015 C 
HETATM    6  C6  UNL     1      24.281  -0.523  54.286  1.00  0.00     0.039 A 
HETATM    7  C1  UNL     1      24.614   2.549  52.947  1.00  0.00     0.015 C 
HETATM    8  C3  UNL     1      25.917   0.568  52.093  1.00  0.00     0.018 C 
HETATM    9  C4  UNL     1      26.965   0.874  53.120  1.00  0.00     0.103 C 
HETATM   10  C5  UNL     1      26.837  -0.110  54.230  1.00  0.00     0.222 C 
HETATM   11  O1  UNL     1      27.839  -0.470  54.875  1.00  0.00    -0.273 OA
HETATM   12  N1  UNL     1      25.637  -0.752  54.699  1.00  0.00    -0.327 N 
HETATM   13  H9  UNL     1      25.776  -1.489  55.445  1.00  0.00     0.169 HD
HETATM   14  C19 UNL     1      23.180  -1.213  54.955  1.00  0.00     0.028 A 
HETATM   15  C18 UNL     1      22.049  -0.807  54.363  1.00  0.00     0.005 A 
ENDBRANCH   1   3
BRANCH   1  16
HETATM   16  C9  UNL     1      21.074   0.517  51.053  1.00  0.00     0.723 A 
HETATM   17  N3  UNL     1      21.536   0.692  49.788  1.00  0.00    -0.075 NA
HETATM   18  C10 UNL     1      20.784   1.455  48.953  1.00  0.00     0.139 A 
HETATM   19  C11 UNL     1      19.613   1.999  49.428  1.00  0.00     0.053 A 
HETATM   20  C12 UNL     1      19.159   1.811  50.717  1.00  0.00     0.089 A 
HETATM   21  N5  UNL     1      19.918   1.054  51.528  1.00  0.00    -0.062 NA
BRANCH  20  22
HETATM   22  C13 UNL     1      17.925   2.372  51.252  1.00  0.00     0.011 A 
HETATM   23  C14 UNL     1      16.846   1.528  51.368  1.00  0.00     0.017 A 
HETATM   24  C15 UNL     1      15.628   1.982  51.871  1.00  0.00     0.020 A 
HETATM   25  C16 UNL     1      15.590   3.327  52.236  1.00  0.00     0.116 A 
HETATM   26  N4  UNL     1      16.627   4.167  52.132  1.00  0.00    -0.272 NA
HETATM   27  C17 UNL     1      17.807   3.692  51.637  1.00  0.00     0.130 A 
ENDBRANCH  20  22
ENDBRANCH   1  16
TORSDOF 3
ENDMDL
MODEL 9
REMARK VINA RESULT:      -8.4      2.975      6.550
REMARK  3 active torsions:
REMARK  status: ('A' for Active; 'I' for Inactive)
REMARK    1  A    between atoms: C8_10  and  N2_11 
REMARK    2  A    between atoms: N2_11  and  C9_12 
REMARK    3  A    between atoms: C12_16  and  C13_17 
ROOT
HETATM    1  N2  UNL     1      21.702  -0.111  52.361  1.00  0.00    -0.211 N 
HETATM    2  H11 UNL     1      21.862  -1.085  52.022  1.00  0.00     0.179 HD
ENDROOT
BRANCH   1   3
HETATM    3  C8  UNL     1      22.356   0.244  53.596  1.00  0.00     0.154 A 
HETATM    4  C7  UNL     1      23.835   0.289  53.489  1.00  0.00    -0.023 A 
HETATM    5  C2  UNL     1      24.535   1.189  52.543  1.00  0.00     0.015 C 
HETATM    6  C6  UNL     1      24.397  -0.563  54.335  1.00  0.00     0.039 A 
HETATM    7  C1  UNL     1      24.690   2.572  53.137  1.00  0.00     0.015 C 
HETATM    8  C3  UNL     1      25.816   0.606  52.034  1.00  0.00     0.018 C 
HETATM    9  C4  UNL     1      26.983   0.819  52.950  1.00  0.00     0.103 C 
HETATM   10  C5  UNL     1      26.944  -0.223  54.011  1.00  0.00     0.222 C 
HETATM   11  O1  UNL     1      27.998  -0.651  54.518  1.00  0.00    -0.273 OA
HETATM   12  N1  UNL     1      25.782  -0.856  54.579  1.00  0.00    -0.327 N 
HETATM   13  H9  UNL     1      25.976  -1.639  55.262  1.00  0.00     0.169 HD
HETATM   14  C19 UNL     1      23.353  -1.258  55.086  1.00  0.00     0.028 A 
HETATM   15  C18 UNL     1      22.179  -0.783  54.649  1.00  0.00     0.005 A 
ENDBRANCH   1   3
BRANCH   1  16
HETATM   16  C9  UNL     1      20.860   0.751  51.568  1.00  0.00     0.723 A 
HETATM   17  N3  UNL     1      19.757   0.257  50.950  1.00  0.00    -0.075 NA
HETATM   18  C10 UNL     1      19.013   1.129  50.220  1.00  0.00     0.139 A 
HETATM   19  C11 UNL     1      19.414   2.443  50.149  1.00  0.00     0.053 A 
HETATM   20  C12 UNL     1      20.539   2.926  50.783  1.00  0.00     0.089 A 
HETATM   21  N5  UNL     1      21.262   2.049  51.500  1.00  0.00    -0.062 NA
BRANCH  20  22
HETATM   22  C13 UNL     1      20.992   4.311  50.729  1.00  0.00     0.011 A 
HETATM   23  C14 UNL     1      22.222   4.594  51.275  1.00  0.00     0.017 A 
HETATM   24  C15 UNL     1      22.732   5.891  51.266  1.00  0.00     0.020 A 
HETATM   25  C16 UNL     1      21.917   6.855  50.676  1.00  0.00     0.116 A 
HETATM   26  N4  UNL     1      20.717   6.604  50.139  1.00  0.00    -0.272 NA
HETATM   27  C17 UNL     1      20.246   5.323  50.163  1.00  0.00     0.130 A 
ENDBRANCH  20  22
ENDBRANCH   1  16
TORSDOF 3
ENDMDL
