MODEL 1
REMARK VINA RESULT:      -8.5      0.000      0.000
REMARK  6 active torsions:
REMARK  status: ('A' for Active; 'I' for Inactive)
REMARK    1  A    between atoms: C7_7  and  N1_8 
REMARK    2  A    between atoms: N1_8  and  C8_9 
REMARK    3  A    between atoms: C11_14  and  C12_15 
REMARK    4  A    between atoms: C13_16  and  C14_17 
REMARK    5  A    between atoms: C14_17  and  C15_18 
REMARK    6  A    between atoms: C20_23  and  N4_24 
ROOT
HETATM    1  C1  UNL     1      24.919  -1.199  55.667  1.00  0.00     0.018 C 
HETATM    2  C2  UNL     1      24.087  -0.844  54.869  1.00  0.00    -0.078 C 
HETATM    3  C3  UNL     1      23.113  -0.418  53.906  1.00  0.00     0.019 A 
HETATM    4  C4  UNL     1      21.808  -0.813  54.025  1.00  0.00     0.021 A 
HETATM    5  C5  UNL     1      20.824  -0.441  53.130  1.00  0.00     0.004 A 
HETATM    6  C6  UNL     1      21.120   0.365  52.051  1.00  0.00     0.029 A 
HETATM    7  C7  UNL     1      22.433   0.780  51.905  1.00  0.00     0.035 A 
HETATM    8  C21 UNL     1      23.416   0.397  52.815  1.00  0.00     0.050 A 
ENDROOT
BRANCH   7   9
HETATM    9  N1  UNL     1      22.789   1.602  50.809  1.00  0.00    -0.340 N 
HETATM   10  H5  UNL     1      22.897   0.874  50.114  1.00  0.00     0.167 HD
BRANCH   9  11
HETATM   11  C8  UNL     1      22.857   2.987  51.047  1.00  0.00     0.141 A 
HETATM   12  N2  UNL     1      21.745   3.663  51.333  1.00  0.00    -0.224 NA
HETATM   13  C9  UNL     1      21.755   4.997  51.558  1.00  0.00     0.234 A 
HETATM   14  N3  UNL     1      22.948   5.628  51.482  1.00  0.00    -0.253 NA
HETATM   15  C10 UNL     1      24.056   4.935  51.194  1.00  0.00     0.133 A 
HETATM   16  C11 UNL     1      24.094   3.590  50.960  1.00  0.00     0.027 A 
BRANCH  16  17
HETATM   17  C12 UNL     1      25.272   2.804  50.664  1.00  0.00     0.013 C 
HETATM   18  C13 UNL     1      26.237   2.336  51.435  1.00  0.00    -0.021 C 
BRANCH  18  19
HETATM   19  C14 UNL     1      26.835   2.189  52.756  1.00  0.00     0.068 C 
BRANCH  19  20
HETATM   20  C15 UNL     1      27.502   0.860  52.931  1.00  0.00    -0.029 A 
HETATM   21  C16 UNL     1      27.031  -0.398  52.622  1.00  0.00     0.010 A 
HETATM   22  C17 UNL     1      27.840  -1.481  52.887  1.00  0.00     0.001 A 
HETATM   23  C18 UNL     1      29.093  -1.372  53.443  1.00  0.00     0.002 A 
HETATM   24  C19 UNL     1      29.573  -0.102  53.755  1.00  0.00     0.029 A 
HETATM   25  C20 UNL     1      28.763   1.000  53.492  1.00  0.00     0.032 A 
BRANCH  25  26
HETATM   26  N4  UNL     1      29.447   2.206  53.881  1.00  0.00    -0.399 N 
HETATM   27  H16 UNL     1      30.319   1.789  54.257  1.00  0.00     0.156 HD
HETATM   28  H17 UNL     1      29.167   3.210  53.814  1.00  0.00     0.156 HD
ENDBRANCH  25  26
ENDBRANCH  19  20
ENDBRANCH  18  19
ENDBRANCH  16  17
ENDBRANCH   9  11
ENDBRANCH   7   9
TORSDOF 6
ENDMDL
MODEL 2
REMARK VINA RESULT:      -8.5      2.255      6.943
REMARK  6 active torsions:
REMARK  status: ('A' for Active; 'I' for Inactive)
REMARK    1  A    between atoms: C7_7  and  N1_8 
REMARK    2  A    between atoms: N1_8  and  C8_9 
REMARK    3  A    between atoms: C11_14  and  C12_15 
REMARK    4  A    between atoms: C13_16  and  C14_17 
REMARK    5  A    between atoms: C14_17  and  C15_18 
REMARK    6  A    between atoms: C20_23  and  N4_24 
ROOT
HETATM    1  C1  UNL     1      27.313   6.665  47.990  1.00  0.00     0.018 C 
HETATM    2  C2  UNL     1      26.756   5.858  48.691  1.00  0.00    -0.078 C 
HETATM    3  C3  UNL     1      26.114   4.888  49.531  1.00  0.00     0.019 A 
HETATM    4  C4  UNL     1      24.857   5.124  50.020  1.00  0.00     0.021 A 
HETATM    5  C5  UNL     1      24.187   4.233  50.835  1.00  0.00     0.004 A 
HETATM    6  C6  UNL     1      24.766   3.037  51.202  1.00  0.00     0.029 A 
HETATM    7  C7  UNL     1      26.038   2.771  50.722  1.00  0.00     0.035 A 
HETATM    8  C21 UNL     1      26.704   3.678  49.899  1.00  0.00     0.050 A 
ENDROOT
BRANCH   7   9
HETATM    9  N1  UNL     1      26.680   1.560  51.075  1.00  0.00    -0.340 N 
HETATM   10  H5  UNL     1      26.502   1.049  50.219  1.00  0.00     0.167 HD
BRANCH   9  11
HETATM   11  C8  UNL     1      27.273   1.501  52.350  1.00  0.00     0.141 A 
HETATM   12  N2  UNL     1      28.229   2.370  52.673  1.00  0.00    -0.224 NA
HETATM   13  C9  UNL     1      28.838   2.348  53.881  1.00  0.00     0.234 A 
HETATM   14  N3  UNL     1      28.439   1.402  54.758  1.00  0.00    -0.253 NA
HETATM   15  C10 UNL     1      27.476   0.536  54.419  1.00  0.00     0.133 A 
HETATM   16  C11 UNL     1      26.834   0.521  53.214  1.00  0.00     0.027 A 
BRANCH  16  17
HETATM   17  C12 UNL     1      25.779  -0.386  52.817  1.00  0.00     0.013 C 
HETATM   18  C13 UNL     1      24.480  -0.390  53.059  1.00  0.00    -0.021 C 
BRANCH  18  19
HETATM   19  C14 UNL     1      23.313   0.223  53.681  1.00  0.00     0.068 C 
BRANCH  19  20
HETATM   20  C15 UNL     1      22.150   0.306  52.741  1.00  0.00    -0.029 A 
HETATM   21  C16 UNL     1      22.145   0.522  51.380  1.00  0.00     0.010 A 
HETATM   22  C17 UNL     1      20.930   0.564  50.731  1.00  0.00     0.001 A 
HETATM   23  C18 UNL     1      19.723   0.401  51.371  1.00  0.00     0.002 A 
HETATM   24  C19 UNL     1      19.725   0.182  52.747  1.00  0.00     0.029 A 
HETATM   25  C20 UNL     1      20.947   0.138  53.413  1.00  0.00     0.032 A 
BRANCH  25  26
HETATM   26  N4  UNL     1      20.726  -0.102  54.815  1.00  0.00    -0.399 N 
HETATM   27  H16 UNL     1      19.689  -0.068  54.828  1.00  0.00     0.156 HD
HETATM   28  H17 UNL     1      21.394  -0.265  55.602  1.00  0.00     0.156 HD
ENDBRANCH  25  26
ENDBRANCH  19  20
ENDBRANCH  18  19
ENDBRANCH  16  17
ENDBRANCH   9  11
ENDBRANCH   7   9
TORSDOF 6
ENDMDL
MODEL 3
REMARK VINA RESULT:      -8.1      2.136      5.123
REMARK  6 active torsions:
REMARK  status: ('A' for Active; 'I' for Inactive)
REMARK    1  A    between atoms: C7_7  and  N1_8 
REMARK    2  A    between atoms: N1_8  and  C8_9 
REMARK    3  A    between atoms: C11_14  and  C12_15 
REMARK    4  A    between atoms: C13_16  and  C14_17 
REMARK    5  A    between atoms: C14_17  and  C15_18 
REMARK    6  A    between atoms: C20_23  and  N4_24 
ROOT
HETATM    1  C1  UNL     1      28.660   5.436  48.202  1.00  0.00     0.018 C 
HETATM    2  C2  UNL     1      27.584   5.171  48.678  1.00  0.00    -0.078 C 
HETATM    3  C3  UNL     1      26.314   4.843  49.260  1.00  0.00     0.019 A 
HETATM    4  C4  UNL     1      25.243   5.679  49.092  1.00  0.00     0.021 A 
HETATM    5  C5  UNL     1      23.996   5.422  49.628  1.00  0.00     0.004 A 
HETATM    6  C6  UNL     1      23.769   4.285  50.375  1.00  0.00     0.029 A 
HETATM    7  C7  UNL     1      24.835   3.421  50.562  1.00  0.00     0.035 A 
HETATM    8  C21 UNL     1      26.088   3.692  50.015  1.00  0.00     0.050 A 
ENDROOT
BRANCH   7   9
HETATM    9  N1  UNL     1      24.655   2.244  51.327  1.00  0.00    -0.340 N 
HETATM   10  H5  UNL     1      25.546   2.250  51.809  1.00  0.00     0.167 HD
BRANCH   9  11
HETATM   11  C8  UNL     1      23.437   1.559  51.167  1.00  0.00     0.141 A 
HETATM   12  N2  UNL     1      22.706   1.761  50.072  1.00  0.00    -0.224 NA
HETATM   13  C9  UNL     1      21.522   1.136  49.875  1.00  0.00     0.234 A 
HETATM   14  N3  UNL     1      21.102   0.289  50.840  1.00  0.00    -0.253 NA
HETATM   15  C10 UNL     1      21.848   0.097  51.935  1.00  0.00     0.133 A 
HETATM   16  C11 UNL     1      23.047   0.704  52.175  1.00  0.00     0.027 A 
BRANCH  16  17
HETATM   17  C12 UNL     1      23.889   0.509  53.336  1.00  0.00     0.013 C 
HETATM   18  C13 UNL     1      24.983  -0.208  53.522  1.00  0.00    -0.021 C 
BRANCH  18  19
HETATM   19  C14 UNL     1      25.999  -1.115  53.002  1.00  0.00     0.068 C 
BRANCH  19  20
HETATM   20  C15 UNL     1      27.386  -0.599  53.227  1.00  0.00    -0.029 A 
HETATM   21  C16 UNL     1      27.809   0.695  53.444  1.00  0.00     0.010 A 
HETATM   22  C17 UNL     1      29.158   0.919  53.619  1.00  0.00     0.001 A 
HETATM   23  C18 UNL     1      30.102  -0.081  53.588  1.00  0.00     0.002 A 
HETATM   24  C19 UNL     1      29.677  -1.389  53.370  1.00  0.00     0.029 A 
HETATM   25  C20 UNL     1      28.317  -1.627  53.192  1.00  0.00     0.032 A 
BRANCH  25  26
HETATM   26  N4  UNL     1      28.095  -3.036  52.988  1.00  0.00    -0.399 N 
HETATM   27  H16 UNL     1      28.799  -3.209  52.246  1.00  0.00     0.156 HD
HETATM   28  H17 UNL     1      27.430  -3.702  53.441  1.00  0.00     0.156 HD
ENDBRANCH  25  26
ENDBRANCH  19  20
ENDBRANCH  18  19
ENDBRANCH  16  17
ENDBRANCH   9  11
ENDBRANCH   7   9
TORSDOF 6
ENDMDL
MODEL 4
REMARK VINA RESULT:      -8.0      2.735      6.963
REMARK  6 active torsions:
REMARK  status: ('A' for Active; 'I' for Inactive)
REMARK    1  A    between atoms: C7_7  and  N1_8 
REMARK    2  A    between atoms: N1_8  and  C8_9 
REMARK    3  A    between atoms: C11_14  and  C12_15 
REMARK    4  A    between atoms: C13_16  and  C14_17 
REMARK    5  A    between atoms: C14_17  and  C15_18 
REMARK    6  A    between atoms: C20_23  and  N4_24 
ROOT
HETATM    1  C1  UNL     1      30.162   5.881  47.892  1.00  0.00     0.018 C 
HETATM    2  C2  UNL     1      29.011   5.700  48.202  1.00  0.00    -0.078 C 
HETATM    3  C3  UNL     1      27.648   5.469  48.585  1.00  0.00     0.019 A 
HETATM    4  C4  UNL     1      26.704   6.442  48.394  1.00  0.00     0.021 A 
HETATM    5  C5  UNL     1      25.378   6.283  48.744  1.00  0.00     0.004 A 
HETATM    6  C6  UNL     1      24.933   5.109  49.315  1.00  0.00     0.029 A 
HETATM    7  C7  UNL     1      25.867   4.106  49.519  1.00  0.00     0.035 A 
HETATM    8  C21 UNL     1      27.202   4.279  49.161  1.00  0.00     0.050 A 
ENDROOT
BRANCH   7   9
HETATM    9  N1  UNL     1      25.462   2.884  50.109  1.00  0.00    -0.340 N 
HETATM   10  H5  UNL     1      24.936   2.516  49.326  1.00  0.00     0.167 HD
BRANCH   9  11
HETATM   11  C8  UNL     1      25.889   2.640  51.427  1.00  0.00     0.141 A 
HETATM   12  N2  UNL     1      27.166   2.347  51.664  1.00  0.00    -0.224 NA
HETATM   13  C9  UNL     1      27.624   2.094  52.911  1.00  0.00     0.234 A 
HETATM   14  N3  UNL     1      26.729   2.147  53.921  1.00  0.00    -0.253 NA
HETATM   15  C10 UNL     1      25.449   2.444  53.668  1.00  0.00     0.133 A 
HETATM   16  C11 UNL     1      24.942   2.707  52.427  1.00  0.00     0.027 A 
BRANCH  16  17
HETATM   17  C12 UNL     1      23.571   3.048  52.116  1.00  0.00     0.013 C 
HETATM   18  C13 UNL     1      22.529   2.304  51.791  1.00  0.00    -0.021 C 
BRANCH  18  19
HETATM   19  C14 UNL     1      21.949   0.992  51.532  1.00  0.00     0.068 C 
BRANCH  19  20
HETATM   20  C15 UNL     1      22.057   0.082  52.717  1.00  0.00    -0.029 A 
HETATM   21  C16 UNL     1      23.179  -0.311  53.413  1.00  0.00     0.010 A 
HETATM   22  C17 UNL     1      23.019  -1.172  54.477  1.00  0.00     0.001 A 
HETATM   23  C18 UNL     1      21.797  -1.658  54.880  1.00  0.00     0.002 A 
HETATM   24  C19 UNL     1      20.660  -1.261  54.179  1.00  0.00     0.029 A 
HETATM   25  C20 UNL     1      20.811  -0.392  53.102  1.00  0.00     0.032 A 
BRANCH  25  26
HETATM   26  N4  UNL     1      19.522  -0.107  52.526  1.00  0.00    -0.399 N 
HETATM   27  H16 UNL     1      19.784  -0.108  51.523  1.00  0.00     0.156 HD
HETATM   28  H17 UNL     1      18.590   0.056  52.969  1.00  0.00     0.156 HD
ENDBRANCH  25  26
ENDBRANCH  19  20
ENDBRANCH  18  19
ENDBRANCH  16  17
ENDBRANCH   9  11
ENDBRANCH   7   9
TORSDOF 6
ENDMDL
MODEL 5
REMARK VINA RESULT:      -7.9      1.582      5.710
REMARK  6 active torsions:
REMARK  status: ('A' for Active; 'I' for Inactive)
REMARK    1  A    between atoms: C7_7  and  N1_8 
REMARK    2  A    between atoms: N1_8  and  C8_9 
REMARK    3  A    between atoms: C11_14  and  C12_15 
REMARK    4  A    between atoms: C13_16  and  C14_17 
REMARK    5  A    between atoms: C14_17  and  C15_18 
REMARK    6  A    between atoms: C20_23  and  N4_24 
ROOT
HETATM    1  C1  UNL     1      20.139   0.776  52.612  1.00  0.00     0.018 C 
HETATM    2  C2  UNL     1      21.127   0.313  53.125  1.00  0.00    -0.078 C 
HETATM    3  C3  UNL     1      22.316  -0.227  53.721  1.00  0.00     0.019 A 
HETATM    4  C4  UNL     1      22.286  -0.708  55.002  1.00  0.00     0.021 A 
HETATM    5  C5  UNL     1      23.395  -1.237  55.633  1.00  0.00     0.004 A 
HETATM    6  C6  UNL     1      24.611  -1.304  54.986  1.00  0.00     0.029 A 
HETATM    7  C7  UNL     1      24.670  -0.823  53.688  1.00  0.00     0.035 A 
HETATM    8  C21 UNL     1      23.544  -0.294  53.062  1.00  0.00     0.050 A 
ENDROOT
BRANCH   7   9
HETATM    9  N1  UNL     1      25.897  -0.864  52.983  1.00  0.00    -0.340 N 
HETATM   10  H5  UNL     1      25.639  -1.553  52.287  1.00  0.00     0.167 HD
BRANCH   9  11
HETATM   11  C8  UNL     1      26.926  -0.023  53.446  1.00  0.00     0.141 A 
HETATM   12  N2  UNL     1      27.550  -0.311  54.587  1.00  0.00    -0.224 NA
HETATM   13  C9  UNL     1      28.538   0.470  55.081  1.00  0.00     0.234 A 
HETATM   14  N3  UNL     1      28.873   1.568  54.367  1.00  0.00    -0.253 NA
HETATM   15  C10 UNL     1      28.238   1.843  53.222  1.00  0.00     0.133 A 
HETATM   16  C11 UNL     1      27.237   1.084  52.686  1.00  0.00     0.027 A 
BRANCH  16  17
HETATM   17  C12 UNL     1      26.539   1.339  51.444  1.00  0.00     0.013 C 
HETATM   18  C13 UNL     1      25.820   2.367  51.031  1.00  0.00    -0.021 C 
BRANCH  18  19
HETATM   19  C14 UNL     1      25.251   3.687  51.276  1.00  0.00     0.068 C 
BRANCH  19  20
HETATM   20  C15 UNL     1      23.761   3.697  51.126  1.00  0.00    -0.029 A 
HETATM   21  C16 UNL     1      22.967   2.958  50.277  1.00  0.00     0.010 A 
HETATM   22  C17 UNL     1      21.603   3.155  50.322  1.00  0.00     0.001 A 
HETATM   23  C18 UNL     1      20.995   4.050  51.172  1.00  0.00     0.002 A 
HETATM   24  C19 UNL     1      21.796   4.797  52.033  1.00  0.00     0.029 A 
HETATM   25  C20 UNL     1      23.174   4.606  51.995  1.00  0.00     0.032 A 
BRANCH  25  26
HETATM   26  N4  UNL     1      23.808   5.466  52.961  1.00  0.00    -0.399 N 
HETATM   27  H16 UNL     1      23.503   4.992  53.831  1.00  0.00     0.156 HD
HETATM   28  H17 UNL     1      24.402   6.318  52.842  1.00  0.00     0.156 HD
ENDBRANCH  25  26
ENDBRANCH  19  20
ENDBRANCH  18  19
ENDBRANCH  16  17
ENDBRANCH   9  11
ENDBRANCH   7   9
TORSDOF 6
ENDMDL
MODEL 6
REMARK VINA RESULT:      -7.9      1.617      2.312
REMARK  6 active torsions:
REMARK  status: ('A' for Active; 'I' for Inactive)
REMARK    1  A    between atoms: C7_7  and  N1_8 
REMARK    2  A    between atoms: N1_8  and  C8_9 
REMARK    3  A    between atoms: C11_14  and  C12_15 
REMARK    4  A    between atoms: C13_16  and  C14_17 
REMARK    5  A    between atoms: C14_17  and  C15_18 
REMARK    6  A    between atoms: C20_23  and  N4_24 
ROOT
HETATM    1  C1  UNL     1      23.472  -0.652  53.771  1.00  0.00     0.018 C 
HETATM    2  C2  UNL     1      23.073   0.246  53.072  1.00  0.00    -0.078 C 
HETATM    3  C3  UNL     1      22.610   1.307  52.225  1.00  0.00     0.019 A 
HETATM    4  C4  UNL     1      21.436   1.951  52.506  1.00  0.00     0.021 A 
HETATM    5  C5  UNL     1      20.935   2.977  51.729  1.00  0.00     0.004 A 
HETATM    6  C6  UNL     1      21.611   3.409  50.608  1.00  0.00     0.029 A 
HETATM    7  C7  UNL     1      22.803   2.775  50.298  1.00  0.00     0.035 A 
HETATM    8  C21 UNL     1      23.298   1.742  51.091  1.00  0.00     0.050 A 
ENDROOT
BRANCH   7   9
HETATM    9  N1  UNL     1      23.532   3.177  49.153  1.00  0.00    -0.340 N 
HETATM   10  H5  UNL     1      23.369   2.354  48.585  1.00  0.00     0.167 HD
BRANCH   9  11
HETATM   11  C8  UNL     1      24.154   4.437  49.204  1.00  0.00     0.141 A 
HETATM   12  N2  UNL     1      23.423   5.541  49.059  1.00  0.00    -0.224 NA
HETATM   13  C9  UNL     1      23.974   6.776  49.088  1.00  0.00     0.234 A 
HETATM   14  N3  UNL     1      25.311   6.852  49.271  1.00  0.00    -0.253 NA
HETATM   15  C10 UNL     1      26.033   5.734  49.415  1.00  0.00     0.133 A 
HETATM   16  C11 UNL     1      25.519   4.469  49.393  1.00  0.00     0.027 A 
BRANCH  16  17
HETATM   17  C12 UNL     1      26.263   3.239  49.563  1.00  0.00     0.013 C 
HETATM   18  C13 UNL     1      26.640   2.577  50.642  1.00  0.00    -0.021 C 
BRANCH  18  19
HETATM   19  C14 UNL     1      26.679   2.452  52.094  1.00  0.00     0.068 C 
BRANCH  19  20
HETATM   20  C15 UNL     1      27.263   1.145  52.534  1.00  0.00    -0.029 A 
HETATM   21  C16 UNL     1      26.803  -0.134  52.308  1.00  0.00     0.010 A 
HETATM   22  C17 UNL     1      27.522  -1.187  52.829  1.00  0.00     0.001 A 
HETATM   23  C18 UNL     1      28.675  -1.028  53.562  1.00  0.00     0.002 A 
HETATM   24  C19 UNL     1      29.143   0.264  53.792  1.00  0.00     0.029 A 
HETATM   25  C20 UNL     1      28.424   1.336  53.270  1.00  0.00     0.032 A 
BRANCH  25  26
HETATM   26  N4  UNL     1      29.079   2.571  53.615  1.00  0.00    -0.399 N 
HETATM   27  H16 UNL     1      29.777   2.609  52.849  1.00  0.00     0.156 HD
HETATM   28  H17 UNL     1      28.916   3.243  54.398  1.00  0.00     0.156 HD
ENDBRANCH  25  26
ENDBRANCH  19  20
ENDBRANCH  18  19
ENDBRANCH  16  17
ENDBRANCH   9  11
ENDBRANCH   7   9
TORSDOF 6
ENDMDL
MODEL 7
REMARK VINA RESULT:      -7.6      2.030      5.734
REMARK  6 active torsions:
REMARK  status: ('A' for Active; 'I' for Inactive)
REMARK    1  A    between atoms: C7_7  and  N1_8 
REMARK    2  A    between atoms: N1_8  and  C8_9 
REMARK    3  A    between atoms: C11_14  and  C12_15 
REMARK    4  A    between atoms: C13_16  and  C14_17 
REMARK    5  A    between atoms: C14_17  and  C15_18 
REMARK    6  A    between atoms: C20_23  and  N4_24 
ROOT
HETATM    1  C1  UNL     1      22.435  -1.150  54.853  1.00  0.00     0.018 C 
HETATM    2  C2  UNL     1      23.360  -0.740  54.196  1.00  0.00    -0.078 C 
HETATM    3  C3  UNL     1      24.450  -0.232  53.414  1.00  0.00     0.019 A 
HETATM    4  C4  UNL     1      25.672  -0.847  53.455  1.00  0.00     0.021 A 
HETATM    5  C5  UNL     1      26.761  -0.406  52.729  1.00  0.00     0.004 A 
HETATM    6  C6  UNL     1      26.665   0.700  51.912  1.00  0.00     0.029 A 
HETATM    7  C7  UNL     1      25.439   1.343  51.851  1.00  0.00     0.035 A 
HETATM    8  C21 UNL     1      24.348   0.888  52.588  1.00  0.00     0.050 A 
ENDROOT
BRANCH   7   9
HETATM    9  N1  UNL     1      25.290   2.488  51.033  1.00  0.00    -0.340 N 
HETATM   10  H5  UNL     1      26.057   2.309  50.395  1.00  0.00     0.167 HD
BRANCH   9  11
HETATM   11  C8  UNL     1      24.245   3.373  51.357  1.00  0.00     0.141 A 
HETATM   12  N2  UNL     1      24.183   3.902  52.578  1.00  0.00    -0.224 NA
HETATM   13  C9  UNL     1      23.193   4.748  52.943  1.00  0.00     0.234 A 
HETATM   14  N3  UNL     1      22.256   5.041  52.014  1.00  0.00    -0.253 NA
HETATM   15  C10 UNL     1      22.332   4.501  50.792  1.00  0.00     0.133 A 
HETATM   16  C11 UNL     1      23.312   3.644  50.379  1.00  0.00     0.027 A 
BRANCH  16  17
HETATM   17  C12 UNL     1      23.438   3.056  49.063  1.00  0.00     0.013 C 
HETATM   18  C13 UNL     1      22.626   2.289  48.358  1.00  0.00    -0.021 C 
BRANCH  18  19
HETATM   19  C14 UNL     1      21.360   1.577  48.230  1.00  0.00     0.068 C 
BRANCH  19  20
HETATM   20  C15 UNL     1      20.836   1.112  49.553  1.00  0.00    -0.029 A 
HETATM   21  C16 UNL     1      21.499   0.462  50.572  1.00  0.00     0.010 A 
HETATM   22  C17 UNL     1      20.787   0.127  51.704  1.00  0.00     0.001 A 
HETATM   23  C18 UNL     1      19.451   0.410  51.869  1.00  0.00     0.002 A 
HETATM   24  C19 UNL     1      18.779   1.068  50.842  1.00  0.00     0.029 A 
HETATM   25  C20 UNL     1      19.489   1.410  49.694  1.00  0.00     0.032 A 
BRANCH  25  26
HETATM   26  N4  UNL     1      18.614   2.083  48.768  1.00  0.00    -0.399 N 
HETATM   27  H16 UNL     1      18.985   1.698  47.879  1.00  0.00     0.156 HD
HETATM   28  H17 UNL     1      17.834   2.760  48.923  1.00  0.00     0.156 HD
ENDBRANCH  25  26
ENDBRANCH  19  20
ENDBRANCH  18  19
ENDBRANCH  16  17
ENDBRANCH   9  11
ENDBRANCH   7   9
TORSDOF 6
ENDMDL
MODEL 8
REMARK VINA RESULT:      -7.5      1.946      2.908
REMARK  6 active torsions:
REMARK  status: ('A' for Active; 'I' for Inactive)
REMARK    1  A    between atoms: C7_7  and  N1_8 
REMARK    2  A    between atoms: N1_8  and  C8_9 
REMARK    3  A    between atoms: C11_14  and  C12_15 
REMARK    4  A    between atoms: C13_16  and  C14_17 
REMARK    5  A    between atoms: C14_17  and  C15_18 
REMARK    6  A    between atoms: C20_23  and  N4_24 
ROOT
HETATM    1  C1  UNL     1      20.886  -1.456  54.375  1.00  0.00     0.018 C 
HETATM    2  C2  UNL     1      20.936  -0.625  53.503  1.00  0.00    -0.078 C 
HETATM    3  C3  UNL     1      20.999   0.380  52.481  1.00  0.00     0.019 A 
HETATM    4  C4  UNL     1      21.351   0.041  51.202  1.00  0.00     0.021 A 
HETATM    5  C5  UNL     1      21.433   0.961  50.175  1.00  0.00     0.004 A 
HETATM    6  C6  UNL     1      21.157   2.293  50.397  1.00  0.00     0.029 A 
HETATM    7  C7  UNL     1      20.798   2.665  51.682  1.00  0.00     0.035 A 
HETATM    8  C21 UNL     1      20.718   1.728  52.709  1.00  0.00     0.050 A 
ENDROOT
BRANCH   7   9
HETATM    9  N1  UNL     1      20.511   4.023  51.962  1.00  0.00    -0.340 N 
HETATM   10  H5  UNL     1      19.834   3.876  52.701  1.00  0.00     0.167 HD
BRANCH   9  11
HETATM   11  C8  UNL     1      21.195   4.989  51.201  1.00  0.00     0.141 A 
HETATM   12  N2  UNL     1      20.597   5.542  50.147  1.00  0.00    -0.224 NA
HETATM   13  C9  UNL     1      21.215   6.467  49.376  1.00  0.00     0.234 A 
HETATM   14  N3  UNL     1      22.476   6.813  49.717  1.00  0.00    -0.253 NA
HETATM   15  C10 UNL     1      23.062   6.249  50.779  1.00  0.00     0.133 A 
HETATM   16  C11 UNL     1      22.478   5.314  51.585  1.00  0.00     0.027 A 
BRANCH  16  17
HETATM   17  C12 UNL     1      23.073   4.695  52.750  1.00  0.00     0.013 C 
HETATM   18  C13 UNL     1      24.015   3.778  52.878  1.00  0.00    -0.021 C 
BRANCH  18  19
HETATM   19  C14 UNL     1      24.979   2.868  52.271  1.00  0.00     0.068 C 
BRANCH  19  20
HETATM   20  C15 UNL     1      25.144   1.608  53.063  1.00  0.00    -0.029 A 
HETATM   21  C16 UNL     1      24.324   0.501  53.119  1.00  0.00     0.010 A 
HETATM   22  C17 UNL     1      24.693  -0.543  53.939  1.00  0.00     0.001 A 
HETATM   23  C18 UNL     1      25.837  -0.538  54.704  1.00  0.00     0.002 A 
HETATM   24  C19 UNL     1      26.668   0.579  54.649  1.00  0.00     0.029 A 
HETATM   25  C20 UNL     1      26.304   1.640  53.823  1.00  0.00     0.032 A 
BRANCH  25  26
HETATM   26  N4  UNL     1      27.296   2.681  53.909  1.00  0.00    -0.399 N 
HETATM   27  H16 UNL     1      27.361   2.933  52.905  1.00  0.00     0.156 HD
HETATM   28  H17 UNL     1      27.810   3.078  54.727  1.00  0.00     0.156 HD
ENDBRANCH  25  26
ENDBRANCH  19  20
ENDBRANCH  18  19
ENDBRANCH  16  17
ENDBRANCH   9  11
ENDBRANCH   7   9
TORSDOF 6
ENDMDL
MODEL 9
REMARK VINA RESULT:      -7.5      2.361      6.939
REMARK  6 active torsions:
REMARK  status: ('A' for Active; 'I' for Inactive)
REMARK    1  A    between atoms: C7_7  and  N1_8 
REMARK    2  A    between atoms: N1_8  and  C8_9 
REMARK    3  A    between atoms: C11_14  and  C12_15 
REMARK    4  A    between atoms: C13_16  and  C14_17 
REMARK    5  A    between atoms: C14_17  and  C15_18 
REMARK    6  A    between atoms: C20_23  and  N4_24 
ROOT
HETATM    1  C1  UNL     1      23.866   8.480  49.553  1.00  0.00     0.018 C 
HETATM    2  C2  UNL     1      24.618   7.543  49.450  1.00  0.00    -0.078 C 
HETATM    3  C3  UNL     1      25.496   6.415  49.331  1.00  0.00     0.019 A 
HETATM    4  C4  UNL     1      26.677   6.530  48.649  1.00  0.00     0.021 A 
HETATM    5  C5  UNL     1      27.563   5.481  48.496  1.00  0.00     0.004 A 
HETATM    6  C6  UNL     1      27.291   4.242  49.036  1.00  0.00     0.029 A 
HETATM    7  C7  UNL     1      26.102   4.097  49.732  1.00  0.00     0.035 A 
HETATM    8  C21 UNL     1      25.217   5.162  49.880  1.00  0.00     0.050 A 
ENDROOT
BRANCH   7   9
HETATM    9  N1  UNL     1      25.773   2.842  50.300  1.00  0.00    -0.340 N 
HETATM   10  H5  UNL     1      25.292   2.446  49.501  1.00  0.00     0.167 HD
BRANCH   9  11
HETATM   11  C8  UNL     1      26.186   2.614  51.625  1.00  0.00     0.141 A 
HETATM   12  N2  UNL     1      27.472   2.384  51.885  1.00  0.00    -0.224 NA
HETATM   13  C9  UNL     1      27.919   2.148  53.140  1.00  0.00     0.234 A 
HETATM   14  N3  UNL     1      27.002   2.154  54.134  1.00  0.00    -0.253 NA
HETATM   15  C10 UNL     1      25.714   2.387  53.857  1.00  0.00     0.133 A 
HETATM   16  C11 UNL     1      25.219   2.630  52.607  1.00  0.00     0.027 A 
BRANCH  16  17
HETATM   17  C12 UNL     1      23.839   2.904  52.271  1.00  0.00     0.013 C 
HETATM   18  C13 UNL     1      22.885   2.142  51.768  1.00  0.00    -0.021 C 
BRANCH  18  19
HETATM   19  C14 UNL     1      22.439   0.847  51.267  1.00  0.00     0.068 C 
BRANCH  19  20
HETATM   20  C15 UNL     1      21.645   0.090  52.286  1.00  0.00    -0.029 A 
HETATM   21  C16 UNL     1      20.279   0.032  52.458  1.00  0.00     0.010 A 
HETATM   22  C17 UNL     1      19.782  -0.739  53.487  1.00  0.00     0.001 A 
HETATM   23  C18 UNL     1      20.580  -1.455  54.349  1.00  0.00     0.002 A 
HETATM   24  C19 UNL     1      21.961  -1.400  54.177  1.00  0.00     0.029 A 
HETATM   25  C20 UNL     1      22.473  -0.623  53.141  1.00  0.00     0.032 A 
BRANCH  25  26
HETATM   26  N4  UNL     1      23.911  -0.710  53.137  1.00  0.00    -0.399 N 
HETATM   27  H16 UNL     1      24.138   0.291  52.985  1.00  0.00     0.156 HD
HETATM   28  H17 UNL     1      24.553  -1.526  53.250  1.00  0.00     0.156 HD
ENDBRANCH  25  26
ENDBRANCH  19  20
ENDBRANCH  18  19
ENDBRANCH  16  17
ENDBRANCH   9  11
ENDBRANCH   7   9
TORSDOF 6
ENDMDL
