MODEL 1
REMARK VINA RESULT:      -8.2      0.000      0.000
REMARK  8 active torsions:
REMARK  status: ('A' for Active; 'I' for Inactive)
REMARK    1  A    between atoms: N1_7  and  C5_8 
REMARK    2  A    between atoms: C5_8  and  C6_9 
REMARK    3  A    between atoms: C6_9  and  C7_10 
REMARK    4  A    between atoms: C7_10  and  N2_11 
REMARK    5  A    between atoms: C13_18  and  P1_19 
REMARK    6  A    between atoms: P1_19  and  C14_20 
REMARK    7  A    between atoms: C17_25  and  N5_26 
REMARK    8  A    between atoms: N5_26  and  C18_27 
ROOT
HETATM    1  C1  UNL     1      26.592   3.786  49.784  1.00  0.00     0.073 C 
HETATM    2  C2  UNL     1      25.603   4.630  50.018  1.00  0.00     0.074 C 
HETATM    3  O1  UNL     1      25.356   5.807  49.326  1.00  0.00    -0.344 OA
HETATM    4  C3  UNL     1      24.533   6.829  49.836  1.00  0.00     0.278 C 
HETATM    5  C4  UNL     1      23.433   6.259  50.693  1.00  0.00     0.248 C 
HETATM    6  O2  UNL     1      22.329   6.889  50.712  1.00  0.00    -0.271 OA
HETATM    7  N1  UNL     1      23.644   5.048  51.451  1.00  0.00    -0.314 N 
HETATM    8  C12 UNL     1      24.742   4.217  51.113  1.00  0.00     0.067 C 
HETATM    9  C13 UNL     1      24.916   3.108  51.800  1.00  0.00     0.041 C 
ENDROOT
BRANCH   7  10
HETATM   10  C5  UNL     1      22.676   4.850  52.474  1.00  0.00     0.134 C 
BRANCH  10  11
HETATM   11  C6  UNL     1      21.743   3.704  52.248  1.00  0.00     0.050 C 
BRANCH  11  12
HETATM   12  C7  UNL     1      20.623   3.968  51.304  1.00  0.00     0.274 C 
BRANCH  12  13
HETATM   13  N2  UNL     1      20.735   3.200  50.081  1.00  0.00     0.092 N 
HETATM   14  C8  UNL     1      21.597   2.053  50.226  1.00  0.00     0.298 C 
HETATM   15  C9  UNL     1      21.555   1.244  48.950  1.00  0.00     0.198 C 
HETATM   16  O3  UNL     1      20.767   1.881  47.993  1.00  0.00    -0.388 OA
HETATM   17  C10 UNL     1      21.326   3.129  47.757  1.00  0.00     0.198 C 
HETATM   18  C11 UNL     1      21.137   4.031  48.960  1.00  0.00     0.298 C 
ENDBRANCH  12  13
ENDBRANCH  11  12
ENDBRANCH  10  11
ENDBRANCH   7  10
BRANCH   9  19
HETATM   19  P1  UNL     1      26.305   2.042  51.358  1.00  0.00    -0.064 P 
HETATM   20  H20 UNL     1      26.072   1.153  50.264  1.00  0.00     0.067 HD
BRANCH  19  21
HETATM   21  C14 UNL     1      27.069   1.293  52.814  1.00  0.00     0.033 A 
HETATM   22  C15 UNL     1      28.213   1.962  53.244  1.00  0.00     0.134 A 
HETATM   23  N3  UNL     1      28.915   1.545  54.312  1.00  0.00    -0.253 NA
HETATM   24  C16 UNL     1      28.507   0.444  54.996  1.00  0.00     0.234 A 
HETATM   25  N4  UNL     1      27.399  -0.225  54.601  1.00  0.00    -0.224 NA
HETATM   26  C17 UNL     1      26.692   0.189  53.532  1.00  0.00     0.141 A 
BRANCH  26  27
HETATM   27  N5  UNL     1      25.515  -0.442  53.045  1.00  0.00    -0.340 N 
HETATM   28  H23 UNL     1      25.774  -0.867  52.148  1.00  0.00     0.167 HD
BRANCH  27  29
HETATM   29  C18 UNL     1      24.227  -0.509  53.613  1.00  0.00     0.033 A 
HETATM   30  C19 UNL     1      24.056  -1.177  54.808  1.00  0.00     0.029 A 
HETATM   31  C20 UNL     1      22.829  -1.259  55.388  1.00  0.00     0.002 A 
HETATM   32  C21 UNL     1      21.779  -0.636  54.709  1.00  0.00     0.000 A 
HETATM   33  C22 UNL     1      21.941   0.037  53.511  1.00  0.00     0.002 A 
HETATM   34  C23 UNL     1      23.204   0.099  52.951  1.00  0.00     0.029 A 
ENDBRANCH  27  29
ENDBRANCH  26  27
ENDBRANCH  19  21
ENDBRANCH   9  19
TORSDOF 8
ENDMDL
MODEL 2
REMARK VINA RESULT:      -8.0      2.713      5.558
REMARK  8 active torsions:
REMARK  status: ('A' for Active; 'I' for Inactive)
REMARK    1  A    between atoms: N1_7  and  C5_8 
REMARK    2  A    between atoms: C5_8  and  C6_9 
REMARK    3  A    between atoms: C6_9  and  C7_10 
REMARK    4  A    between atoms: C7_10  and  N2_11 
REMARK    5  A    between atoms: C13_18  and  P1_19 
REMARK    6  A    between atoms: P1_19  and  C14_20 
REMARK    7  A    between atoms: C17_25  and  N5_26 
REMARK    8  A    between atoms: N5_26  and  C18_27 
ROOT
HETATM    1  C1  UNL     1      22.791  -0.856  54.177  1.00  0.00     0.073 C 
HETATM    2  C2  UNL     1      21.513  -0.818  53.845  1.00  0.00     0.074 C 
HETATM    3  O1  UNL     1      20.533  -1.700  54.277  1.00  0.00    -0.344 OA
HETATM    4  C3  UNL     1      19.293  -1.837  53.624  1.00  0.00     0.278 C 
HETATM    5  C4  UNL     1      18.861  -0.532  53.010  1.00  0.00     0.248 C 
HETATM    6  O2  UNL     1      17.610  -0.310  52.943  1.00  0.00    -0.271 OA
HETATM    7  N1  UNL     1      19.838   0.413  52.524  1.00  0.00    -0.314 N 
HETATM    8  C12 UNL     1      21.185   0.274  52.945  1.00  0.00     0.067 C 
HETATM    9  C13 UNL     1      22.065   1.150  52.509  1.00  0.00     0.041 C 
ENDROOT
BRANCH   7  10
HETATM   10  C5  UNL     1      19.288   1.395  51.654  1.00  0.00     0.134 C 
BRANCH  10  11
HETATM   11  C6  UNL     1      19.290   1.028  50.205  1.00  0.00     0.050 C 
BRANCH  11  12
HETATM   12  C7  UNL     1      19.045   2.151  49.260  1.00  0.00     0.274 C 
BRANCH  12  13
HETATM   13  N2  UNL     1      20.226   2.507  48.502  1.00  0.00     0.092 N 
HETATM   14  C8  UNL     1      21.271   1.518  48.611  1.00  0.00     0.298 C 
HETATM   15  C9  UNL     1      22.409   1.903  47.693  1.00  0.00     0.198 C 
HETATM   16  O3  UNL     1      22.148   3.127  47.080  1.00  0.00    -0.388 OA
HETATM   17  C10 UNL     1      21.996   4.072  48.085  1.00  0.00     0.198 C 
HETATM   18  C11 UNL     1      20.709   3.832  48.848  1.00  0.00     0.298 C 
ENDBRANCH  12  13
ENDBRANCH  11  12
ENDBRANCH  10  11
ENDBRANCH   7  10
BRANCH   9  19
HETATM   19  P1  UNL     1      23.777   0.981  53.059  1.00  0.00    -0.064 P 
HETATM   20  H20 UNL     1      23.995   1.182  54.457  1.00  0.00     0.067 HD
BRANCH  19  21
HETATM   21  C14 UNL     1      24.924   1.849  51.965  1.00  0.00     0.033 A 
HETATM   22  C15 UNL     1      24.295   2.497  50.905  1.00  0.00     0.134 A 
HETATM   23  N3  UNL     1      24.991   3.192  49.988  1.00  0.00    -0.253 NA
HETATM   24  C16 UNL     1      26.343   3.269  50.089  1.00  0.00     0.234 A 
HETATM   25  N4  UNL     1      26.982   2.650  51.109  1.00  0.00    -0.224 NA
HETATM   26  C17 UNL     1      26.289   1.953  52.030  1.00  0.00     0.141 A 
BRANCH  26  27
HETATM   27  N5  UNL     1      26.867   1.275  53.137  1.00  0.00    -0.340 N 
HETATM   28  H23 UNL     1      26.576   1.798  53.971  1.00  0.00     0.167 HD
BRANCH  27  29
HETATM   29  C18 UNL     1      27.682   0.125  53.166  1.00  0.00     0.033 A 
HETATM   30  C19 UNL     1      29.000   0.248  53.553  1.00  0.00     0.029 A 
HETATM   31  C20 UNL     1      29.815  -0.839  53.598  1.00  0.00     0.002 A 
HETATM   32  C21 UNL     1      29.241  -2.060  53.233  1.00  0.00     0.000 A 
HETATM   33  C22 UNL     1      27.921  -2.192  52.844  1.00  0.00     0.002 A 
HETATM   34  C23 UNL     1      27.121  -1.064  52.811  1.00  0.00     0.029 A 
ENDBRANCH  27  29
ENDBRANCH  26  27
ENDBRANCH  19  21
ENDBRANCH   9  19
TORSDOF 8
ENDMDL
MODEL 3
REMARK VINA RESULT:      -7.9      2.348      6.243
REMARK  8 active torsions:
REMARK  status: ('A' for Active; 'I' for Inactive)
REMARK    1  A    between atoms: N1_7  and  C5_8 
REMARK    2  A    between atoms: C5_8  and  C6_9 
REMARK    3  A    between atoms: C6_9  and  C7_10 
REMARK    4  A    between atoms: C7_10  and  N2_11 
REMARK    5  A    between atoms: C13_18  and  P1_19 
REMARK    6  A    between atoms: P1_19  and  C14_20 
REMARK    7  A    between atoms: C17_25  and  N5_26 
REMARK    8  A    between atoms: N5_26  and  C18_27 
ROOT
HETATM    1  C1  UNL     1      23.448   6.729  50.865  1.00  0.00     0.073 C 
HETATM    2  C2  UNL     1      24.533   6.250  50.284  1.00  0.00     0.074 C 
HETATM    3  O1  UNL     1      25.463   6.986  49.564  1.00  0.00    -0.344 OA
HETATM    4  C3  UNL     1      26.380   6.391  48.677  1.00  0.00     0.278 C 
HETATM    5  C4  UNL     1      26.767   5.013  49.146  1.00  0.00     0.248 C 
HETATM    6  O2  UNL     1      27.941   4.614  48.866  1.00  0.00    -0.271 OA
HETATM    7  N1  UNL     1      25.830   4.195  49.880  1.00  0.00    -0.314 N 
HETATM    8  C12 UNL     1      24.696   4.817  50.461  1.00  0.00     0.067 C 
HETATM    9  C13 UNL     1      23.856   4.066  51.142  1.00  0.00     0.041 C 
ENDROOT
BRANCH   7  10
HETATM   10  C5  UNL     1      26.194   2.821  49.921  1.00  0.00     0.134 C 
BRANCH  10  11
HETATM   11  C6  UNL     1      26.707   2.343  51.241  1.00  0.00     0.050 C 
BRANCH  11  12
HETATM   12  C7  UNL     1      26.368   0.936  51.588  1.00  0.00     0.274 C 
BRANCH  12  13
HETATM   13  N2  UNL     1      26.925   0.527  52.861  1.00  0.00     0.092 N 
HETATM   14  C8  UNL     1      25.991   0.688  53.949  1.00  0.00     0.298 C 
HETATM   15  C9  UNL     1      26.606   0.123  55.209  1.00  0.00     0.198 C 
HETATM   16  O3  UNL     1      27.908  -0.310  54.965  1.00  0.00    -0.388 OA
HETATM   17  C10 UNL     1      28.635   0.785  54.523  1.00  0.00     0.198 C 
HETATM   18  C11 UNL     1      28.184   1.195  53.135  1.00  0.00     0.298 C 
ENDBRANCH  12  13
ENDBRANCH  11  12
ENDBRANCH  10  11
ENDBRANCH   7  10
BRANCH   9  19
HETATM   19  P1  UNL     1      22.421   4.862  51.894  1.00  0.00    -0.064 P 
HETATM   20  H20 UNL     1      22.505   5.072  53.306  1.00  0.00     0.067 HD
BRANCH  19  21
HETATM   21  C14 UNL     1      20.869   4.142  51.312  1.00  0.00     0.033 A 
HETATM   22  C15 UNL     1      20.379   4.745  50.155  1.00  0.00     0.134 A 
HETATM   23  N3  UNL     1      19.234   4.342  49.579  1.00  0.00    -0.253 NA
HETATM   24  C16 UNL     1      18.528   3.322  50.132  1.00  0.00     0.234 A 
HETATM   25  N4  UNL     1      18.978   2.717  51.255  1.00  0.00    -0.224 NA
HETATM   26  C17 UNL     1      20.126   3.117  51.836  1.00  0.00     0.141 A 
BRANCH  26  27
HETATM   27  N5  UNL     1      20.684   2.542  53.010  1.00  0.00    -0.340 N 
HETATM   28  H23 UNL     1      20.633   3.271  53.731  1.00  0.00     0.167 HD
BRANCH  27  29
HETATM   29  C18 UNL     1      21.218   1.254  53.218  1.00  0.00     0.033 A 
HETATM   30  C19 UNL     1      20.677   0.456  54.204  1.00  0.00     0.029 A 
HETATM   31  C20 UNL     1      21.162  -0.794  54.431  1.00  0.00     0.002 A 
HETATM   32  C21 UNL     1      22.222  -1.204  53.618  1.00  0.00     0.000 A 
HETATM   33  C22 UNL     1      22.770  -0.410  52.626  1.00  0.00     0.002 A 
HETATM   34  C23 UNL     1      22.250   0.855  52.424  1.00  0.00     0.029 A 
ENDBRANCH  27  29
ENDBRANCH  26  27
ENDBRANCH  19  21
ENDBRANCH   9  19
TORSDOF 8
ENDMDL
MODEL 4
REMARK VINA RESULT:      -7.7      2.601      5.661
REMARK  8 active torsions:
REMARK  status: ('A' for Active; 'I' for Inactive)
REMARK    1  A    between atoms: N1_7  and  C5_8 
REMARK    2  A    between atoms: C5_8  and  C6_9 
REMARK    3  A    between atoms: C6_9  and  C7_10 
REMARK    4  A    between atoms: C7_10  and  N2_11 
REMARK    5  A    between atoms: C13_18  and  P1_19 
REMARK    6  A    between atoms: P1_19  and  C14_20 
REMARK    7  A    between atoms: C17_25  and  N5_26 
REMARK    8  A    between atoms: N5_26  and  C18_27 
ROOT
HETATM    1  C1  UNL     1      22.316  -0.619  54.136  1.00  0.00     0.073 C 
HETATM    2  C2  UNL     1      21.100  -0.593  53.621  1.00  0.00     0.074 C 
HETATM    3  O1  UNL     1      19.992  -1.266  54.114  1.00  0.00    -0.344 OA
HETATM    4  C3  UNL     1      18.837  -1.495  53.342  1.00  0.00     0.278 C 
HETATM    5  C4  UNL     1      18.615  -0.376  52.359  1.00  0.00     0.248 C 
HETATM    6  O2  UNL     1      17.411  -0.104  52.054  1.00  0.00    -0.271 OA
HETATM    7  N1  UNL     1      19.734   0.343  51.797  1.00  0.00    -0.314 N 
HETATM    8  C12 UNL     1      20.997   0.239  52.434  1.00  0.00     0.067 C 
HETATM    9  C13 UNL     1      22.007   0.912  51.923  1.00  0.00     0.041 C 
ENDROOT
BRANCH   7  10
HETATM   10  C5  UNL     1      19.396   1.090  50.636  1.00  0.00     0.134 C 
BRANCH  10  11
HETATM   11  C6  UNL     1      19.155   2.547  50.869  1.00  0.00     0.050 C 
BRANCH  11  12
HETATM   12  C7  UNL     1      19.474   3.440  49.721  1.00  0.00     0.274 C 
BRANCH  12  13
HETATM   13  N2  UNL     1      20.448   4.457  50.063  1.00  0.00     0.092 N 
HETATM   14  C8  UNL     1      21.562   4.484  49.147  1.00  0.00     0.298 C 
HETATM   15  C9  UNL     1      22.458   5.650  49.501  1.00  0.00     0.198 C 
HETATM   16  O3  UNL     1      21.989   6.297  50.642  1.00  0.00    -0.388 OA
HETATM   17  C10 UNL     1      21.976   5.368  51.672  1.00  0.00     0.198 C 
HETATM   18  C11 UNL     1      20.892   4.334  51.440  1.00  0.00     0.298 C 
ENDBRANCH  12  13
ENDBRANCH  11  12
ENDBRANCH  10  11
ENDBRANCH   7  10
BRANCH   9  19
HETATM   19  P1  UNL     1      23.610   0.791  52.744  1.00  0.00    -0.064 P 
HETATM   20  H20 UNL     1      23.587   0.951  54.164  1.00  0.00     0.067 HD
BRANCH  19  21
HETATM   21  C14 UNL     1      24.882   1.740  51.880  1.00  0.00     0.033 A 
HETATM   22  C15 UNL     1      24.381   2.518  50.838  1.00  0.00     0.134 A 
HETATM   23  N3  UNL     1      25.182   3.288  50.083  1.00  0.00    -0.253 NA
HETATM   24  C16 UNL     1      26.517   3.316  50.333  1.00  0.00     0.234 A 
HETATM   25  N4  UNL     1      27.033   2.572  51.338  1.00  0.00    -0.224 NA
HETATM   26  C17 UNL     1      26.233   1.798  52.098  1.00  0.00     0.141 A 
BRANCH  26  27
HETATM   27  N5  UNL     1      26.679   0.988  53.178  1.00  0.00    -0.340 N 
HETATM   28  H23 UNL     1      26.287   1.410  54.027  1.00  0.00     0.167 HD
BRANCH  27  29
HETATM   29  C18 UNL     1      27.491  -0.164  53.166  1.00  0.00     0.033 A 
HETATM   30  C19 UNL     1      26.949  -1.362  52.749  1.00  0.00     0.029 A 
HETATM   31  C20 UNL     1      27.703  -2.493  52.719  1.00  0.00     0.002 A 
HETATM   32  C21 UNL     1      29.031  -2.363  53.130  1.00  0.00     0.000 A 
HETATM   33  C22 UNL     1      29.584  -1.166  53.549  1.00  0.00     0.002 A 
HETATM   34  C23 UNL     1      28.786  -0.036  53.566  1.00  0.00     0.029 A 
ENDBRANCH  27  29
ENDBRANCH  26  27
ENDBRANCH  19  21
ENDBRANCH   9  19
TORSDOF 8
ENDMDL
MODEL 5
REMARK VINA RESULT:      -7.6      5.128      8.870
REMARK  8 active torsions:
REMARK  status: ('A' for Active; 'I' for Inactive)
REMARK    1  A    between atoms: N1_7  and  C5_8 
REMARK    2  A    between atoms: C5_8  and  C6_9 
REMARK    3  A    between atoms: C6_9  and  C7_10 
REMARK    4  A    between atoms: C7_10  and  N2_11 
REMARK    5  A    between atoms: C13_18  and  P1_19 
REMARK    6  A    between atoms: P1_19  and  C14_20 
REMARK    7  A    between atoms: C17_25  and  N5_26 
REMARK    8  A    between atoms: N5_26  and  C18_27 
ROOT
HETATM    1  C1  UNL     1      27.022   8.027  49.051  1.00  0.00     0.073 C 
HETATM    2  C2  UNL     1      26.124   7.218  49.584  1.00  0.00     0.074 C 
HETATM    3  O1  UNL     1      25.013   7.604  50.319  1.00  0.00    -0.344 OA
HETATM    4  C3  UNL     1      24.309   6.716  51.155  1.00  0.00     0.278 C 
HETATM    5  C4  UNL     1      24.352   5.313  50.608  1.00  0.00     0.248 C 
HETATM    6  O2  UNL     1      23.346   4.570  50.842  1.00  0.00    -0.271 OA
HETATM    7  N1  UNL     1      25.493   4.852  49.854  1.00  0.00    -0.314 N 
HETATM    8  C12 UNL     1      26.395   5.812  49.330  1.00  0.00     0.067 C 
HETATM    9  C13 UNL     1      27.423   5.382  48.631  1.00  0.00     0.041 C 
ENDROOT
BRANCH   7  10
HETATM   10  C5  UNL     1      25.553   3.436  49.736  1.00  0.00     0.134 C 
BRANCH  10  11
HETATM   11  C6  UNL     1      26.387   2.750  50.770  1.00  0.00     0.050 C 
BRANCH  11  12
HETATM   12  C7  UNL     1      25.646   1.849  51.694  1.00  0.00     0.274 C 
BRANCH  12  13
HETATM   13  N2  UNL     1      26.523   1.158  52.618  1.00  0.00     0.092 N 
HETATM   14  C8  UNL     1      27.743   1.886  52.870  1.00  0.00     0.298 C 
HETATM   15  C9  UNL     1      28.534   1.160  53.934  1.00  0.00     0.198 C 
HETATM   16  O3  UNL     1      27.896  -0.025  54.295  1.00  0.00    -0.388 OA
HETATM   17  C10 UNL     1      27.791  -0.806  53.153  1.00  0.00     0.198 C 
HETATM   18  C11 UNL     1      26.792  -0.202  52.187  1.00  0.00     0.298 C 
ENDBRANCH  12  13
ENDBRANCH  11  12
ENDBRANCH  10  11
ENDBRANCH   7  10
BRANCH   9  19
HETATM   19  P1  UNL     1      28.562   6.607  47.951  1.00  0.00    -0.064 P 
HETATM   20  H20 UNL     1      28.286   7.025  46.612  1.00  0.00     0.067 HD
BRANCH  19  21
HETATM   21  C14 UNL     1      30.286   6.184  48.289  1.00  0.00     0.033 A 
HETATM   22  C15 UNL     1      30.667   4.951  47.765  1.00  0.00     0.134 A 
HETATM   23  N3  UNL     1      31.912   4.471  47.921  1.00  0.00    -0.253 NA
HETATM   24  C16 UNL     1      32.831   5.200  48.606  1.00  0.00     0.234 A 
HETATM   25  N4  UNL     1      32.491   6.402  49.126  1.00  0.00    -0.224 NA
HETATM   26  C17 UNL     1      31.243   6.887  48.972  1.00  0.00     0.141 A 
BRANCH  26  27
HETATM   27  N5  UNL     1      30.793   8.137  49.474  1.00  0.00    -0.340 N 
HETATM   28  H23 UNL     1      30.223   7.921  50.300  1.00  0.00     0.167 HD
BRANCH  27  29
HETATM   29  C18 UNL     1      31.031   9.442  48.994  1.00  0.00     0.033 A 
HETATM   30  C19 UNL     1      31.757   9.606  47.834  1.00  0.00     0.029 A 
HETATM   31  C20 UNL     1      32.003  10.848  47.337  1.00  0.00     0.002 A 
HETATM   32  C21 UNL     1      31.483  11.920  48.066  1.00  0.00     0.000 A 
HETATM   33  C22 UNL     1      30.753  11.765  49.231  1.00  0.00     0.002 A 
HETATM   34  C23 UNL     1      30.523  10.486  49.705  1.00  0.00     0.029 A 
ENDBRANCH  27  29
ENDBRANCH  26  27
ENDBRANCH  19  21
ENDBRANCH   9  19
TORSDOF 8
ENDMDL
MODEL 6
REMARK VINA RESULT:      -7.6      2.268      5.021
REMARK  8 active torsions:
REMARK  status: ('A' for Active; 'I' for Inactive)
REMARK    1  A    between atoms: N1_7  and  C5_8 
REMARK    2  A    between atoms: C5_8  and  C6_9 
REMARK    3  A    between atoms: C6_9  and  C7_10 
REMARK    4  A    between atoms: C7_10  and  N2_11 
REMARK    5  A    between atoms: C13_18  and  P1_19 
REMARK    6  A    between atoms: P1_19  and  C14_20 
REMARK    7  A    between atoms: C17_25  and  N5_26 
REMARK    8  A    between atoms: N5_26  and  C18_27 
ROOT
HETATM    1  C1  UNL     1      22.372  -0.770  53.060  1.00  0.00     0.073 C 
HETATM    2  C2  UNL     1      21.429   0.108  52.771  1.00  0.00     0.074 C 
HETATM    3  O1  UNL     1      20.071  -0.157  52.672  1.00  0.00    -0.344 OA
HETATM    4  C3  UNL     1      19.173   0.709  52.019  1.00  0.00     0.278 C 
HETATM    5  C4  UNL     1      19.613   2.143  52.155  1.00  0.00     0.248 C 
HETATM    6  O2  UNL     1      18.700   3.027  52.189  1.00  0.00    -0.271 OA
HETATM    7  N1  UNL     1      21.015   2.478  52.240  1.00  0.00    -0.314 N 
HETATM    8  C12 UNL     1      21.941   1.451  52.554  1.00  0.00     0.067 C 
HETATM    9  C13 UNL     1      23.215   1.770  52.645  1.00  0.00     0.041 C 
ENDROOT
BRANCH   7  10
HETATM   10  C5  UNL     1      21.281   3.852  51.988  1.00  0.00     0.134 C 
BRANCH  10  11
HETATM   11  C6  UNL     1      21.072   4.287  50.573  1.00  0.00     0.050 C 
BRANCH  11  12
HETATM   12  C7  UNL     1      21.668   3.401  49.537  1.00  0.00     0.274 C 
BRANCH  12  13
HETATM   13  N2  UNL     1      21.489   3.917  48.195  1.00  0.00     0.092 N 
HETATM   14  C8  UNL     1      22.076   3.063  47.192  1.00  0.00     0.298 C 
HETATM   15  C9  UNL     1      21.732   3.607  45.824  1.00  0.00     0.198 C 
HETATM   16  O3  UNL     1      21.026   4.803  45.937  1.00  0.00    -0.388 OA
HETATM   17  C10 UNL     1      21.831   5.698  46.625  1.00  0.00     0.198 C 
HETATM   18  C11 UNL     1      21.965   5.283  48.077  1.00  0.00     0.298 C 
ENDBRANCH  12  13
ENDBRANCH  11  12
ENDBRANCH  10  11
ENDBRANCH   7  10
BRANCH   9  19
HETATM   19  P1  UNL     1      24.391   0.465  53.061  1.00  0.00    -0.064 P 
HETATM   20  H20 UNL     1      23.983  -0.419  54.107  1.00  0.00     0.067 HD
BRANCH  19  21
HETATM   21  C14 UNL     1      26.078   1.097  53.196  1.00  0.00     0.033 A 
HETATM   22  C15 UNL     1      26.715   0.726  54.379  1.00  0.00     0.134 A 
HETATM   23  N3  UNL     1      27.974   1.108  54.653  1.00  0.00    -0.253 NA
HETATM   24  C16 UNL     1      28.652   1.876  53.761  1.00  0.00     0.234 A 
HETATM   25  N4  UNL     1      28.059   2.252  52.604  1.00  0.00    -0.224 NA
HETATM   26  C17 UNL     1      26.797   1.871  52.325  1.00  0.00     0.141 A 
BRANCH  26  27
HETATM   27  N5  UNL     1      26.093   2.209  51.137  1.00  0.00    -0.340 N 
HETATM   28  H23 UNL     1      25.607   1.354  50.845  1.00  0.00     0.167 HD
BRANCH  27  29
HETATM   29  C18 UNL     1      26.030   3.435  50.444  1.00  0.00     0.033 A 
HETATM   30  C19 UNL     1      26.987   3.715  49.491  1.00  0.00     0.029 A 
HETATM   31  C20 UNL     1      26.956   4.885  48.798  1.00  0.00     0.002 A 
HETATM   32  C21 UNL     1      25.914   5.762  49.109  1.00  0.00     0.000 A 
HETATM   33  C22 UNL     1      24.950   5.489  50.062  1.00  0.00     0.002 A 
HETATM   34  C23 UNL     1      25.014   4.289  50.747  1.00  0.00     0.029 A 
ENDBRANCH  27  29
ENDBRANCH  26  27
ENDBRANCH  19  21
ENDBRANCH   9  19
TORSDOF 8
ENDMDL
MODEL 7
REMARK VINA RESULT:      -7.5      2.780      7.996
REMARK  8 active torsions:
REMARK  status: ('A' for Active; 'I' for Inactive)
REMARK    1  A    between atoms: N1_7  and  C5_8 
REMARK    2  A    between atoms: C5_8  and  C6_9 
REMARK    3  A    between atoms: C6_9  and  C7_10 
REMARK    4  A    between atoms: C7_10  and  N2_11 
REMARK    5  A    between atoms: C13_18  and  P1_19 
REMARK    6  A    between atoms: P1_19  and  C14_20 
REMARK    7  A    between atoms: C17_25  and  N5_26 
REMARK    8  A    between atoms: N5_26  and  C18_27 
ROOT
HETATM    1  C1  UNL     1      20.322   1.365  50.265  1.00  0.00     0.073 C 
HETATM    2  C2  UNL     1      20.723   0.711  51.341  1.00  0.00     0.074 C 
HETATM    3  O1  UNL     1      20.000  -0.257  52.022  1.00  0.00    -0.344 OA
HETATM    4  C3  UNL     1      20.309  -0.649  53.339  1.00  0.00     0.278 C 
HETATM    5  C4  UNL     1      21.789  -0.546  53.599  1.00  0.00     0.248 C 
HETATM    6  O2  UNL     1      22.291  -1.376  54.421  1.00  0.00    -0.271 OA
HETATM    7  N1  UNL     1      22.585   0.457  52.933  1.00  0.00    -0.314 N 
HETATM    8  C12 UNL     1      22.051   1.098  51.786  1.00  0.00     0.067 C 
HETATM    9  C13 UNL     1      22.791   2.000  51.178  1.00  0.00     0.041 C 
ENDROOT
BRANCH   7  10
HETATM   10  C5  UNL     1      23.850   0.670  53.547  1.00  0.00     0.134 C 
BRANCH  10  11
HETATM   11  C6  UNL     1      25.024   0.179  52.762  1.00  0.00     0.050 C 
BRANCH  11  12
HETATM   12  C7  UNL     1      26.070   1.198  52.471  1.00  0.00     0.274 C 
BRANCH  12  13
HETATM   13  N2  UNL     1      27.139   1.191  53.448  1.00  0.00     0.092 N 
HETATM   14  C8  UNL     1      28.254   2.017  53.053  1.00  0.00     0.298 C 
HETATM   15  C9  UNL     1      29.260   2.052  54.181  1.00  0.00     0.198 C 
HETATM   16  O3  UNL     1      28.855   1.222  55.224  1.00  0.00    -0.388 OA
HETATM   17  C10 UNL     1      28.745  -0.064  54.714  1.00  0.00     0.198 C 
HETATM   18  C11 UNL     1      27.564  -0.160  53.769  1.00  0.00     0.298 C 
ENDBRANCH  12  13
ENDBRANCH  11  12
ENDBRANCH  10  11
ENDBRANCH   7  10
BRANCH   9  19
HETATM   19  P1  UNL     1      22.116   2.804  49.708  1.00  0.00    -0.064 P 
HETATM   20  H20 UNL     1      22.750   2.459  48.475  1.00  0.00     0.067 HD
BRANCH  19  21
HETATM   21  C14 UNL     1      21.847   4.571  49.971  1.00  0.00     0.033 A 
HETATM   22  C15 UNL     1      20.558   4.989  49.647  1.00  0.00     0.134 A 
HETATM   23  N3  UNL     1      20.178   6.271  49.776  1.00  0.00    -0.253 NA
HETATM   24  C16 UNL     1      21.065   7.192  50.234  1.00  0.00     0.234 A 
HETATM   25  N4  UNL     1      22.325   6.816  50.557  1.00  0.00    -0.224 NA
HETATM   26  C17 UNL     1      22.710   5.531  50.429  1.00  0.00     0.141 A 
BRANCH  26  27
HETATM   27  N5  UNL     1      24.005   5.038  50.747  1.00  0.00    -0.340 N 
HETATM   28  H23 UNL     1      23.922   4.609  51.676  1.00  0.00     0.167 HD
BRANCH  27  29
HETATM   29  C18 UNL     1      25.200   5.093  50.001  1.00  0.00     0.033 A 
HETATM   30  C19 UNL     1      25.592   6.295  49.452  1.00  0.00     0.029 A 
HETATM   31  C20 UNL     1      26.741   6.388  48.730  1.00  0.00     0.002 A 
HETATM   32  C21 UNL     1      27.478   5.210  48.586  1.00  0.00     0.000 A 
HETATM   33  C22 UNL     1      27.093   4.000  49.135  1.00  0.00     0.002 A 
HETATM   34  C23 UNL     1      25.919   3.945  49.863  1.00  0.00     0.029 A 
ENDBRANCH  27  29
ENDBRANCH  26  27
ENDBRANCH  19  21
ENDBRANCH   9  19
TORSDOF 8
ENDMDL
MODEL 8
REMARK VINA RESULT:      -7.5      1.616      3.557
REMARK  8 active torsions:
REMARK  status: ('A' for Active; 'I' for Inactive)
REMARK    1  A    between atoms: N1_7  and  C5_8 
REMARK    2  A    between atoms: C5_8  and  C6_9 
REMARK    3  A    between atoms: C6_9  and  C7_10 
REMARK    4  A    between atoms: C7_10  and  N2_11 
REMARK    5  A    between atoms: C13_18  and  P1_19 
REMARK    6  A    between atoms: P1_19  and  C14_20 
REMARK    7  A    between atoms: C17_25  and  N5_26 
REMARK    8  A    between atoms: N5_26  and  C18_27 
ROOT
HETATM    1  C1  UNL     1      26.638   3.409  49.754  1.00  0.00     0.073 C 
HETATM    2  C2  UNL     1      26.082   4.586  49.530  1.00  0.00     0.074 C 
HETATM    3  O1  UNL     1      26.512   5.528  48.607  1.00  0.00    -0.344 OA
HETATM    4  C3  UNL     1      26.120   6.879  48.662  1.00  0.00     0.278 C 
HETATM    5  C4  UNL     1      24.731   7.015  49.227  1.00  0.00     0.248 C 
HETATM    6  O2  UNL     1      24.026   7.985  48.803  1.00  0.00    -0.271 OA
HETATM    7  N1  UNL     1      24.240   6.075  50.207  1.00  0.00    -0.314 N 
HETATM    8  C12 UNL     1      24.919   4.841  50.364  1.00  0.00     0.067 C 
HETATM    9  C13 UNL     1      24.454   3.984  51.249  1.00  0.00     0.041 C 
ENDROOT
BRANCH   7  10
HETATM   10  C5  UNL     1      23.092   6.539  50.905  1.00  0.00     0.134 C 
BRANCH  10  11
HETATM   11  C6  UNL     1      21.828   5.797  50.608  1.00  0.00     0.050 C 
BRANCH  11  12
HETATM   12  C7  UNL     1      21.492   5.658  49.165  1.00  0.00     0.274 C 
BRANCH  12  13
HETATM   13  N2  UNL     1      21.249   4.283  48.781  1.00  0.00     0.092 N 
HETATM   14  C8  UNL     1      20.810   3.470  49.888  1.00  0.00     0.298 C 
HETATM   15  C9  UNL     1      20.459   2.091  49.375  1.00  0.00     0.198 C 
HETATM   16  O3  UNL     1      20.736   1.993  48.013  1.00  0.00    -0.388 OA
HETATM   17  C10 UNL     1      22.090   2.241  47.844  1.00  0.00     0.198 C 
HETATM   18  C11 UNL     1      22.400   3.700  48.114  1.00  0.00     0.298 C 
ENDBRANCH  12  13
ENDBRANCH  11  12
ENDBRANCH  10  11
ENDBRANCH   7  10
BRANCH   9  19
HETATM   19  P1  UNL     1      25.311   2.406  51.437  1.00  0.00    -0.064 P 
HETATM   20  H20 UNL     1      25.984   1.930  50.269  1.00  0.00     0.067 HD
BRANCH  19  21
HETATM   21  C14 UNL     1      24.292   1.184  52.293  1.00  0.00     0.033 A 
HETATM   22  C15 UNL     1      23.004   1.075  51.774  1.00  0.00     0.134 A 
HETATM   23  N3  UNL     1      22.106   0.218  52.287  1.00  0.00    -0.253 NA
HETATM   24  C16 UNL     1      22.452  -0.566  53.341  1.00  0.00     0.234 A 
HETATM   25  N4  UNL     1      23.696  -0.482  53.867  1.00  0.00    -0.224 NA
HETATM   26  C17 UNL     1      24.600   0.375  53.355  1.00  0.00     0.141 A 
BRANCH  26  27
HETATM   27  N5  UNL     1      25.929   0.531  53.833  1.00  0.00    -0.340 N 
HETATM   28  H23 UNL     1      25.934   1.403  54.375  1.00  0.00     0.167 HD
BRANCH  27  29
HETATM   29  C18 UNL     1      27.059  -0.291  53.643  1.00  0.00     0.033 A 
HETATM   30  C19 UNL     1      26.925  -1.455  52.916  1.00  0.00     0.029 A 
HETATM   31  C20 UNL     1      27.993  -2.271  52.708  1.00  0.00     0.002 A 
HETATM   32  C21 UNL     1      29.206  -1.859  53.267  1.00  0.00     0.000 A 
HETATM   33  C22 UNL     1      29.349  -0.692  53.997  1.00  0.00     0.002 A 
HETATM   34  C23 UNL     1      28.240   0.112  54.188  1.00  0.00     0.029 A 
ENDBRANCH  27  29
ENDBRANCH  26  27
ENDBRANCH  19  21
ENDBRANCH   9  19
TORSDOF 8
ENDMDL
MODEL 9
REMARK VINA RESULT:      -7.4      3.383      5.942
REMARK  8 active torsions:
REMARK  status: ('A' for Active; 'I' for Inactive)
REMARK    1  A    between atoms: N1_7  and  C5_8 
REMARK    2  A    between atoms: C5_8  and  C6_9 
REMARK    3  A    between atoms: C6_9  and  C7_10 
REMARK    4  A    between atoms: C7_10  and  N2_11 
REMARK    5  A    between atoms: C13_18  and  P1_19 
REMARK    6  A    between atoms: P1_19  and  C14_20 
REMARK    7  A    between atoms: C17_25  and  N5_26 
REMARK    8  A    between atoms: N5_26  and  C18_27 
ROOT
HETATM    1  C1  UNL     1      22.049  -0.076  53.994  1.00  0.00     0.073 C 
HETATM    2  C2  UNL     1      20.886  -0.142  53.371  1.00  0.00     0.074 C 
HETATM    3  O1  UNL     1      19.729  -0.726  53.865  1.00  0.00    -0.344 OA
HETATM    4  C3  UNL     1      18.648  -1.087  53.039  1.00  0.00     0.278 C 
HETATM    5  C4  UNL     1      18.531  -0.151  51.865  1.00  0.00     0.248 C 
HETATM    6  O2  UNL     1      17.363   0.062  51.409  1.00  0.00    -0.271 OA
HETATM    7  N1  UNL     1      19.705   0.469  51.297  1.00  0.00    -0.314 N 
HETATM    8  C12 UNL     1      20.902   0.478  52.057  1.00  0.00     0.067 C 
HETATM    9  C13 UNL     1      21.963   1.059  51.537  1.00  0.00     0.041 C 
ENDROOT
BRANCH   7  10
HETATM   10  C5  UNL     1      19.484   1.008  50.000  1.00  0.00     0.134 C 
BRANCH  10  11
HETATM   11  C6  UNL     1      19.226   2.480  49.963  1.00  0.00     0.050 C 
BRANCH  11  12
HETATM   12  C7  UNL     1      18.078   2.907  49.117  1.00  0.00     0.274 C 
BRANCH  12  13
HETATM   13  N2  UNL     1      16.967   3.406  49.900  1.00  0.00     0.092 N 
HETATM   14  C8  UNL     1      17.309   3.594  51.289  1.00  0.00     0.298 C 
HETATM   15  C9  UNL     1      16.138   4.233  52.000  1.00  0.00     0.198 C 
HETATM   16  O3  UNL     1      15.059   4.377  51.131  1.00  0.00    -0.388 OA
HETATM   17  C10 UNL     1      14.717   3.111  50.678  1.00  0.00     0.198 C 
HETATM   18  C11 UNL     1      15.787   2.573  49.750  1.00  0.00     0.298 C 
ENDBRANCH  12  13
ENDBRANCH  11  12
ENDBRANCH  10  11
ENDBRANCH   7  10
BRANCH   9  19
HETATM   19  P1  UNL     1      23.482   1.085  52.511  1.00  0.00    -0.064 P 
HETATM   20  H20 UNL     1      23.321   1.417  53.892  1.00  0.00     0.067 HD
BRANCH  19  21
HETATM   21  C14 UNL     1      24.815   1.956  51.658  1.00  0.00     0.033 A 
HETATM   22  C15 UNL     1      24.371   2.749  50.601  1.00  0.00     0.134 A 
HETATM   23  N3  UNL     1      25.223   3.467  49.850  1.00  0.00    -0.253 NA
HETATM   24  C16 UNL     1      26.554   3.427  50.120  1.00  0.00     0.234 A 
HETATM   25  N4  UNL     1      27.015   2.667  51.140  1.00  0.00    -0.224 NA
HETATM   26  C17 UNL     1      26.164   1.945  51.895  1.00  0.00     0.141 A 
BRANCH  26  27
HETATM   27  N5  UNL     1      26.550   1.123  52.989  1.00  0.00    -0.340 N 
HETATM   28  H23 UNL     1      26.171   1.575  53.829  1.00  0.00     0.167 HD
BRANCH  27  29
HETATM   29  C18 UNL     1      27.298  -0.073  53.000  1.00  0.00     0.033 A 
HETATM   30  C19 UNL     1      28.606  -0.040  53.436  1.00  0.00     0.029 A 
HETATM   31  C20 UNL     1      29.356  -1.174  53.466  1.00  0.00     0.002 A 
HETATM   32  C21 UNL     1      28.728  -2.344  53.034  1.00  0.00     0.000 A 
HETATM   33  C22 UNL     1      27.417  -2.386  52.595  1.00  0.00     0.002 A 
HETATM   34  C23 UNL     1      26.684  -1.213  52.580  1.00  0.00     0.029 A 
ENDBRANCH  27  29
ENDBRANCH  26  27
ENDBRANCH  19  21
ENDBRANCH   9  19
TORSDOF 8
ENDMDL
