MODEL 1
REMARK VINA RESULT:      -8.6      0.000      0.000
REMARK  3 active torsions:
REMARK  status: ('A' for Active; 'I' for Inactive)
REMARK    1  A    between atoms: C9_11  and  N2_12 
REMARK    2  A    between atoms: N2_12  and  P1_13 
REMARK    3  A    between atoms: P1_13  and  C10_14 
ROOT
HETATM    1  F1  UNL     1      30.159  -0.793  53.793  1.00  0.00    -0.206 F 
HETATM    2  C1  UNL     1      29.064   0.010  53.769  1.00  0.00     0.117 A 
HETATM    3  C2  UNL     1      29.206   1.358  53.518  1.00  0.00     0.045 A 
HETATM    4  C3  UNL     1      28.076   2.158  53.498  1.00  0.00     0.041 A 
HETATM    5  C4  UNL     1      26.824   1.598  53.729  1.00  0.00     0.086 A 
HETATM    6  C5  UNL     1      26.653   0.263  53.980  1.00  0.00    -0.004 A 
HETATM    7  C6  UNL     1      27.793  -0.518  53.996  1.00  0.00     0.054 A 
HETATM    8  C7  UNL     1      25.499  -0.598  54.254  1.00  0.00     0.161 C 
HETATM    9  N1  UNL     1      24.254  -0.140  53.711  1.00  0.00    -0.379 N 
HETATM   10  C8  UNL     1      23.836   1.106  53.206  1.00  0.00     0.130 A 
HETATM   11  C9  UNL     1      22.568   1.099  52.661  1.00  0.00     0.181 A 
HETATM   12  N3  UNL     1      21.953   2.177  52.114  1.00  0.00    -0.220 NA
HETATM   13  C16 UNL     1      22.674   3.335  52.123  1.00  0.00     0.238 A 
HETATM   14  N4  UNL     1      23.925   3.408  52.644  1.00  0.00    -0.215 NA
HETATM   15  C17 UNL     1      24.513   2.305  53.185  1.00  0.00     0.202 A 
HETATM   16  O1  UNL     1      25.789   2.543  53.673  1.00  0.00    -0.289 OA
HETATM   17  H6  UNL     1      23.516  -0.877  53.687  1.00  0.00     0.160 HD
ENDROOT
BRANCH  11  18
HETATM   18  N2  UNL     1      21.844  -0.134  52.670  1.00  0.00    -0.228 NA
BRANCH  18  19
HETATM   19  P1  UNL     1      20.506  -0.336  53.588  1.00  0.00     0.101 P 
BRANCH  19  20
HETATM   20  C10 UNL     1      18.915  -0.489  52.668  1.00  0.00    -0.003 A 
HETATM   21  C11 UNL     1      18.855   0.146  51.448  1.00  0.00     0.014 A 
HETATM   22  C12 UNL     1      17.694   0.064  50.722  1.00  0.00     0.001 A 
HETATM   23  C13 UNL     1      16.615  -0.652  51.230  1.00  0.00     0.000 A 
HETATM   24  C14 UNL     1      16.710  -1.277  52.458  1.00  0.00     0.001 A 
HETATM   25  C15 UNL     1      17.864  -1.197  53.182  1.00  0.00     0.014 A 
ENDBRANCH  19  20
ENDBRANCH  18  19
ENDBRANCH  11  18
TORSDOF 3
ENDMDL
MODEL 2
REMARK VINA RESULT:      -8.2      4.328      7.547
REMARK  3 active torsions:
REMARK  status: ('A' for Active; 'I' for Inactive)
REMARK    1  A    between atoms: C9_11  and  N2_12 
REMARK    2  A    between atoms: N2_12  and  P1_13 
REMARK    3  A    between atoms: P1_13  and  C10_14 
ROOT
HETATM    1  F1  UNL     1      28.194  -1.025  53.705  1.00  0.00    -0.206 F 
HETATM    2  C1  UNL     1      27.085  -0.374  53.269  1.00  0.00     0.117 A 
HETATM    3  C2  UNL     1      25.838  -0.773  53.704  1.00  0.00     0.045 A 
HETATM    4  C3  UNL     1      24.721  -0.096  53.247  1.00  0.00     0.041 A 
HETATM    5  C4  UNL     1      24.866   0.968  52.363  1.00  0.00     0.086 A 
HETATM    6  C5  UNL     1      26.091   1.386  51.914  1.00  0.00    -0.004 A 
HETATM    7  C6  UNL     1      27.194   0.697  52.382  1.00  0.00     0.054 A 
HETATM    8  C7  UNL     1      26.556   2.441  51.009  1.00  0.00     0.161 C 
HETATM    9  N1  UNL     1      25.692   3.580  50.906  1.00  0.00    -0.379 N 
HETATM   10  C8  UNL     1      24.349   3.793  51.270  1.00  0.00     0.130 A 
HETATM   11  C9  UNL     1      23.917   5.094  51.106  1.00  0.00     0.181 A 
HETATM   12  N3  UNL     1      22.668   5.538  51.389  1.00  0.00    -0.220 NA
HETATM   13  C16 UNL     1      21.802   4.599  51.868  1.00  0.00     0.238 A 
HETATM   14  N4  UNL     1      22.163   3.303  52.052  1.00  0.00    -0.215 NA
HETATM   15  C17 UNL     1      23.428   2.892  51.757  1.00  0.00     0.202 A 
HETATM   16  O1  UNL     1      23.640   1.543  51.999  1.00  0.00    -0.289 OA
HETATM   17  H6  UNL     1      26.152   4.413  50.478  1.00  0.00     0.160 HD
ENDROOT
BRANCH  11  18
HETATM   18  N2  UNL     1      24.854   6.049  50.602  1.00  0.00    -0.228 NA
BRANCH  18  19
HETATM   19  P1  UNL     1      25.073   6.270  48.996  1.00  0.00     0.101 P 
BRANCH  19  20
HETATM   20  C10 UNL     1      26.824   6.409  48.435  1.00  0.00    -0.003 A 
HETATM   21  C11 UNL     1      27.599   5.279  48.577  1.00  0.00     0.014 A 
HETATM   22  C12 UNL     1      28.910   5.328  48.176  1.00  0.00     0.001 A 
HETATM   23  C13 UNL     1      29.420   6.505  47.637  1.00  0.00     0.000 A 
HETATM   24  C14 UNL     1      28.614   7.619  47.509  1.00  0.00     0.001 A 
HETATM   25  C15 UNL     1      27.310   7.573  47.908  1.00  0.00     0.014 A 
ENDBRANCH  19  20
ENDBRANCH  18  19
ENDBRANCH  11  18
TORSDOF 3
ENDMDL
MODEL 3
REMARK VINA RESULT:      -8.1      3.778      8.725
REMARK  3 active torsions:
REMARK  status: ('A' for Active; 'I' for Inactive)
REMARK    1  A    between atoms: C9_11  and  N2_12 
REMARK    2  A    between atoms: N2_12  and  P1_13 
REMARK    3  A    between atoms: P1_13  and  C10_14 
ROOT
HETATM    1  F1  UNL     1      15.781  -0.775  49.802  1.00  0.00    -0.206 F 
HETATM    2  C1  UNL     1      16.694  -0.713  50.806  1.00  0.00     0.117 A 
HETATM    3  C2  UNL     1      16.483  -1.420  51.971  1.00  0.00     0.045 A 
HETATM    4  C3  UNL     1      17.427  -1.344  52.981  1.00  0.00     0.041 A 
HETATM    5  C4  UNL     1      18.565  -0.562  52.810  1.00  0.00     0.086 A 
HETATM    6  C5  UNL     1      18.800   0.150  51.664  1.00  0.00    -0.004 A 
HETATM    7  C6  UNL     1      17.847   0.060  50.668  1.00  0.00     0.054 A 
HETATM    8  C7  UNL     1      19.871   1.037  51.199  1.00  0.00     0.161 C 
HETATM    9  N1  UNL     1      21.158   0.794  51.781  1.00  0.00    -0.379 N 
HETATM   10  C8  UNL     1      21.570   0.070  52.916  1.00  0.00     0.130 A 
HETATM   11  C9  UNL     1      22.939  -0.016  53.067  1.00  0.00     0.181 A 
HETATM   12  N3  UNL     1      23.569  -0.661  54.080  1.00  0.00    -0.220 NA
HETATM   13  C16 UNL     1      22.755  -1.255  54.997  1.00  0.00     0.238 A 
HETATM   14  N4  UNL     1      21.401  -1.208  54.907  1.00  0.00    -0.215 NA
HETATM   15  C17 UNL     1      20.801  -0.551  53.875  1.00  0.00     0.202 A 
HETATM   16  O1  UNL     1      19.417  -0.593  53.924  1.00  0.00    -0.289 OA
HETATM   17  H6  UNL     1      21.942   1.244  51.258  1.00  0.00     0.160 HD
ENDROOT
BRANCH  11  18
HETATM   18  N2  UNL     1      23.760   0.621  52.084  1.00  0.00    -0.228 NA
BRANCH  18  19
HETATM   19  P1  UNL     1      24.878   1.742  52.495  1.00  0.00     0.101 P 
BRANCH  19  20
HETATM   20  C10 UNL     1      26.544   1.092  52.943  1.00  0.00    -0.003 A 
HETATM   21  C11 UNL     1      27.427   2.001  53.481  1.00  0.00     0.014 A 
HETATM   22  C12 UNL     1      28.681   1.570  53.832  1.00  0.00     0.001 A 
HETATM   23  C13 UNL     1      29.027   0.236  53.639  1.00  0.00     0.000 A 
HETATM   24  C14 UNL     1      28.116  -0.649  53.097  1.00  0.00     0.001 A 
HETATM   25  C15 UNL     1      26.868  -0.222  52.747  1.00  0.00     0.014 A 
ENDBRANCH  19  20
ENDBRANCH  18  19
ENDBRANCH  11  18
TORSDOF 3
ENDMDL
MODEL 4
REMARK VINA RESULT:      -8.1      4.508      5.910
REMARK  3 active torsions:
REMARK  status: ('A' for Active; 'I' for Inactive)
REMARK    1  A    between atoms: C9_11  and  N2_12 
REMARK    2  A    between atoms: N2_12  and  P1_13 
REMARK    3  A    between atoms: P1_13  and  C10_14 
ROOT
HETATM    1  F1  UNL     1      26.970   8.676  47.358  1.00  0.00    -0.206 F 
HETATM    2  C1  UNL     1      26.975   7.426  47.890  1.00  0.00     0.117 A 
HETATM    3  C2  UNL     1      28.152   6.709  47.948  1.00  0.00     0.045 A 
HETATM    4  C3  UNL     1      28.134   5.437  48.495  1.00  0.00     0.041 A 
HETATM    5  C4  UNL     1      26.942   4.903  48.974  1.00  0.00     0.086 A 
HETATM    6  C5  UNL     1      25.760   5.592  48.929  1.00  0.00    -0.004 A 
HETATM    7  C6  UNL     1      25.799   6.860  48.380  1.00  0.00     0.054 A 
HETATM    8  C7  UNL     1      24.381   5.309  49.340  1.00  0.00     0.161 C 
HETATM    9  N1  UNL     1      24.247   4.370  50.414  1.00  0.00    -0.379 N 
HETATM   10  C8  UNL     1      25.137   3.439  50.983  1.00  0.00     0.130 A 
HETATM   11  C9  UNL     1      24.644   2.795  52.100  1.00  0.00     0.181 A 
HETATM   12  N3  UNL     1      25.317   1.861  52.816  1.00  0.00    -0.220 NA
HETATM   13  C16 UNL     1      26.569   1.562  52.368  1.00  0.00     0.238 A 
HETATM   14  N4  UNL     1      27.112   2.159  51.276  1.00  0.00    -0.215 NA
HETATM   15  C17 UNL     1      26.407   3.094  50.579  1.00  0.00     0.202 A 
HETATM   16  O1  UNL     1      27.097   3.609  49.493  1.00  0.00    -0.289 OA
HETATM   17  H6  UNL     1      23.303   4.381  50.859  1.00  0.00     0.160 HD
ENDROOT
BRANCH  11  18
HETATM   18  N2  UNL     1      23.327   3.135  52.540  1.00  0.00    -0.228 NA
BRANCH  18  19
HETATM   19  P1  UNL     1      22.014   2.293  52.048  1.00  0.00     0.101 P 
BRANCH  19  20
HETATM   20  C10 UNL     1      21.652   0.747  52.986  1.00  0.00    -0.003 A 
HETATM   21  C11 UNL     1      20.346   0.310  52.957  1.00  0.00     0.014 A 
HETATM   22  C12 UNL     1      20.022  -0.835  53.639  1.00  0.00     0.001 A 
HETATM   23  C13 UNL     1      21.010  -1.523  54.336  1.00  0.00     0.000 A 
HETATM   24  C14 UNL     1      22.310  -1.056  54.344  1.00  0.00     0.001 A 
HETATM   25  C15 UNL     1      22.635   0.084  53.667  1.00  0.00     0.014 A 
ENDBRANCH  19  20
ENDBRANCH  18  19
ENDBRANCH  11  18
TORSDOF 3
ENDMDL
MODEL 5
REMARK VINA RESULT:      -8.0      4.784      8.408
REMARK  3 active torsions:
REMARK  status: ('A' for Active; 'I' for Inactive)
REMARK    1  A    between atoms: C9_11  and  N2_12 
REMARK    2  A    between atoms: N2_12  and  P1_13 
REMARK    3  A    between atoms: P1_13  and  C10_14 
ROOT
HETATM    1  F1  UNL     1      18.700  -0.717  52.781  1.00  0.00    -0.206 F 
HETATM    2  C1  UNL     1      19.954  -0.226  52.956  1.00  0.00     0.117 A 
HETATM    3  C2  UNL     1      20.786  -0.788  53.901  1.00  0.00     0.045 A 
HETATM    4  C3  UNL     1      22.061  -0.273  54.063  1.00  0.00     0.041 A 
HETATM    5  C4  UNL     1      22.483   0.795  53.278  1.00  0.00     0.086 A 
HETATM    6  C5  UNL     1      21.679   1.373  52.332  1.00  0.00    -0.004 A 
HETATM    7  C6  UNL     1      20.410   0.844  52.187  1.00  0.00     0.054 A 
HETATM    8  C7  UNL     1      21.831   2.477  51.380  1.00  0.00     0.161 C 
HETATM    9  N1  UNL     1      23.177   2.740  50.963  1.00  0.00    -0.379 N 
HETATM   10  C8  UNL     1      24.428   2.354  51.480  1.00  0.00     0.130 A 
HETATM   11  C9  UNL     1      25.503   2.728  50.701  1.00  0.00     0.181 A 
HETATM   12  N3  UNL     1      26.801   2.468  50.994  1.00  0.00    -0.220 NA
HETATM   13  C16 UNL     1      27.019   1.785  52.153  1.00  0.00     0.238 A 
HETATM   14  N4  UNL     1      26.005   1.388  52.965  1.00  0.00    -0.215 NA
HETATM   15  C17 UNL     1      24.712   1.666  52.639  1.00  0.00     0.202 A 
HETATM   16  O1  UNL     1      23.796   1.195  53.567  1.00  0.00    -0.289 OA
HETATM   17  H6  UNL     1      23.237   3.335  50.107  1.00  0.00     0.160 HD
ENDROOT
BRANCH  11  18
HETATM   18  N2  UNL     1      25.235   3.444  49.492  1.00  0.00    -0.228 NA
BRANCH  18  19
HETATM   19  P1  UNL     1      25.281   5.078  49.434  1.00  0.00     0.101 P 
BRANCH  19  20
HETATM   20  C10 UNL     1      26.778   5.813  48.650  1.00  0.00    -0.003 A 
HETATM   21  C11 UNL     1      27.916   5.036  48.664  1.00  0.00     0.014 A 
HETATM   22  C12 UNL     1      29.059   5.536  48.094  1.00  0.00     0.001 A 
HETATM   23  C13 UNL     1      29.043   6.803  47.519  1.00  0.00     0.000 A 
HETATM   24  C14 UNL     1      27.885   7.555  47.523  1.00  0.00     0.001 A 
HETATM   25  C15 UNL     1      26.746   7.060  48.090  1.00  0.00     0.014 A 
ENDBRANCH  19  20
ENDBRANCH  18  19
ENDBRANCH  11  18
TORSDOF 3
ENDMDL
MODEL 6
REMARK VINA RESULT:      -8.0      2.701      4.583
REMARK  3 active torsions:
REMARK  status: ('A' for Active; 'I' for Inactive)
REMARK    1  A    between atoms: C9_11  and  N2_12 
REMARK    2  A    between atoms: N2_12  and  P1_13 
REMARK    3  A    between atoms: P1_13  and  C10_14 
ROOT
HETATM    1  F1  UNL     1      29.110   2.853  53.455  1.00  0.00    -0.206 F 
HETATM    2  C1  UNL     1      28.074   1.982  53.569  1.00  0.00     0.117 A 
HETATM    3  C2  UNL     1      28.075   1.040  54.577  1.00  0.00     0.045 A 
HETATM    4  C3  UNL     1      27.009   0.163  54.675  1.00  0.00     0.041 A 
HETATM    5  C4  UNL     1      25.959   0.240  53.765  1.00  0.00     0.086 A 
HETATM    6  C5  UNL     1      25.932   1.164  52.754  1.00  0.00    -0.004 A 
HETATM    7  C6  UNL     1      27.005   2.031  52.674  1.00  0.00     0.054 A 
HETATM    8  C7  UNL     1      24.997   1.485  51.672  1.00  0.00     0.161 C 
HETATM    9  N1  UNL     1      23.628   1.144  51.928  1.00  0.00    -0.379 N 
HETATM   10  C8  UNL     1      23.017   0.307  52.881  1.00  0.00     0.130 A 
HETATM   11  C9  UNL     1      21.638   0.343  52.864  1.00  0.00     0.181 A 
HETATM   12  N3  UNL     1      20.833  -0.375  53.686  1.00  0.00    -0.220 NA
HETATM   13  C16 UNL     1      21.472  -1.180  54.582  1.00  0.00     0.238 A 
HETATM   14  N4  UNL     1      22.826  -1.261  54.651  1.00  0.00    -0.215 NA
HETATM   15  C17 UNL     1      23.604  -0.525  53.808  1.00  0.00     0.202 A 
HETATM   16  O1  UNL     1      24.963  -0.718  54.003  1.00  0.00    -0.289 OA
HETATM   17  H6  UNL     1      22.956   1.608  51.278  1.00  0.00     0.160 HD
ENDROOT
BRANCH  11  18
HETATM   18  N2  UNL     1      21.004   1.199  51.910  1.00  0.00    -0.228 NA
BRANCH  18  19
HETATM   19  P1  UNL     1      20.412   2.664  52.332  1.00  0.00     0.101 P 
BRANCH  19  20
HETATM   20  C10 UNL     1      21.359   4.122  51.719  1.00  0.00    -0.003 A 
HETATM   21  C11 UNL     1      22.568   4.364  52.334  1.00  0.00     0.014 A 
HETATM   22  C12 UNL     1      23.313   5.437  51.916  1.00  0.00     0.001 A 
HETATM   23  C13 UNL     1      22.837   6.246  50.890  1.00  0.00     0.000 A 
HETATM   24  C14 UNL     1      21.620   5.975  50.295  1.00  0.00     0.001 A 
HETATM   25  C15 UNL     1      20.877   4.908  50.709  1.00  0.00     0.014 A 
ENDBRANCH  19  20
ENDBRANCH  18  19
ENDBRANCH  11  18
TORSDOF 3
ENDMDL
MODEL 7
REMARK VINA RESULT:      -8.0      4.309      7.614
REMARK  3 active torsions:
REMARK  status: ('A' for Active; 'I' for Inactive)
REMARK    1  A    between atoms: C9_11  and  N2_12 
REMARK    2  A    between atoms: N2_12  and  P1_13 
REMARK    3  A    between atoms: P1_13  and  C10_14 
ROOT
HETATM    1  F1  UNL     1      24.344  -1.695  55.687  1.00  0.00    -0.206 F 
HETATM    2  C1  UNL     1      23.633  -0.930  54.819  1.00  0.00     0.117 A 
HETATM    3  C2  UNL     1      22.257  -0.898  54.899  1.00  0.00     0.045 A 
HETATM    4  C3  UNL     1      21.552  -0.111  54.005  1.00  0.00     0.041 A 
HETATM    5  C4  UNL     1      22.234   0.631  53.045  1.00  0.00     0.086 A 
HETATM    6  C5  UNL     1      23.599   0.618  52.942  1.00  0.00    -0.004 A 
HETATM    7  C6  UNL     1      24.284  -0.174  53.844  1.00  0.00     0.054 A 
HETATM    8  C7  UNL     1      24.577   1.269  52.065  1.00  0.00     0.161 C 
HETATM    9  N1  UNL     1      24.154   2.518  51.503  1.00  0.00    -0.379 N 
HETATM   10  C8  UNL     1      22.891   3.129  51.382  1.00  0.00     0.130 A 
HETATM   11  C9  UNL     1      22.930   4.411  50.872  1.00  0.00     0.181 A 
HETATM   12  N3  UNL     1      21.844   5.197  50.665  1.00  0.00    -0.220 NA
HETATM   13  C16 UNL     1      20.643   4.643  50.998  1.00  0.00     0.238 A 
HETATM   14  N4  UNL     1      20.536   3.388  51.504  1.00  0.00    -0.215 NA
HETATM   15  C17 UNL     1      21.649   2.626  51.698  1.00  0.00     0.202 A 
HETATM   16  O1  UNL     1      21.374   1.371  52.220  1.00  0.00    -0.289 OA
HETATM   17  H6  UNL     1      24.937   3.082  51.107  1.00  0.00     0.160 HD
ENDROOT
BRANCH  11  18
HETATM   18  N2  UNL     1      24.207   4.958  50.535  1.00  0.00    -0.228 NA
BRANCH  18  19
HETATM   19  P1  UNL     1      24.431   5.844  49.178  1.00  0.00     0.101 P 
BRANCH  19  20
HETATM   20  C10 UNL     1      26.180   6.060  48.637  1.00  0.00    -0.003 A 
HETATM   21  C11 UNL     1      27.027   5.001  48.880  1.00  0.00     0.014 A 
HETATM   22  C12 UNL     1      28.340   5.109  48.497  1.00  0.00     0.001 A 
HETATM   23  C13 UNL     1      28.781   6.274  47.878  1.00  0.00     0.000 A 
HETATM   24  C14 UNL     1      27.905   7.317  47.650  1.00  0.00     0.001 A 
HETATM   25  C15 UNL     1      26.598   7.212  48.030  1.00  0.00     0.014 A 
ENDBRANCH  19  20
ENDBRANCH  18  19
ENDBRANCH  11  18
TORSDOF 3
ENDMDL
MODEL 8
REMARK VINA RESULT:      -7.9      2.786      4.035
REMARK  3 active torsions:
REMARK  status: ('A' for Active; 'I' for Inactive)
REMARK    1  A    between atoms: C9_11  and  N2_12 
REMARK    2  A    between atoms: N2_12  and  P1_13 
REMARK    3  A    between atoms: P1_13  and  C10_14 
ROOT
HETATM    1  F1  UNL     1      29.043   2.799  53.492  1.00  0.00    -0.206 F 
HETATM    2  C1  UNL     1      27.997   1.935  53.562  1.00  0.00     0.117 A 
HETATM    3  C2  UNL     1      28.036   0.879  54.448  1.00  0.00     0.045 A 
HETATM    4  C3  UNL     1      26.959   0.012  54.504  1.00  0.00     0.041 A 
HETATM    5  C4  UNL     1      25.861   0.213  53.674  1.00  0.00     0.086 A 
HETATM    6  C5  UNL     1      25.794   1.253  52.785  1.00  0.00    -0.004 A 
HETATM    7  C6  UNL     1      26.879   2.108  52.745  1.00  0.00     0.054 A 
HETATM    8  C7  UNL     1      24.805   1.716  51.807  1.00  0.00     0.161 C 
HETATM    9  N1  UNL     1      23.447   1.366  52.101  1.00  0.00    -0.379 N 
HETATM   10  C8  UNL     1      22.874   0.428  52.982  1.00  0.00     0.130 A 
HETATM   11  C9  UNL     1      21.497   0.486  53.052  1.00  0.00     0.181 A 
HETATM   12  N3  UNL     1      20.726  -0.315  53.829  1.00  0.00    -0.220 NA
HETATM   13  C16 UNL     1      21.399  -1.231  54.583  1.00  0.00     0.238 A 
HETATM   14  N4  UNL     1      22.752  -1.339  54.560  1.00  0.00    -0.215 NA
HETATM   15  C17 UNL     1      23.496  -0.518  53.766  1.00  0.00     0.202 A 
HETATM   16  O1  UNL     1      24.859  -0.752  53.855  1.00  0.00    -0.289 OA
HETATM   17  H6  UNL     1      22.749   1.914  51.554  1.00  0.00     0.160 HD
ENDROOT
BRANCH  11  18
HETATM   18  N2  UNL     1      20.828   1.460  52.247  1.00  0.00    -0.228 NA
BRANCH  18  19
HETATM   19  P1  UNL     1      20.031   1.043  50.881  1.00  0.00     0.101 P 
BRANCH  19  20
HETATM   20  C10 UNL     1      20.627   1.839  49.328  1.00  0.00    -0.003 A 
HETATM   21  C11 UNL     1      21.917   1.542  48.948  1.00  0.00     0.014 A 
HETATM   22  C12 UNL     1      22.411   2.108  47.801  1.00  0.00     0.001 A 
HETATM   23  C13 UNL     1      21.604   2.960  47.053  1.00  0.00     0.000 A 
HETATM   24  C14 UNL     1      20.314   3.237  47.463  1.00  0.00     0.001 A 
HETATM   25  C15 UNL     1      19.821   2.675  48.605  1.00  0.00     0.014 A 
ENDBRANCH  19  20
ENDBRANCH  18  19
ENDBRANCH  11  18
TORSDOF 3
ENDMDL
MODEL 9
REMARK VINA RESULT:      -7.8      8.315     12.017
REMARK  3 active torsions:
REMARK  status: ('A' for Active; 'I' for Inactive)
REMARK    1  A    between atoms: C9_11  and  N2_12 
REMARK    2  A    between atoms: N2_12  and  P1_13 
REMARK    3  A    between atoms: P1_13  and  C10_14 
ROOT
HETATM    1  F1  UNL     1      24.044   3.839  49.632  1.00  0.00    -0.206 F 
HETATM    2  C1  UNL     1      24.832   4.849  49.182  1.00  0.00     0.117 A 
HETATM    3  C2  UNL     1      24.269   6.063  48.847  1.00  0.00     0.045 A 
HETATM    4  C3  UNL     1      25.091   7.079  48.391  1.00  0.00     0.041 A 
HETATM    5  C4  UNL     1      26.461   6.867  48.276  1.00  0.00     0.086 A 
HETATM    6  C5  UNL     1      27.047   5.672  48.601  1.00  0.00    -0.004 A 
HETATM    7  C6  UNL     1      26.210   4.671  49.055  1.00  0.00     0.054 A 
HETATM    8  C7  UNL     1      28.419   5.156  48.588  1.00  0.00     0.161 C 
HETATM    9  N1  UNL     1      29.444   6.147  48.733  1.00  0.00    -0.379 N 
HETATM   10  C8  UNL     1      29.439   7.549  48.605  1.00  0.00     0.130 A 
HETATM   11  C9  UNL     1      30.631   8.154  48.947  1.00  0.00     0.181 A 
HETATM   12  N3  UNL     1      30.865   9.489  48.904  1.00  0.00    -0.220 NA
HETATM   13  C16 UNL     1      29.819  10.257  48.486  1.00  0.00     0.238 A 
HETATM   14  N4  UNL     1      28.620   9.726  48.135  1.00  0.00    -0.215 NA
HETATM   15  C17 UNL     1      28.421   8.379  48.190  1.00  0.00     0.202 A 
HETATM   16  O1  UNL     1      27.147   7.994  47.801  1.00  0.00    -0.289 OA
HETATM   17  H6  UNL     1      30.375   5.748  48.983  1.00  0.00     0.160 HD
ENDROOT
BRANCH  11  18
HETATM   18  N2  UNL     1      31.705   7.314  49.381  1.00  0.00    -0.228 NA
BRANCH  18  19
HETATM   19  P1  UNL     1      33.034   7.076  48.458  1.00  0.00     0.101 P 
BRANCH  19  20
HETATM   20  C10 UNL     1      33.364   5.332  47.957  1.00  0.00    -0.003 A 
HETATM   21  C11 UNL     1      32.319   4.663  47.360  1.00  0.00     0.014 A 
HETATM   22  C12 UNL     1      32.511   3.363  46.968  1.00  0.00     0.001 A 
HETATM   23  C13 UNL     1      33.745   2.756  47.180  1.00  0.00     0.000 A 
HETATM   24  C14 UNL     1      34.771   3.457  47.783  1.00  0.00     0.001 A 
HETATM   25  C15 UNL     1      34.583   4.751  48.174  1.00  0.00     0.014 A 
ENDBRANCH  19  20
ENDBRANCH  18  19
ENDBRANCH  11  18
TORSDOF 3
ENDMDL
