MODEL 1
REMARK VINA RESULT:      -7.8      0.000      0.000
REMARK  8 active torsions:
REMARK  status: ('A' for Active; 'I' for Inactive)
REMARK    1  A    between atoms: C5_5  and  N1_6 
REMARK    2  A    between atoms: C7_8  and  N2_9 
REMARK    3  A    between atoms: N2_9  and  C8_10 
REMARK    4  A    between atoms: C8_10  and  N3_11 
REMARK    5  A    between atoms: C9_12  and  C10_13 
REMARK    6  A    between atoms: C9_12  and  C12_16 
REMARK    7  A    between atoms: C10_13  and  C11_14 
REMARK    8  A    between atoms: C11_14  and  N4_15 
ROOT
HETATM    1  C8  UNL     1      25.463   1.180  51.910  1.00  0.00     0.271 C 
ENDROOT
BRANCH   1   2
HETATM    2  N2  UNL     1      26.155   1.102  53.187  1.00  0.00    -0.371 N 
HETATM    3  H9  UNL     1      25.774   1.550  54.050  1.00  0.00     0.161 HD
BRANCH   2   4
HETATM    4  C7  UNL     1      27.369   0.405  53.280  1.00  0.00     0.037 A 
HETATM    5  C2  UNL     1      28.604   0.977  53.504  1.00  0.00    -0.035 A 
HETATM    6  C1  UNL     1      28.665   2.460  53.661  1.00  0.00     0.050 C 
HETATM    7  C3  UNL     1      29.767   0.257  53.588  1.00  0.00     0.011 A 
HETATM    8  C4  UNL     1      29.757  -1.117  53.447  1.00  0.00     0.029 A 
HETATM    9  C5  UNL     1      28.553  -1.750  53.222  1.00  0.00     0.027 A 
HETATM   10  C6  UNL     1      27.408  -0.982  53.146  1.00  0.00     0.058 A 
BRANCH   9  11
HETATM   11  N1  UNL     1      28.418  -3.167  53.061  1.00  0.00    -0.399 N 
HETATM   12  H6  UNL     1      27.831  -3.861  53.612  1.00  0.00     0.156 HD
HETATM   13  H7  UNL     1      29.051  -3.341  52.252  1.00  0.00     0.156 HD
ENDBRANCH   9  11
ENDBRANCH   2   4
ENDBRANCH   1   2
BRANCH   1  14
HETATM   14  N3  UNL     1      25.917   2.295  51.127  1.00  0.00    -0.269 NA
HETATM   15  C9  UNL     1      25.179   3.322  50.867  1.00  0.00     0.073 C 
BRANCH  15  16
HETATM   16  C10 UNL     1      23.801   3.613  51.262  1.00  0.00     0.108 C 
BRANCH  16  17
HETATM   17  C11 UNL     1      23.719   4.333  52.369  1.00  0.00    -0.023 C 
BRANCH  17  18
HETATM   18  N4  UNL     1      23.758   5.167  53.342  1.00  0.00    -0.258 NA
HETATM   19  H13 UNL     1      24.711   5.564  53.583  1.00  0.00     0.197 HD
ENDBRANCH  17  18
ENDBRANCH  16  17
ENDBRANCH  15  16
BRANCH  15  20
HETATM   20  C12 UNL     1      25.859   4.322  50.054  1.00  0.00     0.010 A 
HETATM   21  C13 UNL     1      26.991   4.042  49.315  1.00  0.00     0.017 A 
HETATM   22  C14 UNL     1      27.639   4.997  48.541  1.00  0.00     0.020 A 
HETATM   23  C15 UNL     1      27.148   6.273  48.496  1.00  0.00     0.116 A 
HETATM   24  N5  UNL     1      26.033   6.579  49.215  1.00  0.00    -0.272 NA
HETATM   25  C16 UNL     1      25.430   5.631  49.955  1.00  0.00     0.130 A 
ENDBRANCH  15  20
ENDBRANCH   1  14
TORSDOF 8
ENDMDL
MODEL 2
REMARK VINA RESULT:      -7.8      3.498      4.828
REMARK  8 active torsions:
REMARK  status: ('A' for Active; 'I' for Inactive)
REMARK    1  A    between atoms: C5_5  and  N1_6 
REMARK    2  A    between atoms: C7_8  and  N2_9 
REMARK    3  A    between atoms: N2_9  and  C8_10 
REMARK    4  A    between atoms: C8_10  and  N3_11 
REMARK    5  A    between atoms: C9_12  and  C10_13 
REMARK    6  A    between atoms: C9_12  and  C12_16 
REMARK    7  A    between atoms: C10_13  and  C11_14 
REMARK    8  A    between atoms: C11_14  and  N4_15 
ROOT
HETATM    1  C8  UNL     1      25.124   1.096  53.614  1.00  0.00     0.271 C 
ENDROOT
BRANCH   1   2
HETATM    2  N2  UNL     1      26.214   1.033  52.653  1.00  0.00    -0.371 N 
HETATM    3  H9  UNL     1      26.150   1.484  51.714  1.00  0.00     0.161 HD
BRANCH   2   4
HETATM    4  C7  UNL     1      27.395   0.351  52.983  1.00  0.00     0.037 A 
HETATM    5  C2  UNL     1      28.570   0.940  53.402  1.00  0.00    -0.035 A 
HETATM    6  C1  UNL     1      28.598   2.428  53.516  1.00  0.00     0.050 C 
HETATM    7  C3  UNL     1      29.702   0.234  53.715  1.00  0.00     0.011 A 
HETATM    8  C4  UNL     1      29.720  -1.144  53.623  1.00  0.00     0.029 A 
HETATM    9  C5  UNL     1      28.577  -1.795  53.210  1.00  0.00     0.027 A 
HETATM   10  C6  UNL     1      27.461  -1.040  52.906  1.00  0.00     0.058 A 
BRANCH   9  11
HETATM   11  N1  UNL     1      28.475  -3.217  53.077  1.00  0.00    -0.399 N 
HETATM   12  H6  UNL     1      28.902  -3.865  52.350  1.00  0.00     0.156 HD
HETATM   13  H7  UNL     1      27.866  -3.455  53.889  1.00  0.00     0.156 HD
ENDBRANCH   9  11
ENDBRANCH   2   4
ENDBRANCH   1   2
BRANCH   1  14
HETATM   14  N3  UNL     1      23.862   1.336  52.971  1.00  0.00    -0.269 NA
HETATM   15  C9  UNL     1      22.964   0.422  52.815  1.00  0.00     0.073 C 
BRANCH  15  16
HETATM   16  C10 UNL     1      22.978  -0.986  53.212  1.00  0.00     0.108 C 
BRANCH  16  17
HETATM   17  C11 UNL     1      22.036  -1.287  54.091  1.00  0.00    -0.023 C 
BRANCH  17  18
HETATM   18  N4  UNL     1      21.075  -1.377  54.934  1.00  0.00    -0.258 NA
HETATM   19  H13 UNL     1      21.197  -0.846  55.845  1.00  0.00     0.197 HD
ENDBRANCH  17  18
ENDBRANCH  16  17
ENDBRANCH  15  16
BRANCH  15  20
HETATM   20  C12 UNL     1      21.770   0.906  52.135  1.00  0.00     0.010 A 
HETATM   21  C13 UNL     1      21.399   0.478  50.876  1.00  0.00     0.017 A 
HETATM   22  C14 UNL     1      20.261   0.942  50.229  1.00  0.00     0.020 A 
HETATM   23  C15 UNL     1      19.461   1.862  50.850  1.00  0.00     0.116 A 
HETATM   24  N5  UNL     1      19.801   2.303  52.092  1.00  0.00    -0.272 NA
HETATM   25  C16 UNL     1      20.910   1.834  52.691  1.00  0.00     0.130 A 
ENDBRANCH  15  20
ENDBRANCH   1  14
TORSDOF 8
ENDMDL
MODEL 3
REMARK VINA RESULT:      -7.3      2.760      4.762
REMARK  8 active torsions:
REMARK  status: ('A' for Active; 'I' for Inactive)
REMARK    1  A    between atoms: C5_5  and  N1_6 
REMARK    2  A    between atoms: C7_8  and  N2_9 
REMARK    3  A    between atoms: N2_9  and  C8_10 
REMARK    4  A    between atoms: C8_10  and  N3_11 
REMARK    5  A    between atoms: C9_12  and  C10_13 
REMARK    6  A    between atoms: C9_12  and  C12_16 
REMARK    7  A    between atoms: C10_13  and  C11_14 
REMARK    8  A    between atoms: C11_14  and  N4_15 
ROOT
HETATM    1  C8  UNL     1      25.569   1.130  51.891  1.00  0.00     0.271 C 
ENDROOT
BRANCH   1   2
HETATM    2  N2  UNL     1      26.369   1.247  53.099  1.00  0.00    -0.371 N 
HETATM    3  H9  UNL     1      26.104   1.891  53.877  1.00  0.00     0.161 HD
BRANCH   2   4
HETATM    4  C7  UNL     1      27.534   0.478  53.240  1.00  0.00     0.037 A 
HETATM    5  C2  UNL     1      28.790   0.973  53.523  1.00  0.00    -0.035 A 
HETATM    6  C1  UNL     1      28.933   2.448  53.695  1.00  0.00     0.050 C 
HETATM    7  C3  UNL     1      29.903   0.183  53.653  1.00  0.00     0.011 A 
HETATM    8  C4  UNL     1      29.816  -1.187  53.501  1.00  0.00     0.029 A 
HETATM    9  C5  UNL     1      28.588  -1.745  53.217  1.00  0.00     0.027 A 
HETATM   10  C6  UNL     1      27.495  -0.908  53.096  1.00  0.00     0.058 A 
BRANCH   9  11
HETATM   11  N1  UNL     1      28.374  -3.150  53.039  1.00  0.00    -0.399 N 
HETATM   12  H6  UNL     1      28.650  -3.964  53.663  1.00  0.00     0.156 HD
HETATM   13  H7  UNL     1      27.872  -3.165  52.126  1.00  0.00     0.156 HD
ENDBRANCH   9  11
ENDBRANCH   2   4
ENDBRANCH   1   2
BRANCH   1  14
HETATM   14  N3  UNL     1      24.215   0.749  52.184  1.00  0.00    -0.269 NA
HETATM   15  C9  UNL     1      23.192   1.464  51.852  1.00  0.00     0.073 C 
BRANCH  15  16
HETATM   16  C10 UNL     1      23.130   2.745  51.149  1.00  0.00     0.108 C 
BRANCH  16  17
HETATM   17  C11 UNL     1      23.017   3.780  51.965  1.00  0.00    -0.023 C 
BRANCH  17  18
HETATM   18  N4  UNL     1      23.077   4.854  52.661  1.00  0.00    -0.258 NA
HETATM   19  H13 UNL     1      22.398   4.927  53.473  1.00  0.00     0.197 HD
ENDBRANCH  17  18
ENDBRANCH  16  17
ENDBRANCH  15  16
BRANCH  15  20
HETATM   20  C12 UNL     1      21.925   0.871  52.260  1.00  0.00     0.010 A 
HETATM   21  C13 UNL     1      20.842   0.764  51.412  1.00  0.00     0.017 A 
HETATM   22  C14 UNL     1      19.634   0.198  51.803  1.00  0.00     0.020 A 
HETATM   23  C15 UNL     1      19.495  -0.279  53.078  1.00  0.00     0.116 A 
HETATM   24  N5  UNL     1      20.548  -0.187  53.937  1.00  0.00    -0.272 NA
HETATM   25  C16 UNL     1      21.703   0.367  53.527  1.00  0.00     0.130 A 
ENDBRANCH  15  20
ENDBRANCH   1  14
TORSDOF 8
ENDMDL
MODEL 4
REMARK VINA RESULT:      -7.2      2.256      6.820
REMARK  8 active torsions:
REMARK  status: ('A' for Active; 'I' for Inactive)
REMARK    1  A    between atoms: C5_5  and  N1_6 
REMARK    2  A    between atoms: C7_8  and  N2_9 
REMARK    3  A    between atoms: N2_9  and  C8_10 
REMARK    4  A    between atoms: C8_10  and  N3_11 
REMARK    5  A    between atoms: C9_12  and  C10_13 
REMARK    6  A    between atoms: C9_12  and  C12_16 
REMARK    7  A    between atoms: C10_13  and  C11_14 
REMARK    8  A    between atoms: C11_14  and  N4_15 
ROOT
HETATM    1  C8  UNL     1      25.101   2.438  53.218  1.00  0.00     0.271 C 
ENDROOT
BRANCH   1   2
HETATM    2  N2  UNL     1      25.060   3.186  51.972  1.00  0.00    -0.371 N 
HETATM    3  H9  UNL     1      25.692   3.997  51.792  1.00  0.00     0.161 HD
BRANCH   2   4
HETATM    4  C7  UNL     1      24.150   2.818  50.969  1.00  0.00     0.037 A 
HETATM    5  C2  UNL     1      24.109   3.342  49.694  1.00  0.00    -0.035 A 
HETATM    6  C1  UNL     1      25.114   4.388  49.340  1.00  0.00     0.050 C 
HETATM    7  C3  UNL     1      23.201   2.952  48.744  1.00  0.00     0.011 A 
HETATM    8  C4  UNL     1      22.255   1.988  49.028  1.00  0.00     0.029 A 
HETATM    9  C5  UNL     1      22.241   1.424  50.286  1.00  0.00     0.027 A 
HETATM   10  C6  UNL     1      23.176   1.849  51.210  1.00  0.00     0.058 A 
BRANCH   9  11
HETATM   11  N1  UNL     1      21.309   0.418  50.697  1.00  0.00    -0.399 N 
HETATM   12  H6  UNL     1      20.693  -0.220  50.110  1.00  0.00     0.156 HD
HETATM   13  H7  UNL     1      21.392   0.474  51.734  1.00  0.00     0.156 HD
ENDBRANCH   9  11
ENDBRANCH   2   4
ENDBRANCH   1   2
BRANCH   1  14
HETATM   14  N3  UNL     1      26.119   1.425  53.197  1.00  0.00    -0.269 NA
HETATM   15  C9  UNL     1      25.890   0.187  53.487  1.00  0.00     0.073 C 
BRANCH  15  16
HETATM   16  C10 UNL     1      24.645  -0.470  53.881  1.00  0.00     0.108 C 
BRANCH  16  17
HETATM   17  C11 UNL     1      24.675  -0.940  55.118  1.00  0.00    -0.023 C 
BRANCH  17  18
HETATM   18  N4  UNL     1      24.899  -1.448  56.273  1.00  0.00    -0.258 NA
HETATM   19  H13 UNL     1      24.382  -1.009  57.088  1.00  0.00     0.197 HD
ENDBRANCH  17  18
ENDBRANCH  16  17
ENDBRANCH  15  16
BRANCH  15  20
HETATM   20  C12 UNL     1      27.080  -0.649  53.396  1.00  0.00     0.010 A 
HETATM   21  C13 UNL     1      28.326  -0.226  53.813  1.00  0.00     0.017 A 
HETATM   22  C14 UNL     1      29.460  -1.025  53.724  1.00  0.00     0.020 A 
HETATM   23  C15 UNL     1      29.355  -2.287  53.205  1.00  0.00     0.116 A 
HETATM   24  N5  UNL     1      28.139  -2.731  52.785  1.00  0.00    -0.272 NA
HETATM   25  C16 UNL     1      27.061  -1.932  52.884  1.00  0.00     0.130 A 
ENDBRANCH  15  20
ENDBRANCH   1  14
TORSDOF 8
ENDMDL
MODEL 5
REMARK VINA RESULT:      -7.1      3.502      5.317
REMARK  8 active torsions:
REMARK  status: ('A' for Active; 'I' for Inactive)
REMARK    1  A    between atoms: C5_5  and  N1_6 
REMARK    2  A    between atoms: C7_8  and  N2_9 
REMARK    3  A    between atoms: N2_9  and  C8_10 
REMARK    4  A    between atoms: C8_10  and  N3_11 
REMARK    5  A    between atoms: C9_12  and  C10_13 
REMARK    6  A    between atoms: C9_12  and  C12_16 
REMARK    7  A    between atoms: C10_13  and  C11_14 
REMARK    8  A    between atoms: C11_14  and  N4_15 
ROOT
HETATM    1  C8  UNL     1      24.944   1.963  53.229  1.00  0.00     0.271 C 
ENDROOT
BRANCH   1   2
HETATM    2  N2  UNL     1      25.781   1.082  52.430  1.00  0.00    -0.371 N 
HETATM    3  H9  UNL     1      25.489   0.750  51.484  1.00  0.00     0.161 HD
BRANCH   2   4
HETATM    4  C7  UNL     1      27.022   0.658  52.929  1.00  0.00     0.037 A 
HETATM    5  C2  UNL     1      27.506  -0.633  52.878  1.00  0.00    -0.035 A 
HETATM    6  C1  UNL     1      26.647  -1.672  52.239  1.00  0.00     0.050 C 
HETATM    7  C3  UNL     1      28.726  -1.004  53.380  1.00  0.00     0.011 A 
HETATM    8  C4  UNL     1      29.553  -0.075  53.979  1.00  0.00     0.029 A 
HETATM    9  C5  UNL     1      29.128   1.234  54.063  1.00  0.00     0.027 A 
HETATM   10  C6  UNL     1      27.890   1.560  53.543  1.00  0.00     0.058 A 
BRANCH   9  11
HETATM   11  N1  UNL     1      29.896   2.284  54.661  1.00  0.00    -0.399 N 
HETATM   12  H6  UNL     1      30.848   2.247  55.133  1.00  0.00     0.156 HD
HETATM   13  H7  UNL     1      29.272   3.105  54.510  1.00  0.00     0.156 HD
ENDBRANCH   9  11
ENDBRANCH   2   4
ENDBRANCH   1   2
BRANCH   1  14
HETATM   14  N3  UNL     1      23.585   1.974  52.762  1.00  0.00    -0.269 NA
HETATM   15  C9  UNL     1      22.816   0.938  52.806  1.00  0.00     0.073 C 
BRANCH  15  16
HETATM   16  C10 UNL     1      23.085  -0.413  53.297  1.00  0.00     0.108 C 
BRANCH  16  17
HETATM   17  C11 UNL     1      22.266  -0.785  54.267  1.00  0.00    -0.023 C 
BRANCH  17  18
HETATM   18  N4  UNL     1      21.326  -1.144  55.061  1.00  0.00    -0.258 NA
HETATM   19  H13 UNL     1      21.583  -1.857  55.803  1.00  0.00     0.197 HD
ENDBRANCH  17  18
ENDBRANCH  16  17
ENDBRANCH  15  16
BRANCH  15  20
HETATM   20  C12 UNL     1      21.484   1.196  52.274  1.00  0.00     0.010 A 
HETATM   21  C13 UNL     1      20.923   0.444  51.261  1.00  0.00     0.017 A 
HETATM   22  C14 UNL     1      19.653   0.692  50.755  1.00  0.00     0.020 A 
HETATM   23  C15 UNL     1      18.912   1.721  51.271  1.00  0.00     0.116 A 
HETATM   24  N5  UNL     1      19.439   2.480  52.270  1.00  0.00    -0.272 NA
HETATM   25  C16 UNL     1      20.672   2.214  52.738  1.00  0.00     0.130 A 
ENDBRANCH  15  20
ENDBRANCH   1  14
TORSDOF 8
ENDMDL
MODEL 6
REMARK VINA RESULT:      -7.1      3.465      7.332
REMARK  8 active torsions:
REMARK  status: ('A' for Active; 'I' for Inactive)
REMARK    1  A    between atoms: C5_5  and  N1_6 
REMARK    2  A    between atoms: C7_8  and  N2_9 
REMARK    3  A    between atoms: N2_9  and  C8_10 
REMARK    4  A    between atoms: C8_10  and  N3_11 
REMARK    5  A    between atoms: C9_12  and  C10_13 
REMARK    6  A    between atoms: C9_12  and  C12_16 
REMARK    7  A    between atoms: C10_13  and  C11_14 
REMARK    8  A    between atoms: C11_14  and  N4_15 
ROOT
HETATM    1  C8  UNL     1      23.713   0.553  53.296  1.00  0.00     0.271 C 
ENDROOT
BRANCH   1   2
HETATM    2  N2  UNL     1      23.115   0.668  51.976  1.00  0.00    -0.371 N 
HETATM    3  H9  UNL     1      23.685   0.883  51.128  1.00  0.00     0.161 HD
BRANCH   2   4
HETATM    4  C7  UNL     1      21.732   0.485  51.819  1.00  0.00     0.037 A 
HETATM    5  C2  UNL     1      20.998   0.851  50.710  1.00  0.00    -0.035 A 
HETATM    6  C1  UNL     1      21.725   1.496  49.577  1.00  0.00     0.050 C 
HETATM    7  C3  UNL     1      19.646   0.653  50.599  1.00  0.00     0.011 A 
HETATM    8  C4  UNL     1      18.934   0.061  51.623  1.00  0.00     0.029 A 
HETATM    9  C5  UNL     1      19.610  -0.329  52.760  1.00  0.00     0.027 A 
HETATM   10  C6  UNL     1      20.972  -0.108  52.825  1.00  0.00     0.058 A 
BRANCH   9  11
HETATM   11  N1  UNL     1      18.981  -0.952  53.886  1.00  0.00    -0.399 N 
HETATM   12  H6  UNL     1      18.514  -0.512  54.733  1.00  0.00     0.156 HD
HETATM   13  H7  UNL     1      19.102  -1.961  53.654  1.00  0.00     0.156 HD
ENDBRANCH   9  11
ENDBRANCH   2   4
ENDBRANCH   1   2
BRANCH   1  14
HETATM   14  N3  UNL     1      24.943  -0.188  53.261  1.00  0.00    -0.269 NA
HETATM   15  C9  UNL     1      26.104   0.366  53.368  1.00  0.00     0.073 C 
BRANCH  15  16
HETATM   16  C10 UNL     1      26.462   1.774  53.539  1.00  0.00     0.108 C 
BRANCH  16  17
HETATM   17  C11 UNL     1      26.667   2.400  52.392  1.00  0.00    -0.023 C 
BRANCH  17  18
HETATM   18  N4  UNL     1      27.065   2.956  51.308  1.00  0.00    -0.258 NA
HETATM   19  H13 UNL     1      28.112   2.953  51.135  1.00  0.00     0.197 HD
ENDBRANCH  17  18
ENDBRANCH  16  17
ENDBRANCH  15  16
BRANCH  15  20
HETATM   20  C12 UNL     1      27.200  -0.592  53.302  1.00  0.00     0.010 A 
HETATM   21  C13 UNL     1      28.482  -0.294  53.718  1.00  0.00     0.017 A 
HETATM   22  C14 UNL     1      29.526  -1.209  53.653  1.00  0.00     0.020 A 
HETATM   23  C15 UNL     1      29.292  -2.463  53.159  1.00  0.00     0.116 A 
HETATM   24  N5  UNL     1      28.038  -2.786  52.740  1.00  0.00    -0.272 NA
HETATM   25  C16 UNL     1      27.049  -1.877  52.816  1.00  0.00     0.130 A 
ENDBRANCH  15  20
ENDBRANCH   1  14
TORSDOF 8
ENDMDL
MODEL 7
REMARK VINA RESULT:      -7.0      1.609      6.776
REMARK  8 active torsions:
REMARK  status: ('A' for Active; 'I' for Inactive)
REMARK    1  A    between atoms: C5_5  and  N1_6 
REMARK    2  A    between atoms: C7_8  and  N2_9 
REMARK    3  A    between atoms: N2_9  and  C8_10 
REMARK    4  A    between atoms: C8_10  and  N3_11 
REMARK    5  A    between atoms: C9_12  and  C10_13 
REMARK    6  A    between atoms: C9_12  and  C12_16 
REMARK    7  A    between atoms: C10_13  and  C11_14 
REMARK    8  A    between atoms: C11_14  and  N4_15 
ROOT
HETATM    1  C8  UNL     1      26.101   3.185  49.613  1.00  0.00     0.271 C 
ENDROOT
BRANCH   1   2
HETATM    2  N2  UNL     1      26.876   4.267  49.028  1.00  0.00    -0.371 N 
HETATM    3  H9  UNL     1      27.680   4.087  48.386  1.00  0.00     0.161 HD
BRANCH   2   4
HETATM    4  C7  UNL     1      26.547   5.599  49.322  1.00  0.00     0.037 A 
HETATM    5  C2  UNL     1      27.183   6.712  48.813  1.00  0.00    -0.035 A 
HETATM    6  C1  UNL     1      28.318   6.493  47.869  1.00  0.00     0.050 C 
HETATM    7  C3  UNL     1      26.827   7.997  49.128  1.00  0.00     0.011 A 
HETATM    8  C4  UNL     1      25.783   8.246  49.997  1.00  0.00     0.029 A 
HETATM    9  C5  UNL     1      25.105   7.176  50.541  1.00  0.00     0.027 A 
HETATM   10  C6  UNL     1      25.501   5.899  50.193  1.00  0.00     0.058 A 
BRANCH   9  11
HETATM   11  N1  UNL     1      24.008   7.309  51.453  1.00  0.00    -0.399 N 
HETATM   12  H6  UNL     1      24.012   7.415  52.510  1.00  0.00     0.156 HD
HETATM   13  H7  UNL     1      23.196   7.274  50.800  1.00  0.00     0.156 HD
ENDBRANCH   9  11
ENDBRANCH   2   4
ENDBRANCH   1   2
BRANCH   1  14
HETATM   14  N3  UNL     1      26.783   2.583  50.725  1.00  0.00    -0.269 NA
HETATM   15  C9  UNL     1      26.170   2.134  51.769  1.00  0.00     0.073 C 
BRANCH  15  16
HETATM   16  C10 UNL     1      24.742   2.113  52.085  1.00  0.00     0.108 C 
BRANCH  16  17
HETATM   17  C11 UNL     1      24.301   3.263  52.569  1.00  0.00    -0.023 C 
BRANCH  17  18
HETATM   18  N4  UNL     1      24.066   4.399  53.112  1.00  0.00    -0.258 NA
HETATM   19  H13 UNL     1      24.263   4.474  54.152  1.00  0.00     0.197 HD
ENDBRANCH  17  18
ENDBRANCH  16  17
ENDBRANCH  15  16
BRANCH  15  20
HETATM   20  C12 UNL     1      27.076   1.570  52.762  1.00  0.00     0.010 A 
HETATM   21  C13 UNL     1      28.166   2.257  53.258  1.00  0.00     0.017 A 
HETATM   22  C14 UNL     1      29.029   1.717  54.203  1.00  0.00     0.020 A 
HETATM   23  C15 UNL     1      28.804   0.452  54.675  1.00  0.00     0.116 A 
HETATM   24  N5  UNL     1      27.737  -0.250  54.204  1.00  0.00    -0.272 NA
HETATM   25  C16 UNL     1      26.921   0.302  53.289  1.00  0.00     0.130 A 
ENDBRANCH  15  20
ENDBRANCH   1  14
TORSDOF 8
ENDMDL
MODEL 8
REMARK VINA RESULT:      -7.0      2.333      6.981
REMARK  8 active torsions:
REMARK  status: ('A' for Active; 'I' for Inactive)
REMARK    1  A    between atoms: C5_5  and  N1_6 
REMARK    2  A    between atoms: C7_8  and  N2_9 
REMARK    3  A    between atoms: N2_9  and  C8_10 
REMARK    4  A    between atoms: C8_10  and  N3_11 
REMARK    5  A    between atoms: C9_12  and  C10_13 
REMARK    6  A    between atoms: C9_12  and  C12_16 
REMARK    7  A    between atoms: C10_13  and  C11_14 
REMARK    8  A    between atoms: C11_14  and  N4_15 
ROOT
HETATM    1  C8  UNL     1      23.757   0.832  53.225  1.00  0.00     0.271 C 
ENDROOT
BRANCH   1   2
HETATM    2  N2  UNL     1      23.254   1.089  51.885  1.00  0.00    -0.371 N 
HETATM    3  H9  UNL     1      22.978   0.315  51.240  1.00  0.00     0.161 HD
BRANCH   2   4
HETATM    4  C7  UNL     1      23.129   2.410  51.430  1.00  0.00     0.037 A 
HETATM    5  C2  UNL     1      22.643   2.789  50.196  1.00  0.00    -0.035 A 
HETATM    6  C1  UNL     1      22.212   1.710  49.258  1.00  0.00     0.050 C 
HETATM    7  C3  UNL     1      22.537   4.094  49.792  1.00  0.00     0.011 A 
HETATM    8  C4  UNL     1      22.925   5.124  50.627  1.00  0.00     0.029 A 
HETATM    9  C5  UNL     1      23.420   4.812  51.875  1.00  0.00     0.027 A 
HETATM   10  C6  UNL     1      23.507   3.482  52.238  1.00  0.00     0.058 A 
BRANCH   9  11
HETATM   11  N1  UNL     1      23.853   5.791  52.827  1.00  0.00    -0.399 N 
HETATM   12  H6  UNL     1      23.285   6.497  53.382  1.00  0.00     0.156 HD
HETATM   13  H7  UNL     1      24.882   5.629  52.832  1.00  0.00     0.156 HD
ENDBRANCH   9  11
ENDBRANCH   2   4
ENDBRANCH   1   2
BRANCH   1  14
HETATM   14  N3  UNL     1      24.940   0.016  53.202  1.00  0.00    -0.269 NA
HETATM   15  C9  UNL     1      26.134   0.503  53.275  1.00  0.00     0.073 C 
BRANCH  15  16
HETATM   16  C10 UNL     1      26.577   1.891  53.390  1.00  0.00     0.108 C 
BRANCH  16  17
HETATM   17  C11 UNL     1      26.783   2.469  52.218  1.00  0.00    -0.023 C 
BRANCH  17  18
HETATM   18  N4  UNL     1      27.163   3.091  51.163  1.00  0.00    -0.258 NA
HETATM   19  H13 UNL     1      27.992   3.743  51.274  1.00  0.00     0.197 HD
ENDBRANCH  17  18
ENDBRANCH  16  17
ENDBRANCH  15  16
BRANCH  15  20
HETATM   20  C12 UNL     1      27.169  -0.522  53.231  1.00  0.00     0.010 A 
HETATM   21  C13 UNL     1      28.470  -0.290  53.632  1.00  0.00     0.017 A 
HETATM   22  C14 UNL     1      29.456  -1.268  53.588  1.00  0.00     0.020 A 
HETATM   23  C15 UNL     1      29.143  -2.520  53.133  1.00  0.00     0.116 A 
HETATM   24  N5  UNL     1      27.868  -2.778  52.731  1.00  0.00    -0.272 NA
HETATM   25  C16 UNL     1      26.937  -1.809  52.785  1.00  0.00     0.130 A 
ENDBRANCH  15  20
ENDBRANCH   1  14
TORSDOF 8
ENDMDL
MODEL 9
REMARK VINA RESULT:      -7.0      1.881      6.890
REMARK  8 active torsions:
REMARK  status: ('A' for Active; 'I' for Inactive)
REMARK    1  A    between atoms: C5_5  and  N1_6 
REMARK    2  A    between atoms: C7_8  and  N2_9 
REMARK    3  A    between atoms: N2_9  and  C8_10 
REMARK    4  A    between atoms: C8_10  and  N3_11 
REMARK    5  A    between atoms: C9_12  and  C10_13 
REMARK    6  A    between atoms: C9_12  and  C12_16 
REMARK    7  A    between atoms: C10_13  and  C11_14 
REMARK    8  A    between atoms: C11_14  and  N4_15 
ROOT
HETATM    1  C8  UNL     1      24.364   2.540  52.729  1.00  0.00     0.271 C 
ENDROOT
BRANCH   1   2
HETATM    2  N2  UNL     1      24.188   2.894  51.330  1.00  0.00    -0.371 N 
HETATM    3  H9  UNL     1      23.707   2.259  50.655  1.00  0.00     0.161 HD
BRANCH   2   4
HETATM    4  C7  UNL     1      24.671   4.124  50.857  1.00  0.00     0.037 A 
HETATM    5  C2  UNL     1      25.723   4.286  49.979  1.00  0.00    -0.035 A 
HETATM    6  C1  UNL     1      26.411   3.058  49.484  1.00  0.00     0.050 C 
HETATM    7  C3  UNL     1      26.162   5.509  49.543  1.00  0.00     0.011 A 
HETATM    8  C4  UNL     1      25.555   6.671  49.975  1.00  0.00     0.029 A 
HETATM    9  C5  UNL     1      24.497   6.578  50.854  1.00  0.00     0.027 A 
HETATM   10  C6  UNL     1      24.090   5.323  51.266  1.00  0.00     0.058 A 
BRANCH   9  11
HETATM   11  N1  UNL     1      23.789   7.711  51.371  1.00  0.00    -0.399 N 
HETATM   12  H6  UNL     1      23.460   8.591  50.876  1.00  0.00     0.156 HD
HETATM   13  H7  UNL     1      23.680   7.442  52.373  1.00  0.00     0.156 HD
ENDBRANCH   9  11
ENDBRANCH   2   4
ENDBRANCH   1   2
BRANCH   1  14
HETATM   14  N3  UNL     1      25.605   1.851  52.952  1.00  0.00    -0.269 NA
HETATM   15  C9  UNL     1      25.670   0.622  53.343  1.00  0.00     0.073 C 
BRANCH  15  16
HETATM   16  C10 UNL     1      24.599  -0.328  53.640  1.00  0.00     0.108 C 
BRANCH  16  17
HETATM   17  C11 UNL     1      24.758  -0.943  54.801  1.00  0.00    -0.023 C 
BRANCH  17  18
HETATM   18  N4  UNL     1      24.860  -1.357  56.009  1.00  0.00    -0.258 NA
HETATM   19  H13 UNL     1      25.523  -2.168  56.174  1.00  0.00     0.197 HD
ENDBRANCH  17  18
ENDBRANCH  16  17
ENDBRANCH  15  16
BRANCH  15  20
HETATM   20  C12 UNL     1      27.039   0.147  53.500  1.00  0.00     0.010 A 
HETATM   21  C13 UNL     1      27.488  -1.037  52.950  1.00  0.00     0.017 A 
HETATM   22  C14 UNL     1      28.793  -1.489  53.102  1.00  0.00     0.020 A 
HETATM   23  C15 UNL     1      29.685  -0.742  53.823  1.00  0.00     0.116 A 
HETATM   24  N5  UNL     1      29.270   0.431  54.377  1.00  0.00    -0.272 NA
HETATM   25  C16 UNL     1      27.999   0.840  54.211  1.00  0.00     0.130 A 
ENDBRANCH  15  20
ENDBRANCH   1  14
TORSDOF 8
ENDMDL
