MODEL 1
REMARK VINA RESULT:      -8.3      0.000      0.000
REMARK  3 active torsions:
REMARK  status: ('A' for Active; 'I' for Inactive)
REMARK    1  A    between atoms: C6_6  and  N1_7 
REMARK    2  A    between atoms: N1_7  and  C7_8 
REMARK    3  A    between atoms: C12_15  and  N4_16 
REMARK       I    between atoms: N4_16  and  C13_17 
ROOT
HETATM    1  C1  UNL     1      29.638  -2.230  53.439  1.00  0.00     0.018 C 
HETATM    2  C2  UNL     1      29.190  -1.091  53.479  1.00  0.00    -0.078 C 
HETATM    3  C3  UNL     1      28.648   0.237  53.545  1.00  0.00     0.015 A 
HETATM    4  C4  UNL     1      29.272   1.381  53.617  1.00  0.00    -0.000 A 
HETATM    5  C5  UNL     1      28.315   2.510  53.664  1.00  0.00     0.085 A 
HETATM    6  C6  UNL     1      26.978   1.841  53.606  1.00  0.00     0.015 A 
HETATM    7  C17 UNL     1      27.237   0.525  53.538  1.00  0.00     0.045 A 
ENDROOT
BRANCH   6   8
HETATM    8  N1  UNL     1      25.715   2.492  53.622  1.00  0.00    -0.343 N 
HETATM    9  H5  UNL     1      25.778   3.275  54.309  1.00  0.00     0.167 HD
BRANCH   8  10
HETATM   10  C7  UNL     1      24.669   2.041  52.799  1.00  0.00     0.141 A 
HETATM   11  N2  UNL     1      23.943   1.025  53.289  1.00  0.00    -0.224 NA
HETATM   12  C8  UNL     1      22.905   0.517  52.561  1.00  0.00     0.236 A 
HETATM   13  N3  UNL     1      22.629   1.051  51.355  1.00  0.00    -0.241 NA
HETATM   14  C9  UNL     1      23.353   2.070  50.857  1.00  0.00     0.072 A 
HETATM   15  C10 UNL     1      23.053   2.599  49.623  1.00  0.00     0.035 A 
HETATM   16  C16 UNL     1      24.416   2.612  51.569  1.00  0.00     0.041 A 
HETATM   17  C11 UNL     1      23.780   3.655  49.073  1.00  0.00     0.032 A 
HETATM   18  C12 UNL     1      24.818   4.135  49.843  1.00  0.00     0.035 A 
HETATM   19  C15 UNL     1      25.172   3.651  51.084  1.00  0.00     0.047 A 
BRANCH  18  20
HETATM   20  N4  UNL     1      25.612   5.220  49.346  1.00  0.00    -0.327 N 
HETATM   21  C13 UNL     1      26.958   5.052  48.874  1.00  0.00     0.218 C 
HETATM   22  C14 UNL     1      27.695   6.256  48.375  1.00  0.00     0.117 C 
HETATM   23  O1  UNL     1      27.588   3.965  48.838  1.00  0.00    -0.274 OA
HETATM   24  H9  UNL     1      25.211   6.183  49.318  1.00  0.00     0.169 HD
ENDBRANCH  18  20
ENDBRANCH   8  10
ENDBRANCH   6   8
TORSDOF 3
ENDMDL
MODEL 2
REMARK VINA RESULT:      -8.1      2.295      4.545
REMARK  3 active torsions:
REMARK  status: ('A' for Active; 'I' for Inactive)
REMARK    1  A    between atoms: C6_6  and  N1_7 
REMARK    2  A    between atoms: N1_7  and  C7_8 
REMARK    3  A    between atoms: C12_15  and  N4_16 
REMARK       I    between atoms: N4_16  and  C13_17 
ROOT
HETATM    1  C1  UNL     1      29.104  -2.468  53.187  1.00  0.00     0.018 C 
HETATM    2  C2  UNL     1      28.818  -1.279  53.267  1.00  0.00    -0.078 C 
HETATM    3  C3  UNL     1      28.460   0.107  53.373  1.00  0.00     0.015 A 
HETATM    4  C4  UNL     1      29.184   1.119  53.765  1.00  0.00    -0.000 A 
HETATM    5  C5  UNL     1      28.411   2.381  53.717  1.00  0.00     0.085 A 
HETATM    6  C6  UNL     1      27.067   1.951  53.218  1.00  0.00     0.015 A 
HETATM    7  C17 UNL     1      27.158   0.624  53.037  1.00  0.00     0.045 A 
ENDROOT
BRANCH   6   8
HETATM    8  N1  UNL     1      25.948   2.798  52.993  1.00  0.00    -0.343 N 
HETATM    9  H5  UNL     1      25.715   3.252  53.903  1.00  0.00     0.167 HD
BRANCH   8  10
HETATM   10  C7  UNL     1      25.373   2.896  51.715  1.00  0.00     0.141 A 
HETATM   11  N2  UNL     1      26.112   3.536  50.795  1.00  0.00    -0.224 NA
HETATM   12  C8  UNL     1      25.637   3.682  49.522  1.00  0.00     0.236 A 
HETATM   13  N3  UNL     1      24.427   3.176  49.214  1.00  0.00    -0.241 NA
HETATM   14  C9  UNL     1      23.680   2.534  50.132  1.00  0.00     0.072 A 
HETATM   15  C10 UNL     1      22.447   2.026  49.795  1.00  0.00     0.035 A 
HETATM   16  C16 UNL     1      24.131   2.367  51.436  1.00  0.00     0.041 A 
HETATM   17  C11 UNL     1      21.645   1.354  50.717  1.00  0.00     0.032 A 
HETATM   18  C12 UNL     1      22.165   1.231  51.988  1.00  0.00     0.035 A 
HETATM   19  C15 UNL     1      23.391   1.716  52.392  1.00  0.00     0.047 A 
BRANCH  18  20
HETATM   20  N4  UNL     1      21.400   0.552  52.992  1.00  0.00    -0.327 N 
HETATM   21  C13 UNL     1      21.667  -0.799  53.400  1.00  0.00     0.218 C 
HETATM   22  C14 UNL     1      20.803  -1.409  54.460  1.00  0.00     0.117 C 
HETATM   23  O1  UNL     1      22.578  -1.533  52.940  1.00  0.00    -0.274 OA
HETATM   24  H9  UNL     1      20.609   1.046  53.460  1.00  0.00     0.169 HD
ENDBRANCH  18  20
ENDBRANCH   8  10
ENDBRANCH   6   8
TORSDOF 3
ENDMDL
MODEL 3
REMARK VINA RESULT:      -7.9      3.025      6.908
REMARK  3 active torsions:
REMARK  status: ('A' for Active; 'I' for Inactive)
REMARK    1  A    between atoms: C6_6  and  N1_7 
REMARK    2  A    between atoms: N1_7  and  C7_8 
REMARK    3  A    between atoms: C12_15  and  N4_16 
REMARK       I    between atoms: N4_16  and  C13_17 
ROOT
HETATM    1  C1  UNL     1      28.723   6.753  47.526  1.00  0.00     0.018 C 
HETATM    2  C2  UNL     1      27.886   6.157  48.194  1.00  0.00    -0.078 C 
HETATM    3  C3  UNL     1      26.925   5.450  48.992  1.00  0.00     0.015 A 
HETATM    4  C4  UNL     1      25.787   5.867  49.477  1.00  0.00    -0.000 A 
HETATM    5  C5  UNL     1      25.110   4.799  50.246  1.00  0.00     0.085 A 
HETATM    6  C6  UNL     1      26.050   3.640  50.142  1.00  0.00     0.015 A 
HETATM    7  C17 UNL     1      27.082   4.079  49.404  1.00  0.00     0.045 A 
ENDROOT
BRANCH   6   8
HETATM    8  N1  UNL     1      25.861   2.354  50.717  1.00  0.00    -0.343 N 
HETATM    9  H5  UNL     1      25.193   1.836  50.105  1.00  0.00     0.167 HD
BRANCH   8  10
HETATM   10  C7  UNL     1      26.526   1.998  51.903  1.00  0.00     0.141 A 
HETATM   11  N2  UNL     1      27.747   2.530  52.064  1.00  0.00    -0.224 NA
HETATM   12  C8  UNL     1      28.472   2.242  53.185  1.00  0.00     0.236 A 
HETATM   13  N3  UNL     1      27.943   1.422  54.114  1.00  0.00    -0.241 NA
HETATM   14  C9  UNL     1      26.719   0.884  53.958  1.00  0.00     0.072 A 
HETATM   15  C10 UNL     1      26.198   0.049  54.920  1.00  0.00     0.035 A 
HETATM   16  C16 UNL     1      25.953   1.155  52.831  1.00  0.00     0.041 A 
HETATM   17  C11 UNL     1      24.934  -0.527  54.795  1.00  0.00     0.032 A 
HETATM   18  C12 UNL     1      24.239  -0.208  53.648  1.00  0.00     0.035 A 
HETATM   19  C15 UNL     1      24.701   0.620  52.647  1.00  0.00     0.047 A 
BRANCH  18  20
HETATM   20  N4  UNL     1      22.932  -0.761  53.447  1.00  0.00    -0.327 N 
HETATM   21  C13 UNL     1      22.192  -1.418  54.488  1.00  0.00     0.218 C 
HETATM   22  C14 UNL     1      20.833  -1.959  54.167  1.00  0.00     0.117 C 
HETATM   23  O1  UNL     1      22.586  -1.583  55.671  1.00  0.00    -0.274 OA
HETATM   24  H9  UNL     1      22.481  -0.693  52.509  1.00  0.00     0.169 HD
ENDBRANCH  18  20
ENDBRANCH   8  10
ENDBRANCH   6   8
TORSDOF 3
ENDMDL
MODEL 4
REMARK VINA RESULT:      -7.8      2.137      5.574
REMARK  3 active torsions:
REMARK  status: ('A' for Active; 'I' for Inactive)
REMARK    1  A    between atoms: C6_6  and  N1_7 
REMARK    2  A    between atoms: N1_7  and  C7_8 
REMARK    3  A    between atoms: C12_15  and  N4_16 
REMARK       I    between atoms: N4_16  and  C13_17 
ROOT
HETATM    1  C1  UNL     1      27.974   5.068  48.481  1.00  0.00     0.018 C 
HETATM    2  C2  UNL     1      26.816   4.997  48.876  1.00  0.00    -0.078 C 
HETATM    3  C3  UNL     1      25.468   4.922  49.362  1.00  0.00     0.015 A 
HETATM    4  C4  UNL     1      24.360   5.299  48.784  1.00  0.00    -0.000 A 
HETATM    5  C5  UNL     1      23.188   5.034  49.650  1.00  0.00     0.085 A 
HETATM    6  C6  UNL     1      23.788   4.420  50.876  1.00  0.00     0.015 A 
HETATM    7  C17 UNL     1      25.111   4.382  50.649  1.00  0.00     0.045 A 
ENDROOT
BRANCH   6   8
HETATM    8  N1  UNL     1      23.077   3.980  52.024  1.00  0.00    -0.343 N 
HETATM    9  H5  UNL     1      22.974   4.800  52.660  1.00  0.00     0.167 HD
BRANCH   8  10
HETATM   10  C7  UNL     1      22.655   2.643  52.133  1.00  0.00     0.141 A 
HETATM   11  N2  UNL     1      21.450   2.371  51.611  1.00  0.00    -0.224 NA
HETATM   12  C8  UNL     1      20.954   1.100  51.669  1.00  0.00     0.236 A 
HETATM   13  N3  UNL     1      21.691   0.137  52.254  1.00  0.00    -0.241 NA
HETATM   14  C9  UNL     1      22.901   0.402  52.780  1.00  0.00     0.072 A 
HETATM   15  C10 UNL     1      23.637  -0.598  53.373  1.00  0.00     0.035 A 
HETATM   16  C16 UNL     1      23.437   1.683  52.740  1.00  0.00     0.041 A 
HETATM   17  C11 UNL     1      24.895  -0.363  53.929  1.00  0.00     0.032 A 
HETATM   18  C12 UNL     1      25.354   0.934  53.847  1.00  0.00     0.035 A 
HETATM   19  C15 UNL     1      24.669   1.982  53.269  1.00  0.00     0.047 A 
BRANCH  18  20
HETATM   20  N4  UNL     1      26.639   1.256  54.396  1.00  0.00    -0.327 N 
HETATM   21  C13 UNL     1      27.873   0.806  53.815  1.00  0.00     0.218 C 
HETATM   22  C14 UNL     1      29.158   1.202  54.472  1.00  0.00     0.117 C 
HETATM   23  O1  UNL     1      27.977   0.096  52.783  1.00  0.00    -0.274 OA
HETATM   24  H9  UNL     1      26.700   1.842  55.257  1.00  0.00     0.169 HD
ENDBRANCH  18  20
ENDBRANCH   8  10
ENDBRANCH   6   8
TORSDOF 3
ENDMDL
MODEL 5
REMARK VINA RESULT:      -7.6      3.040      6.752
REMARK  3 active torsions:
REMARK  status: ('A' for Active; 'I' for Inactive)
REMARK    1  A    between atoms: C6_6  and  N1_7 
REMARK    2  A    between atoms: N1_7  and  C7_8 
REMARK    3  A    between atoms: C12_15  and  N4_16 
REMARK       I    between atoms: N4_16  and  C13_17 
ROOT
HETATM    1  C1  UNL     1      23.775   6.724  51.212  1.00  0.00     0.018 C 
HETATM    2  C2  UNL     1      23.142   5.677  51.287  1.00  0.00    -0.078 C 
HETATM    3  C3  UNL     1      22.417   4.442  51.393  1.00  0.00     0.015 A 
HETATM    4  C4  UNL     1      21.130   4.245  51.476  1.00  0.00    -0.000 A 
HETATM    5  C5  UNL     1      20.815   2.801  51.569  1.00  0.00     0.085 A 
HETATM    6  C6  UNL     1      22.159   2.144  51.527  1.00  0.00     0.015 A 
HETATM    7  C17 UNL     1      23.046   3.147  51.425  1.00  0.00     0.045 A 
ENDROOT
BRANCH   6   8
HETATM    8  N1  UNL     1      22.409   0.747  51.586  1.00  0.00    -0.343 N 
HETATM    9  H5  UNL     1      22.855   0.473  50.684  1.00  0.00     0.167 HD
BRANCH   8  10
HETATM   10  C7  UNL     1      22.057   0.007  52.728  1.00  0.00     0.141 A 
HETATM   11  N2  UNL     1      20.754  -0.287  52.850  1.00  0.00    -0.224 NA
HETATM   12  C8  UNL     1      20.316  -1.003  53.928  1.00  0.00     0.236 A 
HETATM   13  N3  UNL     1      21.208  -1.403  54.854  1.00  0.00    -0.241 NA
HETATM   14  C9  UNL     1      22.517  -1.112  54.739  1.00  0.00     0.072 A 
HETATM   15  C10 UNL     1      23.411  -1.530  55.697  1.00  0.00     0.035 A 
HETATM   16  C16 UNL     1      22.999  -0.385  53.656  1.00  0.00     0.041 A 
HETATM   17  C11 UNL     1      24.774  -1.249  55.613  1.00  0.00     0.032 A 
HETATM   18  C12 UNL     1      25.171  -0.525  54.508  1.00  0.00     0.035 A 
HETATM   19  C15 UNL     1      24.329  -0.074  53.513  1.00  0.00     0.047 A 
BRANCH  18  20
HETATM   20  N4  UNL     1      26.557  -0.195  54.350  1.00  0.00    -0.327 N 
HETATM   21  C13 UNL     1      27.459  -0.972  53.546  1.00  0.00     0.218 C 
HETATM   22  C14 UNL     1      28.888  -0.535  53.451  1.00  0.00     0.117 C 
HETATM   23  O1  UNL     1      27.153  -2.005  52.898  1.00  0.00    -0.274 OA
HETATM   24  H9  UNL     1      26.947   0.643  54.834  1.00  0.00     0.169 HD
ENDBRANCH  18  20
ENDBRANCH   8  10
ENDBRANCH   6   8
TORSDOF 3
ENDMDL
MODEL 6
REMARK VINA RESULT:      -7.6      2.447      6.143
REMARK  3 active torsions:
REMARK  status: ('A' for Active; 'I' for Inactive)
REMARK    1  A    between atoms: C6_6  and  N1_7 
REMARK    2  A    between atoms: N1_7  and  C7_8 
REMARK    3  A    between atoms: C12_15  and  N4_16 
REMARK       I    between atoms: N4_16  and  C13_17 
ROOT
HETATM    1  C1  UNL     1      27.177   7.764  47.622  1.00  0.00     0.018 C 
HETATM    2  C2  UNL     1      26.269   7.651  48.437  1.00  0.00    -0.078 C 
HETATM    3  C3  UNL     1      25.224   7.516  49.411  1.00  0.00     0.015 A 
HETATM    4  C4  UNL     1      24.134   8.220  49.555  1.00  0.00    -0.000 A 
HETATM    5  C5  UNL     1      23.330   7.732  50.699  1.00  0.00     0.085 A 
HETATM    6  C6  UNL     1      24.135   6.590  51.234  1.00  0.00     0.015 A 
HETATM    7  C17 UNL     1      25.220   6.515  50.446  1.00  0.00     0.045 A 
ENDROOT
BRANCH   6   8
HETATM    8  N1  UNL     1      23.794   5.774  52.346  1.00  0.00    -0.343 N 
HETATM    9  H5  UNL     1      24.143   6.256  53.203  1.00  0.00     0.167 HD
BRANCH   8  10
HETATM   10  C7  UNL     1      23.107   4.562  52.158  1.00  0.00     0.141 A 
HETATM   11  N2  UNL     1      21.909   4.661  51.563  1.00  0.00    -0.224 NA
HETATM   12  C8  UNL     1      21.166   3.537  51.338  1.00  0.00     0.236 A 
HETATM   13  N3  UNL     1      21.656   2.342  51.720  1.00  0.00    -0.241 NA
HETATM   14  C9  UNL     1      22.857   2.235  52.318  1.00  0.00     0.072 A 
HETATM   15  C10 UNL     1      23.338   1.004  52.700  1.00  0.00     0.035 A 
HETATM   16  C16 UNL     1      23.640   3.357  52.564  1.00  0.00     0.041 A 
HETATM   17  C11 UNL     1      24.577   0.852  53.321  1.00  0.00     0.032 A 
HETATM   18  C12 UNL     1      25.291   2.014  53.528  1.00  0.00     0.035 A 
HETATM   19  C15 UNL     1      24.869   3.277  53.171  1.00  0.00     0.047 A 
BRANCH  18  20
HETATM   20  N4  UNL     1      26.575   1.940  54.162  1.00  0.00    -0.327 N 
HETATM   21  C13 UNL     1      27.811   2.088  53.445  1.00  0.00     0.218 C 
HETATM   22  C14 UNL     1      29.095   1.994  54.208  1.00  0.00     0.117 C 
HETATM   23  O1  UNL     1      27.917   2.296  52.209  1.00  0.00    -0.274 OA
HETATM   24  H9  UNL     1      26.635   1.772  55.189  1.00  0.00     0.169 HD
ENDBRANCH  18  20
ENDBRANCH   8  10
ENDBRANCH   6   8
TORSDOF 3
ENDMDL
MODEL 7
REMARK VINA RESULT:      -7.5      2.798      3.211
REMARK  3 active torsions:
REMARK  status: ('A' for Active; 'I' for Inactive)
REMARK    1  A    between atoms: C6_6  and  N1_7 
REMARK    2  A    between atoms: N1_7  and  C7_8 
REMARK    3  A    between atoms: C12_15  and  N4_16 
REMARK       I    between atoms: N4_16  and  C13_17 
ROOT
HETATM    1  C1  UNL     1      26.795  -1.988  52.608  1.00  0.00     0.018 C 
HETATM    2  C2  UNL     1      26.535  -0.808  52.406  1.00  0.00    -0.078 C 
HETATM    3  C3  UNL     1      26.230   0.578  52.195  1.00  0.00     0.015 A 
HETATM    4  C4  UNL     1      26.753   1.418  51.343  1.00  0.00    -0.000 A 
HETATM    5  C5  UNL     1      26.137   2.759  51.467  1.00  0.00     0.085 A 
HETATM    6  C6  UNL     1      25.131   2.584  52.560  1.00  0.00     0.015 A 
HETATM    7  C17 UNL     1      25.233   1.301  52.941  1.00  0.00     0.045 A 
ENDROOT
BRANCH   6   8
HETATM    8  N1  UNL     1      24.263   3.589  53.067  1.00  0.00    -0.343 N 
HETATM    9  H5  UNL     1      24.667   3.922  53.970  1.00  0.00     0.167 HD
BRANCH   8  10
HETATM   10  C7  UNL     1      23.106   3.956  52.359  1.00  0.00     0.141 A 
HETATM   11  N2  UNL     1      22.107   3.060  52.379  1.00  0.00    -0.224 NA
HETATM   12  C8  UNL     1      20.941   3.327  51.718  1.00  0.00     0.236 A 
HETATM   13  N3  UNL     1      20.817   4.493  51.056  1.00  0.00    -0.241 NA
HETATM   14  C9  UNL     1      21.815   5.396  51.031  1.00  0.00     0.072 A 
HETATM   15  C10 UNL     1      21.666   6.580  50.348  1.00  0.00     0.035 A 
HETATM   16  C16 UNL     1      23.015   5.159  51.691  1.00  0.00     0.041 A 
HETATM   17  C11 UNL     1      22.676   7.541  50.300  1.00  0.00     0.032 A 
HETATM   18  C12 UNL     1      23.834   7.229  50.981  1.00  0.00     0.035 A 
HETATM   19  C15 UNL     1      24.049   6.062  51.683  1.00  0.00     0.047 A 
BRANCH  18  20
HETATM   20  N4  UNL     1      24.919   8.165  50.978  1.00  0.00    -0.327 N 
HETATM   21  C13 UNL     1      26.023   8.082  50.063  1.00  0.00     0.218 C 
HETATM   22  C14 UNL     1      27.102   9.116  50.149  1.00  0.00     0.117 C 
HETATM   23  O1  UNL     1      26.170   7.203  49.176  1.00  0.00    -0.274 OA
HETATM   24  H9  UNL     1      24.925   8.950  51.665  1.00  0.00     0.169 HD
ENDBRANCH  18  20
ENDBRANCH   8  10
ENDBRANCH   6   8
TORSDOF 3
ENDMDL
MODEL 8
REMARK VINA RESULT:      -7.5      2.628      6.292
REMARK  3 active torsions:
REMARK  status: ('A' for Active; 'I' for Inactive)
REMARK    1  A    between atoms: C6_6  and  N1_7 
REMARK    2  A    between atoms: N1_7  and  C7_8 
REMARK    3  A    between atoms: C12_15  and  N4_16 
REMARK       I    between atoms: N4_16  and  C13_17 
ROOT
HETATM    1  C1  UNL     1      24.095   7.793  46.995  1.00  0.00     0.018 C 
HETATM    2  C2  UNL     1      24.395   6.985  47.867  1.00  0.00    -0.078 C 
HETATM    3  C3  UNL     1      24.720   6.033  48.891  1.00  0.00     0.015 A 
HETATM    4  C4  UNL     1      25.658   5.125  48.906  1.00  0.00    -0.000 A 
HETATM    5  C5  UNL     1      25.637   4.356  50.171  1.00  0.00     0.085 A 
HETATM    6  C6  UNL     1      24.503   4.965  50.934  1.00  0.00     0.015 A 
HETATM    7  C17 UNL     1      24.013   5.930  50.141  1.00  0.00     0.045 A 
ENDROOT
BRANCH   6   8
HETATM    8  N1  UNL     1      24.064   4.578  52.229  1.00  0.00    -0.343 N 
HETATM    9  H5  UNL     1      24.509   5.225  52.915  1.00  0.00     0.167 HD
BRANCH   8  10
HETATM   10  C7  UNL     1      23.185   3.493  52.389  1.00  0.00     0.141 A 
HETATM   11  N2  UNL     1      21.879   3.784  52.282  1.00  0.00    -0.224 NA
HETATM   12  C8  UNL     1      20.948   2.794  52.423  1.00  0.00     0.236 A 
HETATM   13  N3  UNL     1      21.362   1.536  52.668  1.00  0.00    -0.241 NA
HETATM   14  C9  UNL     1      22.669   1.237  52.777  1.00  0.00     0.072 A 
HETATM   15  C10 UNL     1      23.070  -0.055  53.028  1.00  0.00     0.035 A 
HETATM   16  C16 UNL     1      23.645   2.217  52.640  1.00  0.00     0.041 A 
HETATM   17  C11 UNL     1      24.415  -0.405  53.147  1.00  0.00     0.032 A 
HETATM   18  C12 UNL     1      25.319   0.626  52.998  1.00  0.00     0.035 A 
HETATM   19  C15 UNL     1      24.986   1.940  52.746  1.00  0.00     0.047 A 
BRANCH  18  20
HETATM   20  N4  UNL     1      26.720   0.346  53.107  1.00  0.00    -0.327 N 
HETATM   21  C13 UNL     1      27.353  -0.006  54.347  1.00  0.00     0.218 C 
HETATM   22  C14 UNL     1      28.826  -0.279  54.345  1.00  0.00     0.117 C 
HETATM   23  O1  UNL     1      26.774  -0.110  55.458  1.00  0.00    -0.274 OA
HETATM   24  H9  UNL     1      27.324   0.395  52.258  1.00  0.00     0.169 HD
ENDBRANCH  18  20
ENDBRANCH   8  10
ENDBRANCH   6   8
TORSDOF 3
ENDMDL
MODEL 9
REMARK VINA RESULT:      -7.5      2.705      4.809
REMARK  3 active torsions:
REMARK  status: ('A' for Active; 'I' for Inactive)
REMARK    1  A    between atoms: C6_6  and  N1_7 
REMARK    2  A    between atoms: N1_7  and  C7_8 
REMARK    3  A    between atoms: C12_15  and  N4_16 
REMARK       I    between atoms: N4_16  and  C13_17 
ROOT
HETATM    1  C1  UNL     1      30.344  -1.230  53.902  1.00  0.00     0.018 C 
HETATM    2  C2  UNL     1      29.179  -0.975  53.620  1.00  0.00    -0.078 C 
HETATM    3  C3  UNL     1      27.823  -0.657  53.275  1.00  0.00     0.015 A 
HETATM    4  C4  UNL     1      26.854  -1.453  52.912  1.00  0.00    -0.000 A 
HETATM    5  C5  UNL     1      25.609  -0.695  52.649  1.00  0.00     0.085 A 
HETATM    6  C6  UNL     1      25.997   0.724  52.919  1.00  0.00     0.015 A 
HETATM    7  C17 UNL     1      27.290   0.682  53.277  1.00  0.00     0.045 A 
ENDROOT
BRANCH   6   8
HETATM    8  N1  UNL     1      25.148   1.858  52.810  1.00  0.00    -0.343 N 
HETATM    9  H5  UNL     1      24.841   2.111  53.775  1.00  0.00     0.167 HD
BRANCH   8  10
HETATM   10  C7  UNL     1      24.869   2.422  51.553  1.00  0.00     0.141 A 
HETATM   11  N2  UNL     1      25.806   3.250  51.068  1.00  0.00    -0.224 NA
HETATM   12  C8  UNL     1      25.625   3.846  49.853  1.00  0.00     0.236 A 
HETATM   13  N3  UNL     1      24.498   3.590  49.160  1.00  0.00    -0.241 NA
HETATM   14  C9  UNL     1      23.553   2.761  49.641  1.00  0.00     0.072 A 
HETATM   15  C10 UNL     1      22.410   2.513  48.916  1.00  0.00     0.035 A 
HETATM   16  C16 UNL     1      23.704   2.136  50.873  1.00  0.00     0.041 A 
HETATM   17  C11 UNL     1      21.408   1.660  49.380  1.00  0.00     0.032 A 
HETATM   18  C12 UNL     1      21.635   1.081  50.610  1.00  0.00     0.035 A 
HETATM   19  C15 UNL     1      22.755   1.286  51.387  1.00  0.00     0.047 A 
BRANCH  18  20
HETATM   20  N4  UNL     1      20.651   0.192  51.155  1.00  0.00    -0.327 N 
HETATM   21  C13 UNL     1      19.463   0.652  51.817  1.00  0.00     0.218 C 
HETATM   22  C14 UNL     1      18.502  -0.366  52.348  1.00  0.00     0.117 C 
HETATM   23  O1  UNL     1      19.146   1.855  51.995  1.00  0.00    -0.274 OA
HETATM   24  H9  UNL     1      20.788  -0.839  51.076  1.00  0.00     0.169 HD
ENDBRANCH  18  20
ENDBRANCH   8  10
ENDBRANCH   6   8
TORSDOF 3
ENDMDL
