MODEL 1
REMARK VINA RESULT:      -7.0      0.000      0.000
REMARK  4 active torsions:
REMARK  status: ('A' for Active; 'I' for Inactive)
REMARK    1  A    between atoms: C2_2  and  O1_3 
REMARK    2  A    between atoms: O1_3  and  C3_4 
REMARK       I    between atoms: N1_6  and  C5_7 
REMARK       I    between atoms: C5_7  and  N2_9 
REMARK    3  A    between atoms: N2_9  and  C6_10 
REMARK    4  A    between atoms: N3_17  and  C12_18 
ROOT
HETATM    1  C3  UNL     1      22.762   1.240  53.319  1.00  0.00     0.242 C 
HETATM    2  C4  UNL     1      21.743   1.155  52.195  1.00  0.00     0.181 C 
HETATM    3  N1  UNL     1      21.295   2.505  51.935  1.00  0.00    -0.328 N 
HETATM    4  C5  UNL     1      19.992   2.654  51.452  1.00  0.00     0.323 C 
HETATM    5  O2  UNL     1      19.467   1.550  51.342  1.00  0.00    -0.247 OA
HETATM    6  N2  UNL     1      19.403   3.878  51.151  1.00  0.00    -0.308 N 
HETATM    7  C10 UNL     1      22.079   3.700  52.132  1.00  0.00     0.147 C 
HETATM    8  C11 UNL     1      23.442   3.484  52.686  1.00  0.00     0.147 C 
HETATM    9  N3  UNL     1      23.812   2.116  52.861  1.00  0.00    -0.331 N 
HETATM   10  H9  UNL     1      20.018   4.683  51.315  1.00  0.00     0.170 HD
ENDROOT
BRANCH   1  11
HETATM   11  O1  UNL     1      23.330  -0.017  53.477  1.00  0.00    -0.365 OA
BRANCH  11  12
HETATM   12  C2  UNL     1      22.419  -1.023  53.259  1.00  0.00     0.166 C 
HETATM   13  C1  UNL     1      21.885  -1.623  54.539  1.00  0.00     0.033 C 
ENDBRANCH  11  12
ENDBRANCH   1  11
BRANCH   6  14
HETATM   14  C6  UNL     1      18.097   4.007  50.668  1.00  0.00     0.043 A 
HETATM   15  C7  UNL     1      17.023   4.026  51.473  1.00  0.00     0.037 A 
HETATM   16  C8  UNL     1      15.725   4.150  51.040  1.00  0.00     0.052 A 
HETATM   17  S1  UNL     1      15.918   4.268  49.193  1.00  0.00    -0.111 SA
HETATM   18  C9  UNL     1      17.764   4.134  49.219  1.00  0.00     0.079 A 
ENDBRANCH   6  14
BRANCH   9  19
HETATM   19  C12 UNL     1      25.127   1.686  52.594  1.00  0.00     0.251 A 
HETATM   20  C13 UNL     1      26.291   1.308  52.200  1.00  0.00     0.303 A 
HETATM   21  C14 UNL     1      26.776  -0.109  51.903  1.00  0.00     0.080 C 
HETATM   22  O3  UNL     1      27.435   2.162  51.970  1.00  0.00    -0.346 OA
HETATM   23  N4  UNL     1      25.946   1.401  53.823  1.00  0.00     0.021 N 
HETATM   24  C15 UNL     1      27.542  -0.328  53.259  1.00  0.00     0.041 C 
HETATM   25  C16 UNL     1      27.379   1.005  54.035  1.00  0.00     0.223 C 
HETATM   26  C17 UNL     1      28.217   2.028  53.232  1.00  0.00     0.205 C 
HETATM   27  H24 UNL     1      25.482   1.477  54.821  1.00  0.00     0.293 HD
ENDBRANCH   9  19
TORSDOF 4
ENDMDL
MODEL 2
REMARK VINA RESULT:      -6.9      2.785      3.391
REMARK  4 active torsions:
REMARK  status: ('A' for Active; 'I' for Inactive)
REMARK    1  A    between atoms: C2_2  and  O1_3 
REMARK    2  A    between atoms: O1_3  and  C3_4 
REMARK       I    between atoms: N1_6  and  C5_7 
REMARK       I    between atoms: C5_7  and  N2_9 
REMARK    3  A    between atoms: N2_9  and  C6_10 
REMARK    4  A    between atoms: N3_17  and  C12_18 
ROOT
HETATM    1  C3  UNL     1      22.845   1.196  52.577  1.00  0.00     0.242 C 
HETATM    2  C4  UNL     1      22.784   1.488  51.087  1.00  0.00     0.181 C 
HETATM    3  N1  UNL     1      23.003   2.909  50.932  1.00  0.00    -0.328 N 
HETATM    4  C5  UNL     1      22.399   3.522  49.830  1.00  0.00     0.323 C 
HETATM    5  O2  UNL     1      21.774   2.685  49.186  1.00  0.00    -0.247 OA
HETATM    6  N2  UNL     1      22.506   4.877  49.531  1.00  0.00    -0.308 N 
HETATM    7  C10 UNL     1      23.787   3.737  51.815  1.00  0.00     0.147 C 
HETATM    8  C11 UNL     1      24.371   3.040  52.991  1.00  0.00     0.147 C 
HETATM    9  N3  UNL     1      24.143   1.630  53.031  1.00  0.00    -0.331 N 
HETATM   10  H9  UNL     1      23.079   5.403  50.201  1.00  0.00     0.170 HD
ENDROOT
BRANCH   1  11
HETATM   11  O1  UNL     1      22.804  -0.182  52.745  1.00  0.00    -0.365 OA
BRANCH  11  12
HETATM   12  C2  UNL     1      21.768  -0.568  53.562  1.00  0.00     0.166 C 
HETATM   13  C1  UNL     1      22.237  -1.187  54.859  1.00  0.00     0.033 C 
ENDBRANCH  11  12
ENDBRANCH   1  11
BRANCH   6  14
HETATM   14  C6  UNL     1      21.895   5.472  48.424  1.00  0.00     0.043 A 
HETATM   15  C7  UNL     1      22.527   5.651  47.254  1.00  0.00     0.037 A 
HETATM   16  C8  UNL     1      21.965   6.232  46.143  1.00  0.00     0.052 A 
HETATM   17  S1  UNL     1      20.244   6.642  46.721  1.00  0.00    -0.111 SA
HETATM   18  C9  UNL     1      20.488   5.969  48.428  1.00  0.00     0.079 A 
ENDBRANCH   6  14
BRANCH   9  19
HETATM   19  C12 UNL     1      25.144   0.752  53.491  1.00  0.00     0.251 A 
HETATM   20  C13 UNL     1      25.969  -0.069  54.037  1.00  0.00     0.303 A 
HETATM   21  C14 UNL     1      27.138   0.242  54.968  1.00  0.00     0.080 C 
HETATM   22  O3  UNL     1      25.987  -1.505  53.865  1.00  0.00    -0.346 OA
HETATM   23  N4  UNL     1      26.308   0.593  52.551  1.00  0.00     0.021 N 
HETATM   24  C15 UNL     1      28.271   0.123  53.884  1.00  0.00     0.041 C 
HETATM   25  C16 UNL     1      27.539  -0.268  52.574  1.00  0.00     0.223 C 
HETATM   26  C17 UNL     1      27.034  -1.709  52.824  1.00  0.00     0.205 C 
HETATM   27  H24 UNL     1      26.349   1.189  51.624  1.00  0.00     0.293 HD
ENDBRANCH   9  19
TORSDOF 4
ENDMDL
MODEL 3
REMARK VINA RESULT:      -6.8      2.760      3.362
REMARK  4 active torsions:
REMARK  status: ('A' for Active; 'I' for Inactive)
REMARK    1  A    between atoms: C2_2  and  O1_3 
REMARK    2  A    between atoms: O1_3  and  C3_4 
REMARK       I    between atoms: N1_6  and  C5_7 
REMARK       I    between atoms: C5_7  and  N2_9 
REMARK    3  A    between atoms: N2_9  and  C6_10 
REMARK    4  A    between atoms: N3_17  and  C12_18 
ROOT
HETATM    1  C3  UNL     1      22.984   1.829  52.342  1.00  0.00     0.242 C 
HETATM    2  C4  UNL     1      22.838   1.477  50.871  1.00  0.00     0.181 C 
HETATM    3  N1  UNL     1      22.781   2.728  50.147  1.00  0.00    -0.328 N 
HETATM    4  C5  UNL     1      22.050   2.731  48.955  1.00  0.00     0.323 C 
HETATM    5  O2  UNL     1      21.582   1.615  48.757  1.00  0.00    -0.247 OA
HETATM    6  N2  UNL     1      21.892   3.846  48.137  1.00  0.00    -0.308 N 
HETATM    7  C10 UNL     1      23.412   3.959  50.551  1.00  0.00     0.147 C 
HETATM    8  C11 UNL     1      24.141   3.907  51.847  1.00  0.00     0.147 C 
HETATM    9  N3  UNL     1      24.185   2.618  52.461  1.00  0.00    -0.331 N 
HETATM   10  H9  UNL     1      22.369   4.685  48.487  1.00  0.00     0.170 HD
ENDROOT
BRANCH   1  11
HETATM   11  O1  UNL     1      23.207   0.652  53.043  1.00  0.00    -0.365 OA
BRANCH  11  12
HETATM   12  C2  UNL     1      22.044   0.136  53.564  1.00  0.00     0.166 C 
HETATM   13  C1  UNL     1      22.284  -0.873  54.663  1.00  0.00     0.033 C 
ENDBRANCH  11  12
ENDBRANCH   1  11
BRANCH   6  14
HETATM   14  C6  UNL     1      21.158   3.831  46.948  1.00  0.00     0.043 A 
HETATM   15  C7  UNL     1      21.734   3.849  45.736  1.00  0.00     0.037 A 
HETATM   16  C8  UNL     1      21.050   3.837  44.545  1.00  0.00     0.052 A 
HETATM   17  S1  UNL     1      19.272   3.791  45.093  1.00  0.00    -0.111 SA
HETATM   18  C9  UNL     1      19.666   3.794  46.902  1.00  0.00     0.079 A 
ENDBRANCH   6  14
BRANCH   9  19
HETATM   19  C12 UNL     1      25.343   2.181  53.133  1.00  0.00     0.251 A 
HETATM   20  C13 UNL     1      26.382   1.904  53.840  1.00  0.00     0.303 A 
HETATM   21  C14 UNL     1      27.823   2.357  53.623  1.00  0.00     0.080 C 
HETATM   22  O3  UNL     1      26.417   1.060  55.015  1.00  0.00    -0.346 OA
HETATM   23  N4  UNL     1      25.953   0.929  52.565  1.00  0.00     0.021 N 
HETATM   24  C15 UNL     1      28.337   1.022  52.970  1.00  0.00     0.041 C 
HETATM   25  C16 UNL     1      27.113   0.069  52.980  1.00  0.00     0.223 C 
HETATM   26  C17 UNL     1      26.880  -0.250  54.476  1.00  0.00     0.205 C 
HETATM   27  H24 UNL     1      25.523   0.472  51.657  1.00  0.00     0.293 HD
ENDBRANCH   9  19
TORSDOF 4
ENDMDL
MODEL 4
REMARK VINA RESULT:      -6.8      5.658      7.915
REMARK  4 active torsions:
REMARK  status: ('A' for Active; 'I' for Inactive)
REMARK    1  A    between atoms: C2_2  and  O1_3 
REMARK    2  A    between atoms: O1_3  and  C3_4 
REMARK       I    between atoms: N1_6  and  C5_7 
REMARK       I    between atoms: C5_7  and  N2_9 
REMARK    3  A    between atoms: N2_9  and  C6_10 
REMARK    4  A    between atoms: N3_17  and  C12_18 
ROOT
HETATM    1  C3  UNL     1      24.819   5.260  49.005  1.00  0.00     0.242 C 
HETATM    2  C4  UNL     1      24.571   4.857  50.449  1.00  0.00     0.181 C 
HETATM    3  N1  UNL     1      25.401   3.700  50.706  1.00  0.00    -0.328 N 
HETATM    4  C5  UNL     1      24.933   2.789  51.658  1.00  0.00     0.323 C 
HETATM    5  O2  UNL     1      23.858   3.178  52.104  1.00  0.00    -0.247 OA
HETATM    6  N2  UNL     1      25.604   1.626  52.025  1.00  0.00    -0.308 N 
HETATM    7  C10 UNL     1      26.661   3.414  50.065  1.00  0.00     0.147 C 
HETATM    8  C11 UNL     1      27.088   4.394  49.032  1.00  0.00     0.147 C 
HETATM    9  N3  UNL     1      26.231   5.528  48.886  1.00  0.00    -0.331 N 
HETATM   10  H9  UNL     1      26.492   1.488  51.529  1.00  0.00     0.170 HD
ENDROOT
BRANCH   1  11
HETATM   11  O1  UNL     1      24.164   6.464  48.780  1.00  0.00    -0.365 OA
BRANCH  11  12
HETATM   12  C2  UNL     1      23.258   6.749  49.775  1.00  0.00     0.166 C 
HETATM   13  C1  UNL     1      23.273   8.202  50.188  1.00  0.00     0.033 C 
ENDBRANCH  11  12
ENDBRANCH   1  11
BRANCH   6  14
HETATM   14  C6  UNL     1      25.121   0.727  52.980  1.00  0.00     0.043 A 
HETATM   15  C7  UNL     1      23.883   0.210  52.931  1.00  0.00     0.037 A 
HETATM   16  C8  UNL     1      23.369  -0.675  53.848  1.00  0.00     0.052 A 
HETATM   17  S1  UNL     1      24.782  -0.896  55.040  1.00  0.00    -0.111 SA
HETATM   18  C9  UNL     1      25.924   0.253  54.145  1.00  0.00     0.079 A 
ENDBRANCH   6  14
BRANCH   9  19
HETATM   19  C12 UNL     1      26.765   6.808  48.641  1.00  0.00     0.251 A 
HETATM   20  C13 UNL     1      27.265   7.933  48.268  1.00  0.00     0.303 A 
HETATM   21  C14 UNL     1      28.733   8.343  48.209  1.00  0.00     0.080 C 
HETATM   22  O3  UNL     1      26.523   9.097  47.835  1.00  0.00    -0.346 OA
HETATM   23  N4  UNL     1      26.868   7.681  49.862  1.00  0.00     0.021 N 
HETATM   24  C15 UNL     1      28.746   9.172  49.545  1.00  0.00     0.041 C 
HETATM   25  C16 UNL     1      27.290   9.106  50.076  1.00  0.00     0.223 C 
HETATM   26  C17 UNL     1      26.468   9.939  49.063  1.00  0.00     0.205 C 
HETATM   27  H24 UNL     1      26.593   7.274  50.850  1.00  0.00     0.293 HD
ENDBRANCH   9  19
TORSDOF 4
ENDMDL
MODEL 5
REMARK VINA RESULT:      -6.7      3.283      3.767
REMARK  4 active torsions:
REMARK  status: ('A' for Active; 'I' for Inactive)
REMARK    1  A    between atoms: C2_2  and  O1_3 
REMARK    2  A    between atoms: O1_3  and  C3_4 
REMARK       I    between atoms: N1_6  and  C5_7 
REMARK       I    between atoms: C5_7  and  N2_9 
REMARK    3  A    between atoms: N2_9  and  C6_10 
REMARK    4  A    between atoms: N3_17  and  C12_18 
ROOT
HETATM    1  C3  UNL     1      22.823   2.539  51.903  1.00  0.00     0.242 C 
HETATM    2  C4  UNL     1      22.861   3.487  50.715  1.00  0.00     0.181 C 
HETATM    3  N1  UNL     1      22.807   4.829  51.252  1.00  0.00    -0.328 N 
HETATM    4  C5  UNL     1      22.213   5.805  50.446  1.00  0.00     0.323 C 
HETATM    5  O2  UNL     1      21.838   5.296  49.394  1.00  0.00    -0.247 OA
HETATM    6  N2  UNL     1      22.078   7.142  50.806  1.00  0.00    -0.308 N 
HETATM    7  C10 UNL     1      23.315   5.238  52.538  1.00  0.00     0.147 C 
HETATM    8  C11 UNL     1      23.899   4.151  53.367  1.00  0.00     0.147 C 
HETATM    9  N3  UNL     1      23.953   2.872  52.734  1.00  0.00    -0.331 N 
HETATM   10  H9  UNL     1      22.462   7.360  51.734  1.00  0.00     0.170 HD
ENDROOT
BRANCH   1  11
HETATM   11  O1  UNL     1      23.039   1.252  51.430  1.00  0.00    -0.365 OA
BRANCH  11  12
HETATM   12  C2  UNL     1      21.863   0.553  51.289  1.00  0.00     0.166 C 
HETATM   13  C1  UNL     1      21.504  -0.252  52.516  1.00  0.00     0.033 C 
ENDBRANCH  11  12
ENDBRANCH   1  11
BRANCH   6  14
HETATM   14  C6  UNL     1      21.481   8.104  49.988  1.00  0.00     0.043 A 
HETATM   15  C7  UNL     1      22.189   8.960  49.234  1.00  0.00     0.037 A 
HETATM   16  C8  UNL     1      21.642   9.920  48.418  1.00  0.00     0.052 A 
HETATM   17  S1  UNL     1      19.813   9.677  48.668  1.00  0.00    -0.111 SA
HETATM   18  C9  UNL     1      20.003   8.281  49.868  1.00  0.00     0.079 A 
ENDBRANCH   6  14
BRANCH   9  19
HETATM   19  C12 UNL     1      25.056   2.017  52.931  1.00  0.00     0.251 A 
HETATM   20  C13 UNL     1      26.147   1.346  53.042  1.00  0.00     0.303 A 
HETATM   21  C14 UNL     1      26.740   0.335  52.066  1.00  0.00     0.080 C 
HETATM   22  O3  UNL     1      27.065   1.385  54.160  1.00  0.00    -0.346 OA
HETATM   23  N4  UNL     1      24.720   0.723  53.621  1.00  0.00     0.021 N 
HETATM   24  C15 UNL     1      26.273  -0.956  52.833  1.00  0.00     0.041 C 
HETATM   25  C16 UNL     1      25.549  -0.433  54.101  1.00  0.00     0.223 C 
HETATM   26  C17 UNL     1      26.674   0.191  54.961  1.00  0.00     0.205 C 
HETATM   27  H24 UNL     1      23.670   0.490  53.869  1.00  0.00     0.293 HD
ENDBRANCH   9  19
TORSDOF 4
ENDMDL
MODEL 6
REMARK VINA RESULT:      -6.4      1.945      3.371
REMARK  4 active torsions:
REMARK  status: ('A' for Active; 'I' for Inactive)
REMARK    1  A    between atoms: C2_2  and  O1_3 
REMARK    2  A    between atoms: O1_3  and  C3_4 
REMARK       I    between atoms: N1_6  and  C5_7 
REMARK       I    between atoms: C5_7  and  N2_9 
REMARK    3  A    between atoms: N2_9  and  C6_10 
REMARK    4  A    between atoms: N3_17  and  C12_18 
ROOT
HETATM    1  C3  UNL     1      24.724   2.165  50.796  1.00  0.00     0.242 C 
HETATM    2  C4  UNL     1      23.575   3.141  50.986  1.00  0.00     0.181 C 
HETATM    3  N1  UNL     1      22.396   2.348  51.258  1.00  0.00    -0.328 N 
HETATM    4  C5  UNL     1      21.169   2.887  50.856  1.00  0.00     0.323 C 
HETATM    5  O2  UNL     1      21.354   3.979  50.328  1.00  0.00    -0.247 OA
HETATM    6  N2  UNL     1      19.941   2.260  51.039  1.00  0.00    -0.308 N 
HETATM    7  C10 UNL     1      22.383   1.059  51.904  1.00  0.00     0.147 C 
HETATM    8  C11 UNL     1      23.719   0.518  52.271  1.00  0.00     0.147 C 
HETATM    9  N3  UNL     1      24.816   1.393  52.011  1.00  0.00    -0.331 N 
HETATM   10  H9  UNL     1      20.009   1.347  51.505  1.00  0.00     0.170 HD
ENDROOT
BRANCH   1  11
HETATM   11  O1  UNL     1      25.897   2.900  50.699  1.00  0.00    -0.365 OA
BRANCH  11  12
HETATM   12  C2  UNL     1      25.714   4.068  49.996  1.00  0.00     0.166 C 
HETATM   13  C1  UNL     1      26.891   4.418  49.115  1.00  0.00     0.033 C 
ENDBRANCH  11  12
ENDBRANCH   1  11
BRANCH   6  14
HETATM   14  C6  UNL     1      18.724   2.814  50.631  1.00  0.00     0.043 A 
HETATM   15  C7  UNL     1      18.197   2.596  49.416  1.00  0.00     0.037 A 
HETATM   16  C8  UNL     1      17.007   3.121  48.975  1.00  0.00     0.052 A 
HETATM   17  S1  UNL     1      16.431   4.117  50.439  1.00  0.00    -0.111 SA
HETATM   18  C9  UNL     1      17.892   3.700  51.496  1.00  0.00     0.079 A 
ENDBRANCH   6  14
BRANCH   9  19
HETATM   19  C12 UNL     1      25.903   1.471  52.904  1.00  0.00     0.251 A 
HETATM   20  C13 UNL     1      26.827   1.670  53.776  1.00  0.00     0.303 A 
HETATM   21  C14 UNL     1      28.112   2.479  53.626  1.00  0.00     0.080 C 
HETATM   22  O3  UNL     1      26.865   1.134  55.120  1.00  0.00    -0.346 OA
HETATM   23  N4  UNL     1      26.917   0.371  52.744  1.00  0.00     0.021 N 
HETATM   24  C15 UNL     1      29.072   1.256  53.393  1.00  0.00     0.041 C 
HETATM   25  C16 UNL     1      28.164   0.003  53.495  1.00  0.00     0.223 C 
HETATM   26  C17 UNL     1      27.749  -0.057  54.984  1.00  0.00     0.205 C 
HETATM   27  H24 UNL     1      26.798  -0.369  51.934  1.00  0.00     0.293 HD
ENDBRANCH   9  19
TORSDOF 4
ENDMDL
MODEL 7
REMARK VINA RESULT:      -6.4      3.561      8.545
REMARK  4 active torsions:
REMARK  status: ('A' for Active; 'I' for Inactive)
REMARK    1  A    between atoms: C2_2  and  O1_3 
REMARK    2  A    between atoms: O1_3  and  C3_4 
REMARK       I    between atoms: N1_6  and  C5_7 
REMARK       I    between atoms: C5_7  and  N2_9 
REMARK    3  A    between atoms: N2_9  and  C6_10 
REMARK    4  A    between atoms: N3_17  and  C12_18 
ROOT
HETATM    1  C3  UNL     1      22.727   2.922  51.839  1.00  0.00     0.242 C 
HETATM    2  C4  UNL     1      23.889   2.102  51.302  1.00  0.00     0.181 C 
HETATM    3  N1  UNL     1      24.179   1.091  52.296  1.00  0.00    -0.328 N 
HETATM    4  C5  UNL     1      25.503   0.649  52.375  1.00  0.00     0.323 C 
HETATM    5  O2  UNL     1      26.184   1.239  51.543  1.00  0.00    -0.247 OA
HETATM    6  N2  UNL     1      25.954  -0.316  53.271  1.00  0.00    -0.308 N 
HETATM    7  C10 UNL     1      23.220   0.508  53.201  1.00  0.00     0.147 C 
HETATM    8  C11 UNL     1      21.838   1.047  53.100  1.00  0.00     0.147 C 
HETATM    9  N3  UNL     1      21.639   2.002  52.058  1.00  0.00    -0.331 N 
HETATM   10  H9  UNL     1      25.217  -0.686  53.884  1.00  0.00     0.170 HD
ENDROOT
BRANCH   1  11
HETATM   11  O1  UNL     1      22.320   3.792  50.836  1.00  0.00    -0.365 OA
BRANCH  11  12
HETATM   12  C2  UNL     1      23.207   3.815  49.785  1.00  0.00     0.166 C 
HETATM   13  C1  UNL     1      22.535   4.047  48.452  1.00  0.00     0.033 C 
ENDBRANCH  11  12
ENDBRANCH   1  11
BRANCH   6  14
HETATM   14  C6  UNL     1      27.282  -0.746  53.336  1.00  0.00     0.043 A 
HETATM   15  C7  UNL     1      27.670  -1.970  52.945  1.00  0.00     0.037 A 
HETATM   16  C8  UNL     1      28.962  -2.433  52.993  1.00  0.00     0.052 A 
HETATM   17  S1  UNL     1      29.891  -0.981  53.695  1.00  0.00    -0.111 SA
HETATM   18  C9  UNL     1      28.399   0.103  53.845  1.00  0.00     0.079 A 
ENDBRANCH   6  14
BRANCH   9  19
HETATM   19  C12 UNL     1      20.442   2.017  51.313  1.00  0.00     0.251 A 
HETATM   20  C13 UNL     1      19.404   1.903  50.563  1.00  0.00     0.303 A 
HETATM   21  C14 UNL     1      19.161   2.514  49.186  1.00  0.00     0.080 C 
HETATM   22  O3  UNL     1      18.197   1.172  50.878  1.00  0.00    -0.346 OA
HETATM   23  N4  UNL     1      19.510   3.145  51.662  1.00  0.00     0.021 N 
HETATM   24  C15 UNL     1      18.254   3.704  49.671  1.00  0.00     0.041 C 
HETATM   25  C16 UNL     1      18.128   3.516  51.206  1.00  0.00     0.223 C 
HETATM   26  C17 UNL     1      17.277   2.235  51.373  1.00  0.00     0.205 C 
HETATM   27  H24 UNL     1      19.820   3.904  52.401  1.00  0.00     0.293 HD
ENDBRANCH   9  19
TORSDOF 4
ENDMDL
MODEL 8
REMARK VINA RESULT:      -6.3      3.836      4.477
REMARK  4 active torsions:
REMARK  status: ('A' for Active; 'I' for Inactive)
REMARK    1  A    between atoms: C2_2  and  O1_3 
REMARK    2  A    between atoms: O1_3  and  C3_4 
REMARK       I    between atoms: N1_6  and  C5_7 
REMARK       I    between atoms: C5_7  and  N2_9 
REMARK    3  A    between atoms: N2_9  and  C6_10 
REMARK    4  A    between atoms: N3_17  and  C12_18 
ROOT
HETATM    1  C3  UNL     1      20.402   0.686  53.819  1.00  0.00     0.242 C 
HETATM    2  C4  UNL     1      19.655  -0.576  53.421  1.00  0.00     0.181 C 
HETATM    3  N1  UNL     1      18.627  -0.173  52.485  1.00  0.00    -0.328 N 
HETATM    4  C5  UNL     1      17.464  -0.948  52.457  1.00  0.00     0.323 C 
HETATM    5  O2  UNL     1      17.557  -1.859  53.274  1.00  0.00    -0.247 OA
HETATM    6  N2  UNL     1      16.379  -0.702  51.620  1.00  0.00    -0.308 N 
HETATM    7  C10 UNL     1      18.706   0.953  51.588  1.00  0.00     0.147 C 
HETATM    8  C11 UNL     1      19.948   1.764  51.691  1.00  0.00     0.147 C 
HETATM    9  N3  UNL     1      20.924   1.260  52.603  1.00  0.00    -0.331 N 
HETATM   10  H9  UNL     1      16.506   0.113  51.010  1.00  0.00     0.170 HD
ENDROOT
BRANCH   1  11
HETATM   11  O1  UNL     1      21.497   0.310  54.586  1.00  0.00    -0.365 OA
BRANCH  11  12
HETATM   12  C2  UNL     1      21.579  -1.055  54.727  1.00  0.00     0.166 C 
HETATM   13  C1  UNL     1      22.884  -1.507  55.342  1.00  0.00     0.033 C 
ENDBRANCH  11  12
ENDBRANCH   1  11
BRANCH   6  14
HETATM   14  C6  UNL     1      15.224  -1.489  51.606  1.00  0.00     0.043 A 
HETATM   15  C7  UNL     1      15.036  -2.489  50.731  1.00  0.00     0.037 A 
HETATM   16  C8  UNL     1      13.916  -3.284  50.681  1.00  0.00     0.052 A 
HETATM   17  S1  UNL     1      12.869  -2.603  52.061  1.00  0.00    -0.111 SA
HETATM   18  C9  UNL     1      14.087  -1.299  52.554  1.00  0.00     0.079 A 
ENDBRANCH   6  14
BRANCH   9  19
HETATM   19  C12 UNL     1      22.298   1.336  52.303  1.00  0.00     0.251 A 
HETATM   20  C13 UNL     1      23.530   1.281  51.939  1.00  0.00     0.303 A 
HETATM   21  C14 UNL     1      24.682   0.533  52.605  1.00  0.00     0.080 C 
HETATM   22  O3  UNL     1      24.116   1.954  50.800  1.00  0.00    -0.346 OA
HETATM   23  N4  UNL     1      23.019   2.468  52.982  1.00  0.00     0.021 N 
HETATM   24  C15 UNL     1      25.310   1.777  53.333  1.00  0.00     0.041 C 
HETATM   25  C16 UNL     1      24.428   2.981  52.911  1.00  0.00     0.223 C 
HETATM   26  C17 UNL     1      24.725   3.172  51.405  1.00  0.00     0.205 C 
HETATM   27  H24 UNL     1      22.477   3.112  53.696  1.00  0.00     0.293 HD
ENDBRANCH   9  19
TORSDOF 4
ENDMDL
MODEL 9
REMARK VINA RESULT:      -6.3      3.623      4.165
REMARK  4 active torsions:
REMARK  status: ('A' for Active; 'I' for Inactive)
REMARK    1  A    between atoms: C2_2  and  O1_3 
REMARK    2  A    between atoms: O1_3  and  C3_4 
REMARK       I    between atoms: N1_6  and  C5_7 
REMARK       I    between atoms: C5_7  and  N2_9 
REMARK    3  A    between atoms: N2_9  and  C6_10 
REMARK    4  A    between atoms: N3_17  and  C12_18 
ROOT
HETATM    1  C3  UNL     1      23.242   2.772  50.859  1.00  0.00     0.242 C 
HETATM    2  C4  UNL     1      22.968   2.708  49.365  1.00  0.00     0.181 C 
HETATM    3  N1  UNL     1      23.135   4.051  48.854  1.00  0.00    -0.328 N 
HETATM    4  C5  UNL     1      22.371   4.397  47.735  1.00  0.00     0.323 C 
HETATM    5  O2  UNL     1      21.680   3.441  47.398  1.00  0.00    -0.247 OA
HETATM    6  N2  UNL     1      22.408   5.643  47.117  1.00  0.00    -0.308 N 
HETATM    7  C10 UNL     1      24.017   5.052  49.401  1.00  0.00     0.147 C 
HETATM    8  C11 UNL     1      24.772   4.642  50.614  1.00  0.00     0.147 C 
HETATM    9  N3  UNL     1      24.581   3.284  51.012  1.00  0.00    -0.331 N 
HETATM   10  H9  UNL     1      23.057   6.304  47.559  1.00  0.00     0.170 HD
ENDROOT
BRANCH   1  11
HETATM   11  O1  UNL     1      23.253   1.472  51.347  1.00  0.00    -0.365 OA
BRANCH  11  12
HETATM   12  C2  UNL     1      22.256   1.263  52.272  1.00  0.00     0.166 C 
HETATM   13  C1  UNL     1      21.812  -0.179  52.345  1.00  0.00     0.033 C 
ENDBRANCH  11  12
ENDBRANCH   1  11
BRANCH   6  14
HETATM   14  C6  UNL     1      21.637   5.971  45.998  1.00  0.00     0.043 A 
HETATM   15  C7  UNL     1      22.113   5.913  44.745  1.00  0.00     0.037 A 
HETATM   16  C8  UNL     1      21.391   6.227  43.619  1.00  0.00     0.052 A 
HETATM   17  S1  UNL     1      19.732   6.704  44.316  1.00  0.00    -0.111 SA
HETATM   18  C9  UNL     1      20.215   6.419  46.079  1.00  0.00     0.079 A 
ENDBRANCH   6  14
BRANCH   9  19
HETATM   19  C12 UNL     1      25.655   2.525  51.520  1.00  0.00     0.251 A 
HETATM   20  C13 UNL     1      26.679   1.815  51.835  1.00  0.00     0.303 A 
HETATM   21  C14 UNL     1      26.770   0.299  51.987  1.00  0.00     0.080 C 
HETATM   22  O3  UNL     1      28.001   2.312  52.148  1.00  0.00    -0.346 OA
HETATM   23  N4  UNL     1      25.663   2.388  53.018  1.00  0.00     0.021 N 
HETATM   24  C15 UNL     1      26.696   0.268  53.557  1.00  0.00     0.041 C 
HETATM   25  C16 UNL     1      26.619   1.756  53.988  1.00  0.00     0.223 C 
HETATM   26  C17 UNL     1      28.010   2.335  53.638  1.00  0.00     0.205 C 
HETATM   27  H24 UNL     1      24.835   2.813  53.611  1.00  0.00     0.293 HD
ENDBRANCH   9  19
TORSDOF 4
ENDMDL
