MODEL 1
REMARK VINA RESULT:      -8.2      0.000      0.000
REMARK  4 active torsions:
REMARK  status: ('A' for Active; 'I' for Inactive)
REMARK    1  A    between atoms: C2_2  and  C3_3 
REMARK       I    between atoms: C3_3  and  N1_5 
REMARK    2  A    between atoms: N1_5  and  C4_6 
REMARK    3  A    between atoms: C9_13  and  S1_14 
REMARK    4  A    between atoms: S1_14  and  C10_15 
ROOT
HETATM    1  C4  UNL     1      25.056  -0.707  54.302  1.00  0.00     0.035 A 
HETATM    2  C5  UNL     1      24.458  -1.308  55.388  1.00  0.00     0.032 A 
HETATM    3  C6  UNL     1      23.082  -1.304  55.496  1.00  0.00     0.035 A 
HETATM    4  C7  UNL     1      22.363  -0.686  54.494  1.00  0.00     0.071 A 
HETATM    5  N2  UNL     1      21.033  -0.703  54.635  1.00  0.00    -0.241 NA
HETATM    6  C8  UNL     1      20.254  -0.115  53.690  1.00  0.00     0.234 A 
HETATM    7  N3  UNL     1      20.790   0.485  52.612  1.00  0.00    -0.234 NA
HETATM    8  C9  UNL     1      22.107   0.531  52.421  1.00  0.00     0.112 A 
HETATM    9  C16 UNL     1      22.916  -0.069  53.386  1.00  0.00     0.031 A 
HETATM   10  C17 UNL     1      24.301  -0.110  53.338  1.00  0.00     0.046 A 
ENDROOT
BRANCH   8  11
HETATM   11  S1  UNL     1      23.030   1.259  51.093  1.00  0.00    -0.070 SA
BRANCH  11  12
HETATM   12  C10 UNL     1      23.323   2.985  51.294  1.00  0.00     0.008 A 
HETATM   13  C11 UNL     1      22.764   3.838  52.212  1.00  0.00     0.019 A 
HETATM   14  C12 UNL     1      23.123   5.184  52.219  1.00  0.00     0.003 A 
HETATM   15  C13 UNL     1      24.033   5.698  51.321  1.00  0.00     0.019 A 
HETATM   16  C14 UNL     1      24.593   4.845  50.401  1.00  0.00     0.012 A 
HETATM   17 BR1  UNL     1      25.842   5.598  49.184  1.00  0.00    -0.051 Br
HETATM   18  C15 UNL     1      24.237   3.504  50.392  1.00  0.00     0.038 A 
ENDBRANCH  11  12
ENDBRANCH   8  11
BRANCH   1  19
HETATM   19  N1  UNL     1      26.483  -0.728  54.218  1.00  0.00    -0.327 N 
HETATM   20  C3  UNL     1      27.304   0.415  54.418  1.00  0.00     0.221 C 
HETATM   21  O1  UNL     1      26.978   1.598  54.689  1.00  0.00    -0.273 OA
HETATM   22  H6  UNL     1      26.912  -1.643  53.997  1.00  0.00     0.169 HD
BRANCH  20  23
HETATM   23  C2  UNL     1      28.763   0.239  54.297  1.00  0.00     0.098 C 
HETATM   24  C1  UNL     1      29.051  -1.005  53.509  1.00  0.00     0.014 C 
ENDBRANCH  20  23
ENDBRANCH   1  19
TORSDOF 4
ENDMDL
MODEL 2
REMARK VINA RESULT:      -8.0      2.792      3.763
REMARK  4 active torsions:
REMARK  status: ('A' for Active; 'I' for Inactive)
REMARK    1  A    between atoms: C2_2  and  C3_3 
REMARK       I    between atoms: C3_3  and  N1_5 
REMARK    2  A    between atoms: N1_5  and  C4_6 
REMARK    3  A    between atoms: C9_13  and  S1_14 
REMARK    4  A    between atoms: S1_14  and  C10_15 
ROOT
HETATM    1  C4  UNL     1      26.304   0.247  52.674  1.00  0.00     0.035 A 
HETATM    2  C5  UNL     1      25.211  -0.057  53.457  1.00  0.00     0.032 A 
HETATM    3  C6  UNL     1      24.037   0.648  53.289  1.00  0.00     0.035 A 
HETATM    4  C7  UNL     1      24.016   1.640  52.330  1.00  0.00     0.071 A 
HETATM    5  N2  UNL     1      22.861   2.301  52.199  1.00  0.00    -0.241 NA
HETATM    6  C8  UNL     1      22.760   3.292  51.276  1.00  0.00     0.234 A 
HETATM    7  N3  UNL     1      23.798   3.627  50.488  1.00  0.00    -0.234 NA
HETATM    8  C9  UNL     1      24.971   3.003  50.577  1.00  0.00     0.112 A 
HETATM    9  C16 UNL     1      25.085   1.983  51.522  1.00  0.00     0.031 A 
HETATM   10  C17 UNL     1      26.232   1.236  51.740  1.00  0.00     0.046 A 
ENDROOT
BRANCH   8  11
HETATM   11  S1  UNL     1      26.463   3.269  49.655  1.00  0.00    -0.070 SA
BRANCH  11  12
HETATM   12  C10 UNL     1      26.602   4.893  48.983  1.00  0.00     0.008 A 
HETATM   13  C11 UNL     1      25.610   5.824  48.807  1.00  0.00     0.019 A 
HETATM   14  C12 UNL     1      25.914   7.066  48.254  1.00  0.00     0.003 A 
HETATM   15  C13 UNL     1      27.195   7.398  47.871  1.00  0.00     0.019 A 
HETATM   16  C14 UNL     1      28.188   6.465  48.046  1.00  0.00     0.012 A 
HETATM   17 BR1  UNL     1      29.939   6.966  47.504  1.00  0.00    -0.051 Br
HETATM   18  C15 UNL     1      27.889   5.227  48.597  1.00  0.00     0.038 A 
ENDBRANCH  11  12
ENDBRANCH   8  11
BRANCH   1  19
HETATM   19  N1  UNL     1      27.506  -0.501  52.871  1.00  0.00    -0.327 N 
HETATM   20  C3  UNL     1      28.598  -0.050  53.661  1.00  0.00     0.221 C 
HETATM   21  O1  UNL     1      28.731   1.020  54.308  1.00  0.00    -0.273 OA
HETATM   22  H6  UNL     1      27.553  -1.418  52.396  1.00  0.00     0.169 HD
BRANCH  20  23
HETATM   23  C2  UNL     1      29.773  -0.933  53.771  1.00  0.00     0.098 C 
HETATM   24  C1  UNL     1      29.417  -2.301  53.271  1.00  0.00     0.014 C 
ENDBRANCH  20  23
ENDBRANCH   1  19
TORSDOF 4
ENDMDL
MODEL 3
REMARK VINA RESULT:      -7.7      1.670      2.057
REMARK  4 active torsions:
REMARK  status: ('A' for Active; 'I' for Inactive)
REMARK    1  A    between atoms: C2_2  and  C3_3 
REMARK       I    between atoms: C3_3  and  N1_5 
REMARK    2  A    between atoms: N1_5  and  C4_6 
REMARK    3  A    between atoms: C9_13  and  S1_14 
REMARK    4  A    between atoms: S1_14  and  C10_15 
ROOT
HETATM    1  C4  UNL     1      24.805  -0.611  54.432  1.00  0.00     0.035 A 
HETATM    2  C5  UNL     1      23.961  -1.286  55.287  1.00  0.00     0.032 A 
HETATM    3  C6  UNL     1      22.595  -1.167  55.128  1.00  0.00     0.035 A 
HETATM    4  C7  UNL     1      22.137  -0.364  54.104  1.00  0.00     0.071 A 
HETATM    5  N2  UNL     1      20.807  -0.274  53.983  1.00  0.00    -0.241 NA
HETATM    6  C8  UNL     1      20.277   0.498  52.999  1.00  0.00     0.234 A 
HETATM    7  N3  UNL     1      21.059   1.176  52.141  1.00  0.00    -0.234 NA
HETATM    8  C9  UNL     1      22.387   1.124  52.215  1.00  0.00     0.112 A 
HETATM    9  C16 UNL     1      22.943   0.334  53.222  1.00  0.00     0.031 A 
HETATM   10  C17 UNL     1      24.302   0.171  53.436  1.00  0.00     0.046 A 
ENDROOT
BRANCH   8  11
HETATM   11  S1  UNL     1      23.607   1.924  51.206  1.00  0.00    -0.070 SA
BRANCH  11  12
HETATM   12  C10 UNL     1      22.971   2.548  49.685  1.00  0.00     0.008 A 
HETATM   13  C11 UNL     1      22.197   1.896  48.759  1.00  0.00     0.019 A 
HETATM   14  C12 UNL     1      21.786   2.559  47.605  1.00  0.00     0.003 A 
HETATM   15  C13 UNL     1      22.135   3.869  47.357  1.00  0.00     0.019 A 
HETATM   16  C14 UNL     1      22.910   4.523  48.283  1.00  0.00     0.012 A 
HETATM   17 BR1  UNL     1      23.366   6.327  47.898  1.00  0.00    -0.051 Br
HETATM   18  C15 UNL     1      23.321   3.864  49.434  1.00  0.00     0.038 A 
ENDBRANCH  11  12
ENDBRANCH   8  11
BRANCH   1  19
HETATM   19  N1  UNL     1      26.215  -0.754  54.622  1.00  0.00    -0.327 N 
HETATM   20  C3  UNL     1      27.126   0.337  54.634  1.00  0.00     0.221 C 
HETATM   21  O1  UNL     1      26.906   1.567  54.492  1.00  0.00    -0.273 OA
HETATM   22  H6  UNL     1      26.560  -1.719  54.754  1.00  0.00     0.169 HD
BRANCH  20  23
HETATM   23  C2  UNL     1      28.554   0.034  54.840  1.00  0.00     0.098 C 
HETATM   24  C1  UNL     1      29.344   0.543  53.671  1.00  0.00     0.014 C 
ENDBRANCH  20  23
ENDBRANCH   1  19
TORSDOF 4
ENDMDL
MODEL 4
REMARK VINA RESULT:      -7.7      1.694      2.464
REMARK  4 active torsions:
REMARK  status: ('A' for Active; 'I' for Inactive)
REMARK    1  A    between atoms: C2_2  and  C3_3 
REMARK       I    between atoms: C3_3  and  N1_5 
REMARK    2  A    between atoms: N1_5  and  C4_6 
REMARK    3  A    between atoms: C9_13  and  S1_14 
REMARK    4  A    between atoms: S1_14  and  C10_15 
ROOT
HETATM    1  C4  UNL     1      24.861   0.363  53.769  1.00  0.00     0.035 A 
HETATM    2  C5  UNL     1      24.108  -0.789  53.705  1.00  0.00     0.032 A 
HETATM    3  C6  UNL     1      22.879  -0.764  53.079  1.00  0.00     0.035 A 
HETATM    4  C7  UNL     1      22.458   0.435  52.540  1.00  0.00     0.071 A 
HETATM    5  N2  UNL     1      21.261   0.418  51.943  1.00  0.00    -0.241 NA
HETATM    6  C8  UNL     1      20.776   1.560  51.388  1.00  0.00     0.234 A 
HETATM    7  N3  UNL     1      21.473   2.710  51.425  1.00  0.00    -0.234 NA
HETATM    8  C9  UNL     1      22.669   2.783  52.007  1.00  0.00     0.112 A 
HETATM    9  C16 UNL     1      23.176   1.617  52.580  1.00  0.00     0.031 A 
HETATM   10  C17 UNL     1      24.401   1.522  53.222  1.00  0.00     0.046 A 
ENDROOT
BRANCH   8  11
HETATM   11  S1  UNL     1      23.757   4.173  52.177  1.00  0.00    -0.070 SA
BRANCH  11  12
HETATM   12  C10 UNL     1      24.959   4.295  50.893  1.00  0.00     0.008 A 
HETATM   13  C11 UNL     1      25.829   3.330  50.453  1.00  0.00     0.019 A 
HETATM   14  C12 UNL     1      26.715   3.614  49.417  1.00  0.00     0.003 A 
HETATM   15  C13 UNL     1      26.750   4.850  48.808  1.00  0.00     0.019 A 
HETATM   16  C14 UNL     1      25.880   5.817  49.249  1.00  0.00     0.012 A 
HETATM   17 BR1  UNL     1      25.964   7.505  48.381  1.00  0.00    -0.051 Br
HETATM   18  C15 UNL     1      24.996   5.537  50.281  1.00  0.00     0.038 A 
ENDBRANCH  11  12
ENDBRANCH   8  11
BRANCH   1  19
HETATM   19  N1  UNL     1      26.131   0.305  54.424  1.00  0.00    -0.327 N 
HETATM   20  C3  UNL     1      27.366   0.136  53.741  1.00  0.00     0.221 C 
HETATM   21  O1  UNL     1      27.591   0.010  52.511  1.00  0.00    -0.273 OA
HETATM   22  H6  UNL     1      26.115   0.394  55.454  1.00  0.00     0.169 HD
BRANCH  20  23
HETATM   23  C2  UNL     1      28.596   0.094  54.553  1.00  0.00     0.098 C 
HETATM   24  C1  UNL     1      29.600  -0.800  53.888  1.00  0.00     0.014 C 
ENDBRANCH  20  23
ENDBRANCH   1  19
TORSDOF 4
ENDMDL
MODEL 5
REMARK VINA RESULT:      -7.6      2.778      5.410
REMARK  4 active torsions:
REMARK  status: ('A' for Active; 'I' for Inactive)
REMARK    1  A    between atoms: C2_2  and  C3_3 
REMARK       I    between atoms: C3_3  and  N1_5 
REMARK    2  A    between atoms: N1_5  and  C4_6 
REMARK    3  A    between atoms: C9_13  and  S1_14 
REMARK    4  A    between atoms: S1_14  and  C10_15 
ROOT
HETATM    1  C4  UNL     1      23.027   0.396  52.744  1.00  0.00     0.035 A 
HETATM    2  C5  UNL     1      23.617  -0.508  53.600  1.00  0.00     0.032 A 
HETATM    3  C6  UNL     1      24.979  -0.453  53.814  1.00  0.00     0.035 A 
HETATM    4  C7  UNL     1      25.694   0.521  53.147  1.00  0.00     0.071 A 
HETATM    5  N2  UNL     1      27.011   0.541  53.380  1.00  0.00    -0.241 NA
HETATM    6  C8  UNL     1      27.784   1.471  52.761  1.00  0.00     0.234 A 
HETATM    7  N3  UNL     1      27.255   2.374  51.916  1.00  0.00    -0.234 NA
HETATM    8  C9  UNL     1      25.951   2.400  51.648  1.00  0.00     0.112 A 
HETATM    9  C16 UNL     1      25.148   1.449  52.278  1.00  0.00     0.031 A 
HETATM   10  C17 UNL     1      23.777   1.339  52.109  1.00  0.00     0.046 A 
ENDROOT
BRANCH   8  11
HETATM   11  S1  UNL     1      25.040   3.485  50.581  1.00  0.00    -0.070 SA
BRANCH  11  12
HETATM   12  C10 UNL     1      26.044   4.671  49.749  1.00  0.00     0.008 A 
HETATM   13  C11 UNL     1      27.155   4.447  48.976  1.00  0.00     0.019 A 
HETATM   14  C12 UNL     1      27.825   5.521  48.395  1.00  0.00     0.003 A 
HETATM   15  C13 UNL     1      27.403   6.821  48.571  1.00  0.00     0.019 A 
HETATM   16  C14 UNL     1      26.292   7.046  49.345  1.00  0.00     0.012 A 
HETATM   17 BR1  UNL     1      25.749   8.854  49.560  1.00  0.00    -0.051 Br
HETATM   18  C15 UNL     1      25.623   5.978  49.926  1.00  0.00     0.038 A 
ENDBRANCH  11  12
ENDBRANCH   8  11
BRANCH   1  19
HETATM   19  N1  UNL     1      21.614   0.314  52.543  1.00  0.00    -0.327 N 
HETATM   20  C3  UNL     1      20.991   0.377  51.267  1.00  0.00     0.221 C 
HETATM   21  O1  UNL     1      21.508   0.509  50.128  1.00  0.00    -0.273 OA
HETATM   22  H6  UNL     1      21.040   0.203  53.396  1.00  0.00     0.169 HD
BRANCH  20  23
HETATM   23  C2  UNL     1      19.521   0.280  51.217  1.00  0.00     0.098 C 
HETATM   24  C1  UNL     1      19.013  -0.254  52.524  1.00  0.00     0.014 C 
ENDBRANCH  20  23
ENDBRANCH   1  19
TORSDOF 4
ENDMDL
MODEL 6
REMARK VINA RESULT:      -7.5      1.989      2.632
REMARK  4 active torsions:
REMARK  status: ('A' for Active; 'I' for Inactive)
REMARK    1  A    between atoms: C2_2  and  C3_3 
REMARK       I    between atoms: C3_3  and  N1_5 
REMARK    2  A    between atoms: N1_5  and  C4_6 
REMARK    3  A    between atoms: C9_13  and  S1_14 
REMARK    4  A    between atoms: S1_14  and  C10_15 
ROOT
HETATM    1  C4  UNL     1      25.883   0.304  52.752  1.00  0.00     0.035 A 
HETATM    2  C5  UNL     1      24.995  -0.531  53.394  1.00  0.00     0.032 A 
HETATM    3  C6  UNL     1      23.654  -0.210  53.417  1.00  0.00     0.035 A 
HETATM    4  C7  UNL     1      23.263   0.953  52.785  1.00  0.00     0.071 A 
HETATM    5  N2  UNL     1      21.955   1.230  52.830  1.00  0.00    -0.241 NA
HETATM    6  C8  UNL     1      21.491   2.358  52.230  1.00  0.00     0.234 A 
HETATM    7  N3  UNL     1      22.317   3.205  51.592  1.00  0.00    -0.234 NA
HETATM    8  C9  UNL     1      23.627   2.978  51.516  1.00  0.00     0.112 A 
HETATM    9  C16 UNL     1      24.115   1.824  52.129  1.00  0.00     0.031 A 
HETATM   10  C17 UNL     1      25.447   1.442  52.142  1.00  0.00     0.046 A 
ENDROOT
BRANCH   8  11
HETATM   11  S1  UNL     1      24.896   3.943  50.738  1.00  0.00    -0.070 SA
BRANCH  11  12
HETATM   12  C10 UNL     1      24.406   5.595  50.367  1.00  0.00     0.008 A 
HETATM   13  C11 UNL     1      24.181   6.628  51.241  1.00  0.00     0.019 A 
HETATM   14  C12 UNL     1      23.795   7.876  50.757  1.00  0.00     0.003 A 
HETATM   15  C13 UNL     1      23.629   8.113  49.410  1.00  0.00     0.019 A 
HETATM   16  C14 UNL     1      23.853   7.079  48.534  1.00  0.00     0.012 A 
HETATM   17 BR1  UNL     1      23.612   7.453  46.687  1.00  0.00    -0.051 Br
HETATM   18  C15 UNL     1      24.237   5.835  49.014  1.00  0.00     0.038 A 
ENDBRANCH  11  12
ENDBRANCH   8  11
BRANCH   1  19
HETATM   19  N1  UNL     1      27.267  -0.056  52.745  1.00  0.00    -0.327 N 
HETATM   20  C3  UNL     1      28.163   0.226  53.812  1.00  0.00     0.221 C 
HETATM   21  O1  UNL     1      27.949   0.808  54.906  1.00  0.00    -0.273 OA
HETATM   22  H6  UNL     1      27.604  -0.549  51.901  1.00  0.00     0.169 HD
BRANCH  20  23
HETATM   23  C2  UNL     1      29.564  -0.207  53.661  1.00  0.00     0.098 C 
HETATM   24  C1  UNL     1      29.603  -1.683  53.397  1.00  0.00     0.014 C 
ENDBRANCH  20  23
ENDBRANCH   1  19
TORSDOF 4
ENDMDL
MODEL 7
REMARK VINA RESULT:      -7.4      2.809      4.322
REMARK  4 active torsions:
REMARK  status: ('A' for Active; 'I' for Inactive)
REMARK    1  A    between atoms: C2_2  and  C3_3 
REMARK       I    between atoms: C3_3  and  N1_5 
REMARK    2  A    between atoms: N1_5  and  C4_6 
REMARK    3  A    between atoms: C9_13  and  S1_14 
REMARK    4  A    between atoms: S1_14  and  C10_15 
ROOT
HETATM    1  C4  UNL     1      26.205   2.174  51.841  1.00  0.00     0.035 A 
HETATM    2  C5  UNL     1      26.975   1.182  52.409  1.00  0.00     0.032 A 
HETATM    3  C6  UNL     1      26.368   0.194  53.157  1.00  0.00     0.035 A 
HETATM    4  C7  UNL     1      24.997   0.252  53.302  1.00  0.00     0.071 A 
HETATM    5  N2  UNL     1      24.446  -0.722  54.035  1.00  0.00    -0.241 NA
HETATM    6  C8  UNL     1      23.101  -0.735  54.225  1.00  0.00     0.234 A 
HETATM    7  N3  UNL     1      22.307   0.210  53.692  1.00  0.00    -0.234 NA
HETATM    8  C9  UNL     1      22.802   1.203  52.955  1.00  0.00     0.112 A 
HETATM    9  C16 UNL     1      24.182   1.227  52.754  1.00  0.00     0.031 A 
HETATM   10  C17 UNL     1      24.854   2.186  52.014  1.00  0.00     0.046 A 
ENDROOT
BRANCH   8  11
HETATM   11  S1  UNL     1      21.959   2.547  52.161  1.00  0.00    -0.070 SA
BRANCH  11  12
HETATM   12  C10 UNL     1      21.961   2.446  50.401  1.00  0.00     0.008 A 
HETATM   13  C11 UNL     1      21.796   1.332  49.616  1.00  0.00     0.019 A 
HETATM   14  C12 UNL     1      21.828   1.449  48.229  1.00  0.00     0.003 A 
HETATM   15  C13 UNL     1      22.023   2.663  47.606  1.00  0.00     0.019 A 
HETATM   16  C14 UNL     1      22.188   3.778  48.391  1.00  0.00     0.012 A 
HETATM   17 BR1  UNL     1      22.453   5.429  47.489  1.00  0.00    -0.051 Br
HETATM   18  C15 UNL     1      22.157   3.664  49.774  1.00  0.00     0.038 A 
ENDBRANCH  11  12
ENDBRANCH   8  11
BRANCH   1  19
HETATM   19  N1  UNL     1      26.863   3.183  51.071  1.00  0.00    -0.327 N 
HETATM   20  C3  UNL     1      26.443   3.589  49.775  1.00  0.00     0.221 C 
HETATM   21  O1  UNL     1      25.477   3.181  49.081  1.00  0.00    -0.273 OA
HETATM   22  H6  UNL     1      27.690   3.622  51.510  1.00  0.00     0.169 HD
BRANCH  20  23
HETATM   23  C2  UNL     1      27.223   4.643  49.102  1.00  0.00     0.098 C 
HETATM   24  C1  UNL     1      26.333   5.816  48.816  1.00  0.00     0.014 C 
ENDBRANCH  20  23
ENDBRANCH   1  19
TORSDOF 4
ENDMDL
MODEL 8
REMARK VINA RESULT:      -7.4      3.183      5.586
REMARK  4 active torsions:
REMARK  status: ('A' for Active; 'I' for Inactive)
REMARK    1  A    between atoms: C2_2  and  C3_3 
REMARK       I    between atoms: C3_3  and  N1_5 
REMARK    2  A    between atoms: N1_5  and  C4_6 
REMARK    3  A    between atoms: C9_13  and  S1_14 
REMARK    4  A    between atoms: S1_14  and  C10_15 
ROOT
HETATM    1  C4  UNL     1      26.377   2.288  51.924  1.00  0.00     0.035 A 
HETATM    2  C5  UNL     1      27.468   1.679  52.506  1.00  0.00     0.032 A 
HETATM    3  C6  UNL     1      27.275   0.637  53.389  1.00  0.00     0.035 A 
HETATM    4  C7  UNL     1      25.976   0.251  53.651  1.00  0.00     0.071 A 
HETATM    5  N2  UNL     1      25.830  -0.762  54.513  1.00  0.00    -0.241 NA
HETATM    6  C8  UNL     1      24.582  -1.200  54.823  1.00  0.00     0.234 A 
HETATM    7  N3  UNL     1      23.486  -0.639  54.283  1.00  0.00    -0.234 NA
HETATM    8  C9  UNL     1      23.573   0.372  53.420  1.00  0.00     0.112 A 
HETATM    9  C16 UNL     1      24.849   0.831  53.095  1.00  0.00     0.031 A 
HETATM   10  C17 UNL     1      25.114   1.869  52.216  1.00  0.00     0.046 A 
ENDROOT
BRANCH   8  11
HETATM   11  S1  UNL     1      22.281   1.261  52.589  1.00  0.00    -0.070 SA
BRANCH  11  12
HETATM   12  C10 UNL     1      20.722   0.439  52.619  1.00  0.00     0.008 A 
HETATM   13  C11 UNL     1      20.233  -0.416  53.573  1.00  0.00     0.019 A 
HETATM   14  C12 UNL     1      18.965  -0.974  53.423  1.00  0.00     0.003 A 
HETATM   15  C13 UNL     1      18.172  -0.692  52.332  1.00  0.00     0.019 A 
HETATM   16  C14 UNL     1      18.661   0.164  51.375  1.00  0.00     0.012 A 
HETATM   17 BR1  UNL     1      17.533   0.523  49.890  1.00  0.00    -0.051 Br
HETATM   18  C15 UNL     1      19.924   0.721  51.523  1.00  0.00     0.038 A 
ENDBRANCH  11  12
ENDBRANCH   8  11
BRANCH   1  19
HETATM   19  N1  UNL     1      26.609   3.364  51.013  1.00  0.00    -0.327 N 
HETATM   20  C3  UNL     1      25.758   3.670  49.916  1.00  0.00     0.221 C 
HETATM   21  O1  UNL     1      24.701   3.104  49.540  1.00  0.00    -0.273 OA
HETATM   22  H6  UNL     1      27.454   3.934  51.189  1.00  0.00     0.169 HD
BRANCH  20  23
HETATM   23  C2  UNL     1      26.129   4.812  49.061  1.00  0.00     0.098 C 
HETATM   24  C1  UNL     1      27.587   4.726  48.719  1.00  0.00     0.014 C 
ENDBRANCH  20  23
ENDBRANCH   1  19
TORSDOF 4
ENDMDL
MODEL 9
REMARK VINA RESULT:      -7.4      1.749      2.458
REMARK  4 active torsions:
REMARK  status: ('A' for Active; 'I' for Inactive)
REMARK    1  A    between atoms: C2_2  and  C3_3 
REMARK       I    between atoms: C3_3  and  N1_5 
REMARK    2  A    between atoms: N1_5  and  C4_6 
REMARK    3  A    between atoms: C9_13  and  S1_14 
REMARK    4  A    between atoms: S1_14  and  C10_15 
ROOT
HETATM    1  C4  UNL     1      25.002   0.810  53.177  1.00  0.00     0.035 A 
HETATM    2  C5  UNL     1      24.240  -0.338  53.213  1.00  0.00     0.032 A 
HETATM    3  C6  UNL     1      22.883  -0.261  52.976  1.00  0.00     0.035 A 
HETATM    4  C7  UNL     1      22.348   0.983  52.712  1.00  0.00     0.071 A 
HETATM    5  N2  UNL     1      21.030   1.016  52.488  1.00  0.00    -0.241 NA
HETATM    6  C8  UNL     1      20.427   2.204  52.220  1.00  0.00     0.234 A 
HETATM    7  N3  UNL     1      21.127   3.351  52.174  1.00  0.00    -0.234 NA
HETATM    8  C9  UNL     1      22.441   3.377  52.389  1.00  0.00     0.112 A 
HETATM    9  C16 UNL     1      23.070   2.163  52.665  1.00  0.00     0.031 A 
HETATM   10  C17 UNL     1      24.426   2.015  52.911  1.00  0.00     0.046 A 
ENDROOT
BRANCH   8  11
HETATM   11  S1  UNL     1      23.559   4.754  52.381  1.00  0.00    -0.070 SA
BRANCH  11  12
HETATM   12  C10 UNL     1      23.928   5.360  50.767  1.00  0.00     0.008 A 
HETATM   13  C11 UNL     1      23.083   5.974  49.879  1.00  0.00     0.019 A 
HETATM   14  C12 UNL     1      23.560   6.388  48.637  1.00  0.00     0.003 A 
HETATM   15  C13 UNL     1      24.872   6.199  48.264  1.00  0.00     0.019 A 
HETATM   16  C14 UNL     1      25.720   5.583  49.152  1.00  0.00     0.012 A 
HETATM   17 BR1  UNL     1      27.520   5.344  48.593  1.00  0.00    -0.051 Br
HETATM   18  C15 UNL     1      25.247   5.170  50.390  1.00  0.00     0.038 A 
ENDBRANCH  11  12
ENDBRANCH   8  11
BRANCH   1  19
HETATM   19  N1  UNL     1      26.405   0.698  53.426  1.00  0.00    -0.327 N 
HETATM   20  C3  UNL     1      26.957   0.147  54.614  1.00  0.00     0.221 C 
HETATM   21  O1  UNL     1      26.374  -0.325  55.624  1.00  0.00    -0.273 OA
HETATM   22  H6  UNL     1      27.029   1.049  52.679  1.00  0.00     0.169 HD
BRANCH  20  23
HETATM   23  C2  UNL     1      28.425   0.099  54.729  1.00  0.00     0.098 C 
HETATM   24  C1  UNL     1      29.000  -0.552  53.506  1.00  0.00     0.014 C 
ENDBRANCH  20  23
ENDBRANCH   1  19
TORSDOF 4
ENDMDL
