MODEL 1
REMARK VINA RESULT:      -8.9      0.000      0.000
REMARK  5 active torsions:
REMARK  status: ('A' for Active; 'I' for Inactive)
REMARK    1  A    between atoms: N1_6  and  C6_7 
REMARK    2  A    between atoms: C7_9  and  C8_10 
REMARK       I    between atoms: C8_10  and  N2_12 
REMARK    3  A    between atoms: N2_12  and  C9_13 
REMARK    4  A    between atoms: C14_20  and  N5_21 
REMARK    5  A    between atoms: N5_21  and  C15_22 
ROOT
HETATM    1  C9  UNL     1      27.836   5.488  48.497  1.00  0.00     0.035 A 
HETATM    2  C10 UNL     1      27.463   6.849  48.502  1.00  0.00     0.032 A 
HETATM    3  C11 UNL     1      26.327   7.273  49.191  1.00  0.00     0.035 A 
HETATM    4  C12 UNL     1      25.585   6.296  49.865  1.00  0.00     0.072 A 
HETATM    5  N3  UNL     1      24.473   6.665  50.558  1.00  0.00    -0.241 NA
HETATM    6  C13 UNL     1      23.764   5.699  51.222  1.00  0.00     0.236 A 
HETATM    7  N4  UNL     1      24.145   4.426  51.197  1.00  0.00    -0.224 NA
HETATM    8  C14 UNL     1      25.236   3.964  50.534  1.00  0.00     0.142 A 
HETATM    9  C21 UNL     1      25.944   4.970  49.862  1.00  0.00     0.041 A 
HETATM   10  C22 UNL     1      27.069   4.577  49.177  1.00  0.00     0.047 A 
ENDROOT
BRANCH   1  11
HETATM   11  N2  UNL     1      29.016   5.438  47.718  1.00  0.00    -0.325 N 
HETATM   12  C8  UNL     1      30.277   5.504  48.354  1.00  0.00     0.255 C 
HETATM   13  O2  UNL     1      30.745   5.617  49.546  1.00  0.00    -0.270 OA
HETATM   14  H13 UNL     1      29.301   5.368  46.722  1.00  0.00     0.169 HD
BRANCH  12  15
HETATM   15  C7  UNL     1      31.743   5.477  48.051  1.00  0.00     0.275 A 
HETATM   16  C6  UNL     1      32.291   4.484  47.125  1.00  0.00     0.398 A 
HETATM   17  O1  UNL     1      32.356   4.240  48.473  1.00  0.00    -0.335 OA
BRANCH  16  18
HETATM   18  N1  UNL     1      33.483   4.786  46.393  1.00  0.00     0.124 N 
HETATM   19  C2  UNL     1      33.325   4.659  44.954  1.00  0.00     0.222 C 
HETATM   20  C1  UNL     1      32.760   5.892  44.306  1.00  0.00     0.043 C 
HETATM   21  C3  UNL     1      34.781   4.493  44.497  1.00  0.00     0.037 C 
HETATM   22  C4  UNL     1      35.230   3.418  45.494  1.00  0.00     0.032 C 
HETATM   23  C5  UNL     1      34.544   3.891  46.758  1.00  0.00     0.276 C 
ENDBRANCH  16  18
ENDBRANCH  12  15
ENDBRANCH   1  11
BRANCH   8  24
HETATM   24  N5  UNL     1      25.703   2.611  50.494  1.00  0.00    -0.340 N 
HETATM   25  H17 UNL     1      25.942   2.279  49.529  1.00  0.00     0.167 HD
BRANCH  24  26
HETATM   26  C15 UNL     1      25.830   1.751  51.641  1.00  0.00     0.035 A 
HETATM   27  C16 UNL     1      24.760   1.080  52.184  1.00  0.00     0.029 A 
HETATM   28  C17 UNL     1      24.980   0.323  53.310  1.00  0.00     0.004 A 
HETATM   29  C18 UNL     1      26.181   0.170  53.952  1.00  0.00     0.019 A 
HETATM   30  C19 UNL     1      27.231   0.865  53.368  1.00  0.00     0.013 A 
HETATM   31 BR1  UNL     1      28.954   0.740  54.192  1.00  0.00    -0.051 Br
HETATM   32  C20 UNL     1      27.105   1.661  52.223  1.00  0.00     0.048 A 
ENDBRANCH  24  26
ENDBRANCH   8  24
TORSDOF 5
ENDMDL
MODEL 2
REMARK VINA RESULT:      -8.9      3.005      8.978
REMARK  5 active torsions:
REMARK  status: ('A' for Active; 'I' for Inactive)
REMARK    1  A    between atoms: N1_6  and  C6_7 
REMARK    2  A    between atoms: C7_9  and  C8_10 
REMARK       I    between atoms: C8_10  and  N2_12 
REMARK    3  A    between atoms: N2_12  and  C9_13 
REMARK    4  A    between atoms: C14_20  and  N5_21 
REMARK    5  A    between atoms: N5_21  and  C15_22 
ROOT
HETATM    1  C9  UNL     1      26.618   4.567  49.146  1.00  0.00     0.035 A 
HETATM    2  C10 UNL     1      25.685   5.625  49.164  1.00  0.00     0.032 A 
HETATM    3  C11 UNL     1      26.047   6.902  48.736  1.00  0.00     0.035 A 
HETATM    4  C12 UNL     1      27.364   7.080  48.297  1.00  0.00     0.072 A 
HETATM    5  N3  UNL     1      27.760   8.307  47.861  1.00  0.00    -0.241 NA
HETATM    6  C13 UNL     1      29.049   8.462  47.423  1.00  0.00     0.236 A 
HETATM    7  N4  UNL     1      29.902   7.443  47.418  1.00  0.00    -0.224 NA
HETATM    8  C14 UNL     1      29.600   6.187  47.833  1.00  0.00     0.142 A 
HETATM    9  C21 UNL     1      28.277   6.053  48.278  1.00  0.00     0.041 A 
HETATM   10  C22 UNL     1      27.894   4.803  48.703  1.00  0.00     0.047 A 
ENDROOT
BRANCH   1  11
HETATM   11  N2  UNL     1      25.907   3.447  49.635  1.00  0.00    -0.325 N 
HETATM   12  C8  UNL     1      26.411   2.728  50.744  1.00  0.00     0.255 C 
HETATM   13  O2  UNL     1      27.427   2.767  51.530  1.00  0.00    -0.270 OA
HETATM   14  H13 UNL     1      25.043   2.908  49.428  1.00  0.00     0.169 HD
BRANCH  12  15
HETATM   15  C7  UNL     1      26.088   1.563  51.628  1.00  0.00     0.275 A 
HETATM   16  C6  UNL     1      24.827   1.521  52.369  1.00  0.00     0.398 A 
HETATM   17  O1  UNL     1      25.957   1.958  53.010  1.00  0.00    -0.335 OA
BRANCH  16  18
HETATM   18  N1  UNL     1      24.252   0.256  52.711  1.00  0.00     0.124 N 
HETATM   19  C2  UNL     1      22.851   0.340  53.088  1.00  0.00     0.222 C 
HETATM   20  C1  UNL     1      21.915   0.311  51.912  1.00  0.00     0.043 C 
HETATM   21  C3  UNL     1      22.669  -0.958  53.888  1.00  0.00     0.037 C 
HETATM   22  C4  UNL     1      23.898  -0.858  54.800  1.00  0.00     0.032 C 
HETATM   23  C5  UNL     1      24.933  -0.324  53.832  1.00  0.00     0.276 C 
ENDBRANCH  16  18
ENDBRANCH  12  15
ENDBRANCH   1  11
BRANCH   8  24
HETATM   24  N5  UNL     1      30.471   5.050  47.827  1.00  0.00    -0.340 N 
HETATM   25  H17 UNL     1      29.964   4.135  47.761  1.00  0.00     0.167 HD
BRANCH  24  26
HETATM   26  C15 UNL     1      31.905   5.114  47.921  1.00  0.00     0.035 A 
HETATM   27  C16 UNL     1      32.551   5.843  48.890  1.00  0.00     0.029 A 
HETATM   28  C17 UNL     1      33.925   5.878  48.861  1.00  0.00     0.004 A 
HETATM   29  C18 UNL     1      34.724   5.244  47.945  1.00  0.00     0.019 A 
HETATM   30  C19 UNL     1      34.028   4.520  46.987  1.00  0.00     0.013 A 
HETATM   31 BR1  UNL     1      35.042   3.608  45.645  1.00  0.00    -0.051 Br
HETATM   32  C20 UNL     1      32.632   4.426  46.935  1.00  0.00     0.048 A 
ENDBRANCH  24  26
ENDBRANCH   8  24
TORSDOF 5
ENDMDL
MODEL 3
REMARK VINA RESULT:      -8.6      3.652      8.449
REMARK  5 active torsions:
REMARK  status: ('A' for Active; 'I' for Inactive)
REMARK    1  A    between atoms: N1_6  and  C6_7 
REMARK    2  A    between atoms: C7_9  and  C8_10 
REMARK       I    between atoms: C8_10  and  N2_12 
REMARK    3  A    between atoms: N2_12  and  C9_13 
REMARK    4  A    between atoms: C14_20  and  N5_21 
REMARK    5  A    between atoms: N5_21  and  C15_22 
ROOT
HETATM    1  C9  UNL     1      25.348   7.051  50.149  1.00  0.00     0.035 A 
HETATM    2  C10 UNL     1      24.115   7.435  49.581  1.00  0.00     0.032 A 
HETATM    3  C11 UNL     1      23.979   8.666  48.940  1.00  0.00     0.035 A 
HETATM    4  C12 UNL     1      25.110   9.490  48.891  1.00  0.00     0.072 A 
HETATM    5  N3  UNL     1      25.027  10.697  48.267  1.00  0.00    -0.241 NA
HETATM    6  C13 UNL     1      26.146  11.487  48.217  1.00  0.00     0.236 A 
HETATM    7  N4  UNL     1      27.291  11.093  48.762  1.00  0.00    -0.224 NA
HETATM    8  C14 UNL     1      27.470   9.911  49.404  1.00  0.00     0.142 A 
HETATM    9  C21 UNL     1      26.313   9.120  49.443  1.00  0.00     0.041 A 
HETATM   10  C22 UNL     1      26.421   7.901  50.069  1.00  0.00     0.047 A 
ENDROOT
BRANCH   1  11
HETATM   11  N2  UNL     1      25.112   5.767  50.695  1.00  0.00    -0.325 N 
HETATM   12  C8  UNL     1      25.729   4.635  50.114  1.00  0.00     0.255 C 
HETATM   13  O2  UNL     1      26.517   4.371  49.132  1.00  0.00    -0.270 OA
HETATM   14  H13 UNL     1      24.572   5.323  51.463  1.00  0.00     0.169 HD
BRANCH  12  15
HETATM   15  C7  UNL     1      25.843   3.152  50.277  1.00  0.00     0.275 A 
HETATM   16  C6  UNL     1      25.903   2.554  51.612  1.00  0.00     0.398 A 
HETATM   17  O1  UNL     1      27.073   2.777  50.933  1.00  0.00    -0.335 OA
BRANCH  16  18
HETATM   18  N1  UNL     1      25.429   1.218  51.808  1.00  0.00     0.124 N 
HETATM   19  C2  UNL     1      24.550   1.079  52.956  1.00  0.00     0.222 C 
HETATM   20  C1  UNL     1      23.116   1.412  52.651  1.00  0.00     0.043 C 
HETATM   21  C3  UNL     1      24.649  -0.426  53.240  1.00  0.00     0.037 C 
HETATM   22  C4  UNL     1      26.174  -0.583  53.197  1.00  0.00     0.032 C 
HETATM   23  C5  UNL     1      26.525   0.320  52.034  1.00  0.00     0.276 C 
ENDBRANCH  16  18
ENDBRANCH  12  15
ENDBRANCH   1  11
BRANCH   8  24
HETATM   24  N5  UNL     1      28.685   9.428  49.987  1.00  0.00    -0.340 N 
HETATM   25  H17 UNL     1      28.650   9.357  51.031  1.00  0.00     0.167 HD
BRANCH  24  26
HETATM   26  C15 UNL     1      29.869   9.081  49.247  1.00  0.00     0.035 A 
HETATM   27  C16 UNL     1      30.802  10.015  48.863  1.00  0.00     0.029 A 
HETATM   28  C17 UNL     1      31.873   9.586  48.116  1.00  0.00     0.004 A 
HETATM   29  C18 UNL     1      32.105   8.297  47.712  1.00  0.00     0.019 A 
HETATM   30  C19 UNL     1      31.139   7.390  48.124  1.00  0.00     0.013 A 
HETATM   31 BR1  UNL     1      31.351   5.561  47.602  1.00  0.00    -0.051 Br
HETATM   32  C20 UNL     1      30.015   7.731  48.885  1.00  0.00     0.048 A 
ENDBRANCH  24  26
ENDBRANCH   8  24
TORSDOF 5
ENDMDL
MODEL 4
REMARK VINA RESULT:      -8.5      5.698     11.729
REMARK  5 active torsions:
REMARK  status: ('A' for Active; 'I' for Inactive)
REMARK    1  A    between atoms: N1_6  and  C6_7 
REMARK    2  A    between atoms: C7_9  and  C8_10 
REMARK       I    between atoms: C8_10  and  N2_12 
REMARK    3  A    between atoms: N2_12  and  C9_13 
REMARK    4  A    between atoms: C14_20  and  N5_21 
REMARK    5  A    between atoms: N5_21  and  C15_22 
ROOT
HETATM    1  C9  UNL     1      23.477   0.060  53.255  1.00  0.00     0.035 A 
HETATM    2  C10 UNL     1      24.119  -0.597  54.326  1.00  0.00     0.032 A 
HETATM    3  C11 UNL     1      25.472  -0.380  54.586  1.00  0.00     0.035 A 
HETATM    4  C12 UNL     1      26.151   0.507  53.743  1.00  0.00     0.072 A 
HETATM    5  N3  UNL     1      27.471   0.758  53.964  1.00  0.00    -0.241 NA
HETATM    6  C13 UNL     1      28.118   1.638  53.137  1.00  0.00     0.236 A 
HETATM    7  N4  UNL     1      27.482   2.241  52.139  1.00  0.00    -0.224 NA
HETATM    8  C14 UNL     1      26.171   2.054  51.841  1.00  0.00     0.142 A 
HETATM    9  C21 UNL     1      25.530   1.149  52.698  1.00  0.00     0.041 A 
HETATM   10  C22 UNL     1      24.195   0.919  52.464  1.00  0.00     0.047 A 
ENDROOT
BRANCH   1  11
HETATM   11  N2  UNL     1      22.138  -0.393  53.302  1.00  0.00    -0.325 N 
HETATM   12  C8  UNL     1      21.080   0.529  53.124  1.00  0.00     0.255 C 
HETATM   13  O2  UNL     1      20.932   1.790  52.919  1.00  0.00    -0.270 OA
HETATM   14  H13 UNL     1      21.607  -1.274  53.446  1.00  0.00     0.169 HD
BRANCH  12  15
HETATM   15  C7  UNL     1      19.586   0.599  53.061  1.00  0.00     0.275 A 
HETATM   16  C6  UNL     1      18.832  -0.361  52.252  1.00  0.00     0.398 A 
HETATM   17  O1  UNL     1      19.118   0.872  51.723  1.00  0.00    -0.335 OA
BRANCH  16  18
HETATM   18  N1  UNL     1      17.489  -0.691  52.620  1.00  0.00     0.124 N 
HETATM   19  C2  UNL     1      17.196  -2.111  52.527  1.00  0.00     0.222 C 
HETATM   20  C1  UNL     1      17.593  -2.881  53.755  1.00  0.00     0.043 C 
HETATM   21  C3  UNL     1      15.664  -2.104  52.430  1.00  0.00     0.037 C 
HETATM   22  C4  UNL     1      15.492  -1.034  51.346  1.00  0.00     0.032 C 
HETATM   23  C5  UNL     1      16.551  -0.032  51.757  1.00  0.00     0.276 C 
ENDBRANCH  16  18
ENDBRANCH  12  15
ENDBRANCH   1  11
BRANCH   8  24
HETATM   24  N5  UNL     1      25.431   2.694  50.795  1.00  0.00    -0.340 N 
HETATM   25  H17 UNL     1      24.559   2.180  50.524  1.00  0.00     0.167 HD
BRANCH  24  26
HETATM   26  C15 UNL     1      25.823   3.912  50.138  1.00  0.00     0.035 A 
HETATM   27  C16 UNL     1      26.877   3.972  49.257  1.00  0.00     0.029 A 
HETATM   28  C17 UNL     1      27.201   5.197  48.723  1.00  0.00     0.004 A 
HETATM   29  C18 UNL     1      26.563   6.381  48.987  1.00  0.00     0.019 A 
HETATM   30  C19 UNL     1      25.507   6.272  49.880  1.00  0.00     0.013 A 
HETATM   31 BR1  UNL     1      24.555   7.868  50.338  1.00  0.00    -0.051 Br
HETATM   32  C20 UNL     1      25.104   5.070  50.476  1.00  0.00     0.048 A 
ENDBRANCH  24  26
ENDBRANCH   8  24
TORSDOF 5
ENDMDL
MODEL 5
REMARK VINA RESULT:      -8.5      3.597      9.427
REMARK  5 active torsions:
REMARK  status: ('A' for Active; 'I' for Inactive)
REMARK    1  A    between atoms: N1_6  and  C6_7 
REMARK    2  A    between atoms: C7_9  and  C8_10 
REMARK       I    between atoms: C8_10  and  N2_12 
REMARK    3  A    between atoms: N2_12  and  C9_13 
REMARK    4  A    between atoms: C14_20  and  N5_21 
REMARK    5  A    between atoms: N5_21  and  C15_22 
ROOT
HETATM    1  C9  UNL     1      25.174   4.662  49.506  1.00  0.00     0.035 A 
HETATM    2  C10 UNL     1      24.077   5.351  48.946  1.00  0.00     0.032 A 
HETATM    3  C11 UNL     1      24.275   6.485  48.159  1.00  0.00     0.035 A 
HETATM    4  C12 UNL     1      25.596   6.900  47.956  1.00  0.00     0.072 A 
HETATM    5  N3  UNL     1      25.838   7.996  47.185  1.00  0.00    -0.241 NA
HETATM    6  C13 UNL     1      27.137   8.383  46.986  1.00  0.00     0.236 A 
HETATM    7  N4  UNL     1      28.147   7.710  47.527  1.00  0.00    -0.224 NA
HETATM    8  C14 UNL     1      28.004   6.609  48.308  1.00  0.00     0.142 A 
HETATM    9  C21 UNL     1      26.667   6.233  48.499  1.00  0.00     0.041 A 
HETATM   10  C22 UNL     1      26.446   5.117  49.270  1.00  0.00     0.047 A 
ENDROOT
BRANCH   1  11
HETATM   11  N2  UNL     1      24.600   3.586  50.222  1.00  0.00    -0.325 N 
HETATM   12  C8  UNL     1      23.955   3.833  51.457  1.00  0.00     0.255 C 
HETATM   13  O2  UNL     1      23.705   4.833  52.225  1.00  0.00    -0.270 OA
HETATM   14  H13 UNL     1      24.483   2.557  50.142  1.00  0.00     0.169 HD
BRANCH  12  15
HETATM   15  C7  UNL     1      23.211   3.130  52.550  1.00  0.00     0.275 A 
HETATM   16  C6  UNL     1      22.593   1.825  52.306  1.00  0.00     0.398 A 
HETATM   17  O1  UNL     1      21.816   2.952  52.222  1.00  0.00    -0.335 OA
BRANCH  16  18
HETATM   18  N1  UNL     1      22.419   0.914  53.396  1.00  0.00     0.124 N 
HETATM   19  C2  UNL     1      23.056  -0.374  53.180  1.00  0.00     0.222 C 
HETATM   20  C1  UNL     1      24.510  -0.389  53.559  1.00  0.00     0.043 C 
HETATM   21  C3  UNL     1      22.287  -1.267  54.164  1.00  0.00     0.037 C 
HETATM   22  C4  UNL     1      20.855  -0.852  53.804  1.00  0.00     0.032 C 
HETATM   23  C5  UNL     1      21.027   0.640  53.610  1.00  0.00     0.276 C 
ENDBRANCH  16  18
ENDBRANCH  12  15
ENDBRANCH   1  11
BRANCH   8  24
HETATM   24  N5  UNL     1      29.056   5.834  48.895  1.00  0.00    -0.340 N 
HETATM   25  H17 UNL     1      28.722   5.165  49.630  1.00  0.00     0.167 HD
BRANCH  24  26
HETATM   26  C15 UNL     1      30.448   5.945  48.552  1.00  0.00     0.035 A 
HETATM   27  C16 UNL     1      31.272   6.898  49.103  1.00  0.00     0.029 A 
HETATM   28  C17 UNL     1      32.575   6.951  48.669  1.00  0.00     0.004 A 
HETATM   29  C18 UNL     1      33.141   6.131  47.727  1.00  0.00     0.019 A 
HETATM   30  C19 UNL     1      32.272   5.186  47.200  1.00  0.00     0.013 A 
HETATM   31 BR1  UNL     1      32.950   3.999  45.861  1.00  0.00    -0.051 Br
HETATM   32  C20 UNL     1      30.931   5.056  47.578  1.00  0.00     0.048 A 
ENDBRANCH  24  26
ENDBRANCH   8  24
TORSDOF 5
ENDMDL
MODEL 6
REMARK VINA RESULT:      -8.3      1.895      2.477
REMARK  5 active torsions:
REMARK  status: ('A' for Active; 'I' for Inactive)
REMARK    1  A    between atoms: N1_6  and  C6_7 
REMARK    2  A    between atoms: C7_9  and  C8_10 
REMARK       I    between atoms: C8_10  and  N2_12 
REMARK    3  A    between atoms: N2_12  and  C9_13 
REMARK    4  A    between atoms: C14_20  and  N5_21 
REMARK    5  A    between atoms: N5_21  and  C15_22 
ROOT
HETATM    1  C9  UNL     1      26.412   5.444  49.056  1.00  0.00     0.035 A 
HETATM    2  C10 UNL     1      25.893   6.373  48.128  1.00  0.00     0.032 A 
HETATM    3  C11 UNL     1      24.616   6.907  48.294  1.00  0.00     0.035 A 
HETATM    4  C12 UNL     1      23.884   6.481  49.409  1.00  0.00     0.072 A 
HETATM    5  N3  UNL     1      22.636   6.983  49.616  1.00  0.00    -0.241 NA
HETATM    6  C13 UNL     1      21.937   6.565  50.718  1.00  0.00     0.236 A 
HETATM    7  N4  UNL     1      22.456   5.690  51.572  1.00  0.00    -0.224 NA
HETATM    8  C14 UNL     1      23.689   5.135  51.448  1.00  0.00     0.142 A 
HETATM    9  C21 UNL     1      24.384   5.576  50.314  1.00  0.00     0.041 A 
HETATM   10  C22 UNL     1      25.647   5.065  50.129  1.00  0.00     0.047 A 
ENDROOT
BRANCH   1  11
HETATM   11  N2  UNL     1      27.705   5.134  48.574  1.00  0.00    -0.325 N 
HETATM   12  C8  UNL     1      28.647   6.171  48.380  1.00  0.00     0.255 C 
HETATM   13  O2  UNL     1      28.705   7.450  48.507  1.00  0.00    -0.270 OA
HETATM   14  H13 UNL     1      28.259   4.308  48.275  1.00  0.00     0.169 HD
BRANCH  12  15
HETATM   15  C7  UNL     1      30.060   6.402  47.944  1.00  0.00     0.275 A 
HETATM   16  C6  UNL     1      31.156   5.642  48.547  1.00  0.00     0.398 A 
HETATM   17  O1  UNL     1      30.881   6.898  49.024  1.00  0.00    -0.335 OA
BRANCH  16  18
HETATM   18  N1  UNL     1      32.349   5.407  47.793  1.00  0.00     0.124 N 
HETATM   19  C2  UNL     1      32.730   4.006  47.735  1.00  0.00     0.222 C 
HETATM   20  C1  UNL     1      32.034   3.245  46.642  1.00  0.00     0.043 C 
HETATM   21  C3  UNL     1      34.221   4.106  47.385  1.00  0.00     0.037 C 
HETATM   22  C4  UNL     1      34.646   5.155  48.419  1.00  0.00     0.032 C 
HETATM   23  C5  UNL     1      33.463   6.099  48.376  1.00  0.00     0.276 C 
ENDBRANCH  16  18
ENDBRANCH  12  15
ENDBRANCH   1  11
BRANCH   8  24
HETATM   24  N5  UNL     1      24.305   4.208  52.349  1.00  0.00    -0.340 N 
HETATM   25  H17 UNL     1      25.091   4.623  52.904  1.00  0.00     0.167 HD
BRANCH  24  26
HETATM   26  C15 UNL     1      23.925   2.828  52.496  1.00  0.00     0.035 A 
HETATM   27  C16 UNL     1      22.614   2.415  52.468  1.00  0.00     0.029 A 
HETATM   28  C17 UNL     1      22.356   1.080  52.667  1.00  0.00     0.004 A 
HETATM   29  C18 UNL     1      23.294   0.106  52.893  1.00  0.00     0.019 A 
HETATM   30  C19 UNL     1      24.602   0.570  52.912  1.00  0.00     0.013 A 
HETATM   31 BR1  UNL     1      25.995  -0.701  53.238  1.00  0.00    -0.051 Br
HETATM   32  C20 UNL     1      24.963   1.909  52.720  1.00  0.00     0.048 A 
ENDBRANCH  24  26
ENDBRANCH   8  24
TORSDOF 5
ENDMDL
MODEL 7
REMARK VINA RESULT:      -8.3      2.354      2.799
REMARK  5 active torsions:
REMARK  status: ('A' for Active; 'I' for Inactive)
REMARK    1  A    between atoms: N1_6  and  C6_7 
REMARK    2  A    between atoms: C7_9  and  C8_10 
REMARK       I    between atoms: C8_10  and  N2_12 
REMARK    3  A    between atoms: N2_12  and  C9_13 
REMARK    4  A    between atoms: C14_20  and  N5_21 
REMARK    5  A    between atoms: N5_21  and  C15_22 
ROOT
HETATM    1  C9  UNL     1      27.591   6.025  48.375  1.00  0.00     0.035 A 
HETATM    2  C10 UNL     1      27.447   7.151  47.537  1.00  0.00     0.032 A 
HETATM    3  C11 UNL     1      26.339   7.990  47.657  1.00  0.00     0.035 A 
HETATM    4  C12 UNL     1      25.391   7.662  48.633  1.00  0.00     0.072 A 
HETATM    5  N3  UNL     1      24.298   8.458  48.792  1.00  0.00    -0.241 NA
HETATM    6  C13 UNL     1      23.384   8.130  49.760  1.00  0.00     0.236 A 
HETATM    7  N4  UNL     1      23.552   7.062  50.532  1.00  0.00    -0.224 NA
HETATM    8  C14 UNL     1      24.607   6.211  50.447  1.00  0.00     0.142 A 
HETATM    9  C21 UNL     1      25.527   6.566  49.450  1.00  0.00     0.041 A 
HETATM   10  C22 UNL     1      26.628   5.755  49.313  1.00  0.00     0.047 A 
ENDROOT
BRANCH   1  11
HETATM   11  N2  UNL     1      28.810   5.429  47.975  1.00  0.00    -0.325 N 
HETATM   12  C8  UNL     1      30.034   6.076  48.269  1.00  0.00     0.255 C 
HETATM   13  O2  UNL     1      30.434   7.157  48.838  1.00  0.00    -0.270 OA
HETATM   14  H13 UNL     1      29.150   4.584  47.476  1.00  0.00     0.169 HD
BRANCH  12  15
HETATM   15  C7  UNL     1      31.513   5.907  48.114  1.00  0.00     0.275 A 
HETATM   16  C6  UNL     1      32.057   4.759  47.387  1.00  0.00     0.398 A 
HETATM   17  O1  UNL     1      31.986   4.703  48.755  1.00  0.00    -0.335 OA
BRANCH  16  18
HETATM   18  N1  UNL     1      33.327   4.873  46.738  1.00  0.00     0.124 N 
HETATM   19  C2  UNL     1      33.289   4.529  45.327  1.00  0.00     0.222 C 
HETATM   20  C1  UNL     1      32.873   5.674  44.447  1.00  0.00     0.043 C 
HETATM   21  C3  UNL     1      34.764   4.211  45.047  1.00  0.00     0.037 C 
HETATM   22  C4  UNL     1      35.045   3.283  46.235  1.00  0.00     0.032 C 
HETATM   23  C5  UNL     1      34.284   3.988  47.339  1.00  0.00     0.276 C 
ENDBRANCH  16  18
ENDBRANCH  12  15
ENDBRANCH   1  11
BRANCH   8  24
HETATM   24  N5  UNL     1      24.849   5.063  51.267  1.00  0.00    -0.340 N 
HETATM   25  H17 UNL     1      25.655   5.181  51.926  1.00  0.00     0.167 HD
BRANCH  24  26
HETATM   26  C15 UNL     1      24.094   3.840  51.211  1.00  0.00     0.035 A 
HETATM   27  C16 UNL     1      23.986   2.987  52.284  1.00  0.00     0.029 A 
HETATM   28  C17 UNL     1      23.282   1.819  52.110  1.00  0.00     0.004 A 
HETATM   29  C18 UNL     1      22.668   1.418  50.952  1.00  0.00     0.019 A 
HETATM   30  C19 UNL     1      22.803   2.310  49.897  1.00  0.00     0.013 A 
HETATM   31 BR1  UNL     1      22.001   1.843  48.224  1.00  0.00    -0.051 Br
HETATM   32  C20 UNL     1      23.500   3.521  49.978  1.00  0.00     0.048 A 
ENDBRANCH  24  26
ENDBRANCH   8  24
TORSDOF 5
ENDMDL
MODEL 8
REMARK VINA RESULT:      -8.2      7.193     13.087
REMARK  5 active torsions:
REMARK  status: ('A' for Active; 'I' for Inactive)
REMARK    1  A    between atoms: N1_6  and  C6_7 
REMARK    2  A    between atoms: C7_9  and  C8_10 
REMARK       I    between atoms: C8_10  and  N2_12 
REMARK    3  A    between atoms: N2_12  and  C9_13 
REMARK    4  A    between atoms: C14_20  and  N5_21 
REMARK    5  A    between atoms: N5_21  and  C15_22 
ROOT
HETATM    1  C9  UNL     1      20.735  -0.457  53.555  1.00  0.00     0.035 A 
HETATM    2  C10 UNL     1      21.168  -1.323  54.582  1.00  0.00     0.032 A 
HETATM    3  C11 UNL     1      22.524  -1.461  54.872  1.00  0.00     0.035 A 
HETATM    4  C12 UNL     1      23.423  -0.711  54.104  1.00  0.00     0.072 A 
HETATM    5  N3  UNL     1      24.757  -0.806  54.358  1.00  0.00    -0.241 NA
HETATM    6  C13 UNL     1      25.622  -0.056  53.605  1.00  0.00     0.236 A 
HETATM    7  N4  UNL     1      25.180   0.750  52.647  1.00  0.00    -0.224 NA
HETATM    8  C14 UNL     1      23.872   0.910  52.320  1.00  0.00     0.142 A 
HETATM    9  C21 UNL     1      23.006   0.133  53.103  1.00  0.00     0.041 A 
HETATM   10  C22 UNL     1      21.663   0.252  52.837  1.00  0.00     0.047 A 
ENDROOT
BRANCH   1  11
HETATM   11  N2  UNL     1      19.325  -0.572  53.554  1.00  0.00    -0.325 N 
HETATM   12  C8  UNL     1      18.607  -0.360  52.354  1.00  0.00     0.255 C 
HETATM   13  O2  UNL     1      18.855  -0.052  51.130  1.00  0.00    -0.270 OA
HETATM   14  H13 UNL     1      18.549  -0.777  54.213  1.00  0.00     0.169 HD
BRANCH  12  15
HETATM   15  C7  UNL     1      17.213  -0.369  51.806  1.00  0.00     0.275 A 
HETATM   16  C6  UNL     1      16.062  -0.292  52.708  1.00  0.00     0.398 A 
HETATM   17  O1  UNL     1      16.469  -1.521  52.255  1.00  0.00    -0.335 OA
BRANCH  16  18
HETATM   18  N1  UNL     1      14.836   0.276  52.237  1.00  0.00     0.124 N 
HETATM   19  C2  UNL     1      14.470   1.506  52.919  1.00  0.00     0.222 C 
HETATM   20  C1  UNL     1      15.121   2.728  52.331  1.00  0.00     0.043 C 
HETATM   21  C3  UNL     1      12.962   1.577  52.640  1.00  0.00     0.037 C 
HETATM   22  C4  UNL     1      12.577   0.141  53.017  1.00  0.00     0.032 C 
HETATM   23  C5  UNL     1      13.745  -0.632  52.441  1.00  0.00     0.276 C 
ENDBRANCH  16  18
ENDBRANCH  12  15
ENDBRANCH   1  11
BRANCH   8  24
HETATM   24  N5  UNL     1      23.341   1.781  51.316  1.00  0.00    -0.340 N 
HETATM   25  H17 UNL     1      22.691   1.301  50.648  1.00  0.00     0.167 HD
BRANCH  24  26
HETATM   26  C15 UNL     1      23.658   3.178  51.188  1.00  0.00     0.035 A 
HETATM   27  C16 UNL     1      22.949   4.160  51.839  1.00  0.00     0.029 A 
HETATM   28  C17 UNL     1      23.302   5.468  51.610  1.00  0.00     0.004 A 
HETATM   29  C18 UNL     1      24.309   5.894  50.784  1.00  0.00     0.019 A 
HETATM   30  C19 UNL     1      24.997   4.869  50.150  1.00  0.00     0.013 A 
HETATM   31 BR1  UNL     1      26.414   5.349  48.957  1.00  0.00    -0.051 Br
HETATM   32  C20 UNL     1      24.711   3.509  50.319  1.00  0.00     0.048 A 
ENDBRANCH  24  26
ENDBRANCH   8  24
TORSDOF 5
ENDMDL
MODEL 9
REMARK VINA RESULT:      -8.1      2.962      8.455
REMARK  5 active torsions:
REMARK  status: ('A' for Active; 'I' for Inactive)
REMARK    1  A    between atoms: N1_6  and  C6_7 
REMARK    2  A    between atoms: C7_9  and  C8_10 
REMARK       I    between atoms: C8_10  and  N2_12 
REMARK    3  A    between atoms: N2_12  and  C9_13 
REMARK    4  A    between atoms: C14_20  and  N5_21 
REMARK    5  A    between atoms: N5_21  and  C15_22 
ROOT
HETATM    1  C9  UNL     1      26.337   6.828  48.800  1.00  0.00     0.035 A 
HETATM    2  C10 UNL     1      25.410   7.452  47.938  1.00  0.00     0.032 A 
HETATM    3  C11 UNL     1      25.761   8.597  47.223  1.00  0.00     0.035 A 
HETATM    4  C12 UNL     1      27.059   9.090  47.403  1.00  0.00     0.072 A 
HETATM    5  N3  UNL     1      27.449  10.200  46.718  1.00  0.00    -0.241 NA
HETATM    6  C13 UNL     1      28.726  10.664  46.896  1.00  0.00     0.236 A 
HETATM    7  N4  UNL     1      29.574  10.051  47.714  1.00  0.00    -0.224 NA
HETATM    8  C14 UNL     1      29.276   8.941  48.438  1.00  0.00     0.142 A 
HETATM    9  C21 UNL     1      27.965   8.486  48.241  1.00  0.00     0.041 A 
HETATM   10  C22 UNL     1      27.594   7.358  48.933  1.00  0.00     0.047 A 
ENDROOT
BRANCH   1  11
HETATM   11  N2  UNL     1      25.643   5.718  49.337  1.00  0.00    -0.325 N 
HETATM   12  C8  UNL     1      26.299   4.470  49.448  1.00  0.00     0.255 C 
HETATM   13  O2  UNL     1      27.450   3.965  49.177  1.00  0.00    -0.270 OA
HETATM   14  H13 UNL     1      24.705   5.481  49.715  1.00  0.00     0.169 HD
BRANCH  12  15
HETATM   15  C7  UNL     1      26.075   3.068  49.922  1.00  0.00     0.275 A 
HETATM   16  C6  UNL     1      25.625   2.812  51.292  1.00  0.00     0.398 A 
HETATM   17  O1  UNL     1      26.963   2.720  51.006  1.00  0.00    -0.335 OA
BRANCH  16  18
HETATM   18  N1  UNL     1      24.869   1.630  51.576  1.00  0.00     0.124 N 
HETATM   19  C2  UNL     1      23.711   1.874  52.418  1.00  0.00     0.222 C 
HETATM   20  C1  UNL     1      22.498   2.318  51.648  1.00  0.00     0.043 C 
HETATM   21  C3  UNL     1      23.441   0.473  52.984  1.00  0.00     0.037 C 
HETATM   22  C4  UNL     1      24.864   0.108  53.423  1.00  0.00     0.032 C 
HETATM   23  C5  UNL     1      25.674   0.668  52.273  1.00  0.00     0.276 C 
ENDBRANCH  16  18
ENDBRANCH  12  15
ENDBRANCH   1  11
BRANCH   8  24
HETATM   24  N5  UNL     1      30.156   8.229  49.314  1.00  0.00    -0.340 N 
HETATM   25  H17 UNL     1      29.872   8.276  50.322  1.00  0.00     0.167 HD
BRANCH  24  26
HETATM   26  C15 UNL     1      31.336   7.520  48.895  1.00  0.00     0.035 A 
HETATM   27  C16 UNL     1      32.598   8.054  49.008  1.00  0.00     0.029 A 
HETATM   28  C17 UNL     1      33.654   7.314  48.532  1.00  0.00     0.004 A 
HETATM   29  C18 UNL     1      33.569   6.077  47.947  1.00  0.00     0.019 A 
HETATM   30  C19 UNL     1      32.276   5.579  47.856  1.00  0.00     0.013 A 
HETATM   31 BR1  UNL     1      32.035   3.865  47.040  1.00  0.00    -0.051 Br
HETATM   32  C20 UNL     1      31.140   6.258  48.312  1.00  0.00     0.048 A 
ENDBRANCH  24  26
ENDBRANCH   8  24
TORSDOF 5
ENDMDL
