MODEL 1
REMARK VINA RESULT:      -6.9      0.000      0.000
REMARK  8 active torsions:
REMARK  status: ('A' for Active; 'I' for Inactive)
REMARK    1  A    between atoms: O1_2  and  C2_3 
REMARK    2  A    between atoms: C4_5  and  C5_6 
REMARK    3  A    between atoms: C8_10  and  O2_11 
REMARK    4  A    between atoms: O2_11  and  O3_12 
REMARK    5  A    between atoms: C11_16  and  O4_17 
REMARK    6  A    between atoms: O4_17  and  C12_18 
REMARK    7  A    between atoms: C12_18  and  C13_19 
REMARK    8  A    between atoms: C13_19  and  O6_21 
ROOT
HETATM    1  C2  UNL     1      25.979   1.141  52.005  1.00  0.00     0.102 A 
HETATM    2  C3  UNL     1      24.596   1.329  51.904  1.00  0.00     0.055 A 
HETATM    3  C4  UNL     1      23.703   0.614  52.703  1.00  0.00     0.012 A 
HETATM    4  C9  UNL     1      24.226  -0.292  53.603  1.00  0.00     0.018 A 
HETATM    5  C10 UNL     1      25.583  -0.504  53.730  1.00  0.00     0.040 A 
HETATM    6  C11 UNL     1      26.453   0.213  52.932  1.00  0.00     0.102 A 
ENDROOT
BRANCH   3   7
HETATM    7  C5  UNL     1      22.276   0.866  52.539  1.00  0.00     0.135 A 
HETATM    8  N1  UNL     1      21.886   2.103  52.439  1.00  0.00    -0.243 NA
HETATM    9  C6  UNL     1      20.523   2.475  52.276  1.00  0.00     0.119 A 
HETATM   10  C7  UNL     1      19.590   1.510  52.223  1.00  0.00     0.048 A 
HETATM   11  C8  UNL     1      19.909   0.049  52.326  1.00  0.00     0.285 A 
HETATM   12  N2  UNL     1      21.312  -0.180  52.486  1.00  0.00    -0.342 N 
HETATM   13  H9  UNL     1      21.610  -1.175  52.565  1.00  0.00     0.164 HD
BRANCH  11  14
HETATM   14  O2  UNL     1      19.226  -0.430  53.428  1.00  0.00    -0.213 OA
BRANCH  14  15
HETATM   15  O3  UNL     1      19.881  -1.406  54.020  1.00  0.00    -0.248 OA
HETATM   16  H8  UNL     1      20.548  -1.084  54.677  1.00  0.00     0.253 HD
ENDBRANCH  14  15
ENDBRANCH  11  14
ENDBRANCH   3   7
BRANCH   1  17
HETATM   17  O1  UNL     1      26.846   1.867  51.198  1.00  0.00    -0.353 OA
HETATM   18  C1  UNL     1      26.309   2.971  50.500  1.00  0.00     0.210 C 
ENDBRANCH   1  17
BRANCH   6  19
HETATM   19  O4  UNL     1      27.834   0.079  52.976  1.00  0.00    -0.338 OA
BRANCH  19  20
HETATM   20  C12 UNL     1      28.666   0.506  54.010  1.00  0.00     0.285 C 
BRANCH  20  21
HETATM   21  C13 UNL     1      29.049   1.930  53.954  1.00  0.00     0.164 C 
HETATM   22  O5  UNL     1      29.613   2.336  54.989  1.00  0.00    -0.648 OA
BRANCH  21  23
HETATM   23  O6  UNL     1      28.945   2.959  53.033  1.00  0.00    -0.775 OA
HETATM   24  H14 UNL     1      28.093   3.224  52.573  1.00  0.00     0.167 HD
ENDBRANCH  21  23
ENDBRANCH  20  21
ENDBRANCH  19  20
ENDBRANCH   6  19
TORSDOF 8
ENDMDL
MODEL 2
REMARK VINA RESULT:      -6.9      4.057      6.450
REMARK  8 active torsions:
REMARK  status: ('A' for Active; 'I' for Inactive)
REMARK    1  A    between atoms: O1_2  and  C2_3 
REMARK    2  A    between atoms: C4_5  and  C5_6 
REMARK    3  A    between atoms: C8_10  and  O2_11 
REMARK    4  A    between atoms: O2_11  and  O3_12 
REMARK    5  A    between atoms: C11_16  and  O4_17 
REMARK    6  A    between atoms: O4_17  and  C12_18 
REMARK    7  A    between atoms: C12_18  and  C13_19 
REMARK    8  A    between atoms: C13_19  and  O6_21 
ROOT
HETATM    1  C2  UNL     1      25.565   3.469  50.685  1.00  0.00     0.102 A 
HETATM    2  C3  UNL     1      26.472   2.538  51.203  1.00  0.00     0.055 A 
HETATM    3  C4  UNL     1      26.243   1.898  52.421  1.00  0.00     0.012 A 
HETATM    4  C9  UNL     1      25.088   2.212  53.108  1.00  0.00     0.018 A 
HETATM    5  C10 UNL     1      24.172   3.124  52.628  1.00  0.00     0.040 A 
HETATM    6  C11 UNL     1      24.414   3.748  51.420  1.00  0.00     0.102 A 
ENDROOT
BRANCH   3   7
HETATM    7  C5  UNL     1      27.235   0.939  52.895  1.00  0.00     0.135 A 
HETATM    8  N1  UNL     1      28.471   1.335  52.976  1.00  0.00    -0.243 NA
HETATM    9  C6  UNL     1      29.527   0.494  53.423  1.00  0.00     0.119 A 
HETATM   10  C7  UNL     1      29.242  -0.769  53.780  1.00  0.00     0.048 A 
HETATM   11  C8  UNL     1      27.859  -1.346  53.733  1.00  0.00     0.285 A 
HETATM   12  N2  UNL     1      26.900  -0.394  53.267  1.00  0.00    -0.342 N 
HETATM   13  H9  UNL     1      25.913  -0.724  53.208  1.00  0.00     0.164 HD
BRANCH  11  14
HETATM   14  O2  UNL     1      27.908  -2.425  52.871  1.00  0.00    -0.213 OA
BRANCH  14  15
HETATM   15  O3  UNL     1      28.604  -3.421  53.379  1.00  0.00    -0.248 OA
HETATM   16  H8  UNL     1      29.468  -3.567  52.917  1.00  0.00     0.253 HD
ENDBRANCH  14  15
ENDBRANCH  11  14
ENDBRANCH   3   7
BRANCH   1  17
HETATM   17  O1  UNL     1      25.817   4.091  49.469  1.00  0.00    -0.353 OA
HETATM   18  C1  UNL     1      27.169   4.278  49.105  1.00  0.00     0.210 C 
ENDBRANCH   1  17
BRANCH   6  19
HETATM   19  O4  UNL     1      23.561   4.682  50.845  1.00  0.00    -0.338 OA
BRANCH  19  20
HETATM   20  C12 UNL     1      23.290   5.957  51.339  1.00  0.00     0.285 C 
BRANCH  20  21
HETATM   21  C13 UNL     1      24.315   6.974  51.035  1.00  0.00     0.164 C 
HETATM   22  O5  UNL     1      23.845   8.109  50.826  1.00  0.00    -0.648 OA
BRANCH  21  23
HETATM   23  O6  UNL     1      25.695   7.001  50.918  1.00  0.00    -0.775 OA
HETATM   24  H14 UNL     1      26.295   6.219  51.108  1.00  0.00     0.167 HD
ENDBRANCH  21  23
ENDBRANCH  20  21
ENDBRANCH  19  20
ENDBRANCH   6  19
TORSDOF 8
ENDMDL
MODEL 3
REMARK VINA RESULT:      -6.8      2.904      6.767
REMARK  8 active torsions:
REMARK  status: ('A' for Active; 'I' for Inactive)
REMARK    1  A    between atoms: O1_2  and  C2_3 
REMARK    2  A    between atoms: C4_5  and  C5_6 
REMARK    3  A    between atoms: C8_10  and  O2_11 
REMARK    4  A    between atoms: O2_11  and  O3_12 
REMARK    5  A    between atoms: C11_16  and  O4_17 
REMARK    6  A    between atoms: O4_17  and  C12_18 
REMARK    7  A    between atoms: C12_18  and  C13_19 
REMARK    8  A    between atoms: C13_19  and  O6_21 
ROOT
HETATM    1  C2  UNL     1      23.643   1.447  51.579  1.00  0.00     0.102 A 
HETATM    2  C3  UNL     1      24.987   1.259  51.921  1.00  0.00     0.055 A 
HETATM    3  C4  UNL     1      25.367   0.353  52.911  1.00  0.00     0.012 A 
HETATM    4  C9  UNL     1      24.372  -0.357  53.551  1.00  0.00     0.018 A 
HETATM    5  C10 UNL     1      23.038  -0.198  53.241  1.00  0.00     0.040 A 
HETATM    6  C11 UNL     1      22.679   0.703  52.257  1.00  0.00     0.102 A 
ENDROOT
BRANCH   3   7
HETATM    7  C5  UNL     1      26.788   0.212  53.211  1.00  0.00     0.135 A 
HETATM    8  N1  UNL     1      27.547   1.257  53.057  1.00  0.00    -0.243 NA
HETATM    9  C6  UNL     1      28.945   1.245  53.317  1.00  0.00     0.119 A 
HETATM   10  C7  UNL     1      29.515   0.105  53.740  1.00  0.00     0.048 A 
HETATM   11  C8  UNL     1      28.751  -1.167  53.957  1.00  0.00     0.285 A 
HETATM   12  N2  UNL     1      27.361  -1.011  53.659  1.00  0.00    -0.342 N 
HETATM   13  H9  UNL     1      26.765  -1.856  53.787  1.00  0.00     0.164 HD
BRANCH  11  14
HETATM   14  O2  UNL     1      29.309  -2.113  53.119  1.00  0.00    -0.213 OA
BRANCH  14  15
HETATM   15  O3  UNL     1      28.652  -3.253  53.166  1.00  0.00    -0.248 OA
HETATM   16  H8  UNL     1      29.232  -4.027  53.380  1.00  0.00     0.253 HD
ENDBRANCH  14  15
ENDBRANCH  11  14
ENDBRANCH   3   7
BRANCH   1  17
HETATM   17  O1  UNL     1      23.293   2.356  50.588  1.00  0.00    -0.353 OA
HETATM   18  C1  UNL     1      24.308   3.210  50.104  1.00  0.00     0.210 C 
ENDBRANCH   1  17
BRANCH   6  19
HETATM   19  O4  UNL     1      21.369   0.943  51.866  1.00  0.00    -0.338 OA
BRANCH  19  20
HETATM   20  C12 UNL     1      20.412   1.648  52.595  1.00  0.00     0.285 C 
BRANCH  20  21
HETATM   21  C13 UNL     1      20.319   3.085  52.274  1.00  0.00     0.164 C 
HETATM   22  O5  UNL     1      19.149   3.511  52.229  1.00  0.00    -0.648 OA
BRANCH  21  23
HETATM   23  O6  UNL     1      21.210   4.111  52.004  1.00  0.00    -0.775 OA
HETATM   24  H14 UNL     1      21.277   4.958  52.537  1.00  0.00     0.167 HD
ENDBRANCH  21  23
ENDBRANCH  20  21
ENDBRANCH  19  20
ENDBRANCH   6  19
TORSDOF 8
ENDMDL
MODEL 4
REMARK VINA RESULT:      -6.8      2.757      4.163
REMARK  8 active torsions:
REMARK  status: ('A' for Active; 'I' for Inactive)
REMARK    1  A    between atoms: O1_2  and  C2_3 
REMARK    2  A    between atoms: C4_5  and  C5_6 
REMARK    3  A    between atoms: C8_10  and  O2_11 
REMARK    4  A    between atoms: O2_11  and  O3_12 
REMARK    5  A    between atoms: C11_16  and  O4_17 
REMARK    6  A    between atoms: O4_17  and  C12_18 
REMARK    7  A    between atoms: C12_18  and  C13_19 
REMARK    8  A    between atoms: C13_19  and  O6_21 
ROOT
HETATM    1  C2  UNL     1      25.676  -0.439  53.842  1.00  0.00     0.102 A 
HETATM    2  C3  UNL     1      24.775   0.617  53.662  1.00  0.00     0.055 A 
HETATM    3  C4  UNL     1      24.858   1.465  52.558  1.00  0.00     0.012 A 
HETATM    4  C9  UNL     1      25.862   1.233  51.641  1.00  0.00     0.018 A 
HETATM    5  C10 UNL     1      26.767   0.202  51.784  1.00  0.00     0.040 A 
HETATM    6  C11 UNL     1      26.670  -0.629  52.883  1.00  0.00     0.102 A 
ENDROOT
BRANCH   3   7
HETATM    7  C5  UNL     1      23.883   2.544  52.440  1.00  0.00     0.135 A 
HETATM    8  N1  UNL     1      22.679   2.234  52.057  1.00  0.00    -0.243 NA
HETATM    9  C6  UNL     1      21.642   3.196  51.906  1.00  0.00     0.119 A 
HETATM   10  C7  UNL     1      21.912   4.485  52.169  1.00  0.00     0.048 A 
HETATM   11  C8  UNL     1      23.257   4.971  52.618  1.00  0.00     0.285 A 
HETATM   12  N2  UNL     1      24.200   3.902  52.728  1.00  0.00    -0.342 N 
HETATM   13  H9  UNL     1      25.160   4.164  53.036  1.00  0.00     0.164 HD
BRANCH  11  14
HETATM   14  O2  UNL     1      23.686   5.882  51.672  1.00  0.00    -0.213 OA
BRANCH  14  15
HETATM   15  O3  UNL     1      24.441   6.819  52.206  1.00  0.00    -0.248 OA
HETATM   16  H8  UNL     1      24.522   6.737  53.190  1.00  0.00     0.253 HD
ENDBRANCH  14  15
ENDBRANCH  11  14
ENDBRANCH   3   7
BRANCH   1  17
HETATM   17  O1  UNL     1      25.569  -1.270  54.950  1.00  0.00    -0.353 OA
HETATM   18  C1  UNL     1      24.329  -1.292  55.627  1.00  0.00     0.210 C 
ENDBRANCH   1  17
BRANCH   6  19
HETATM   19  O4  UNL     1      27.526  -1.694  53.128  1.00  0.00    -0.338 OA
BRANCH  19  20
HETATM   20  C12 UNL     1      28.890  -1.603  53.402  1.00  0.00     0.285 C 
BRANCH  20  21
HETATM   21  C13 UNL     1      29.336  -0.293  53.915  1.00  0.00     0.164 C 
HETATM   22  O5  UNL     1      28.926  -0.042  55.065  1.00  0.00    -0.648 OA
BRANCH  21  23
HETATM   23  O6  UNL     1      30.109   0.756  53.446  1.00  0.00    -0.775 OA
HETATM   24  H14 UNL     1      29.983   1.198  52.553  1.00  0.00     0.167 HD
ENDBRANCH  21  23
ENDBRANCH  20  21
ENDBRANCH  19  20
ENDBRANCH   6  19
TORSDOF 8
ENDMDL
MODEL 5
REMARK VINA RESULT:      -6.8      2.447      7.392
REMARK  8 active torsions:
REMARK  status: ('A' for Active; 'I' for Inactive)
REMARK    1  A    between atoms: O1_2  and  C2_3 
REMARK    2  A    between atoms: C4_5  and  C5_6 
REMARK    3  A    between atoms: C8_10  and  O2_11 
REMARK    4  A    between atoms: O2_11  and  O3_12 
REMARK    5  A    between atoms: C11_16  and  O4_17 
REMARK    6  A    between atoms: O4_17  and  C12_18 
REMARK    7  A    between atoms: C12_18  and  C13_19 
REMARK    8  A    between atoms: C13_19  and  O6_21 
ROOT
HETATM    1  C2  UNL     1      23.043   1.679  52.805  1.00  0.00     0.102 A 
HETATM    2  C3  UNL     1      24.422   1.454  52.882  1.00  0.00     0.055 A 
HETATM    3  C4  UNL     1      24.940   0.284  53.439  1.00  0.00     0.012 A 
HETATM    4  C9  UNL     1      24.046  -0.652  53.918  1.00  0.00     0.018 A 
HETATM    5  C10 UNL     1      22.681  -0.464  53.859  1.00  0.00     0.040 A 
HETATM    6  C11 UNL     1      22.186   0.699  53.303  1.00  0.00     0.102 A 
ENDROOT
BRANCH   3   7
HETATM    7  C5  UNL     1      26.389   0.122  53.483  1.00  0.00     0.135 A 
HETATM    8  N1  UNL     1      26.871  -1.073  53.310  1.00  0.00    -0.243 NA
HETATM    9  C6  UNL     1      28.264  -1.357  53.331  1.00  0.00     0.119 A 
HETATM   10  C7  UNL     1      29.128  -0.350  53.539  1.00  0.00     0.048 A 
HETATM   11  C8  UNL     1      28.700   1.071  53.752  1.00  0.00     0.285 A 
HETATM   12  N2  UNL     1      27.278   1.212  53.706  1.00  0.00    -0.342 N 
HETATM   13  H9  UNL     1      26.906   2.175  53.846  1.00  0.00     0.164 HD
BRANCH  11  14
HETATM   14  O2  UNL     1      29.170   1.444  54.997  1.00  0.00    -0.213 OA
BRANCH  14  15
HETATM   15  O3  UNL     1      29.965   2.491  54.922  1.00  0.00    -0.248 OA
HETATM   16  H8  UNL     1      29.867   2.994  54.074  1.00  0.00     0.253 HD
ENDBRANCH  14  15
ENDBRANCH  11  14
ENDBRANCH   3   7
BRANCH   1  17
HETATM   17  O1  UNL     1      22.556   2.852  52.243  1.00  0.00    -0.353 OA
HETATM   18  C1  UNL     1      23.331   4.021  52.409  1.00  0.00     0.210 C 
ENDBRANCH   1  17
BRANCH   6  19
HETATM   19  O4  UNL     1      20.833   0.991  53.193  1.00  0.00    -0.338 OA
BRANCH  19  20
HETATM   20  C12 UNL     1      19.924   0.357  52.348  1.00  0.00     0.285 C 
BRANCH  20  21
HETATM   21  C13 UNL     1      19.058  -0.643  53.002  1.00  0.00     0.164 C 
HETATM   22  O5  UNL     1      17.926  -0.734  52.489  1.00  0.00    -0.648 OA
BRANCH  21  23
HETATM   23  O6  UNL     1      19.174  -1.528  54.061  1.00  0.00    -0.775 OA
HETATM   24  H14 UNL     1      18.552  -1.554  54.848  1.00  0.00     0.167 HD
ENDBRANCH  21  23
ENDBRANCH  20  21
ENDBRANCH  19  20
ENDBRANCH   6  19
TORSDOF 8
ENDMDL
MODEL 6
REMARK VINA RESULT:      -6.7      2.984      7.178
REMARK  8 active torsions:
REMARK  status: ('A' for Active; 'I' for Inactive)
REMARK    1  A    between atoms: O1_2  and  C2_3 
REMARK    2  A    between atoms: C4_5  and  C5_6 
REMARK    3  A    between atoms: C8_10  and  O2_11 
REMARK    4  A    between atoms: O2_11  and  O3_12 
REMARK    5  A    between atoms: C11_16  and  O4_17 
REMARK    6  A    between atoms: O4_17  and  C12_18 
REMARK    7  A    between atoms: C12_18  and  C13_19 
REMARK    8  A    between atoms: C13_19  and  O6_21 
ROOT
HETATM    1  C2  UNL     1      23.014  -0.131  52.935  1.00  0.00     0.102 A 
HETATM    2  C3  UNL     1      24.366  -0.295  53.254  1.00  0.00     0.055 A 
HETATM    3  C4  UNL     1      25.350   0.523  52.698  1.00  0.00     0.012 A 
HETATM    4  C9  UNL     1      24.949   1.506  51.817  1.00  0.00     0.018 A 
HETATM    5  C10 UNL     1      23.626   1.697  51.480  1.00  0.00     0.040 A 
HETATM    6  C11 UNL     1      22.664   0.878  52.039  1.00  0.00     0.102 A 
ENDROOT
BRANCH   3   7
HETATM    7  C5  UNL     1      26.739   0.291  53.080  1.00  0.00     0.135 A 
HETATM    8  N1  UNL     1      27.564   1.292  53.004  1.00  0.00    -0.243 NA
HETATM    9  C6  UNL     1      28.941   1.191  53.348  1.00  0.00     0.119 A 
HETATM   10  C7  UNL     1      29.416   0.009  53.772  1.00  0.00     0.048 A 
HETATM   11  C8  UNL     1      28.569  -1.221  53.905  1.00  0.00     0.285 A 
HETATM   12  N2  UNL     1      27.212  -0.976  53.527  1.00  0.00    -0.342 N 
HETATM   13  H9  UNL     1      26.561  -1.787  53.593  1.00  0.00     0.164 HD
BRANCH  11  14
HETATM   14  O2  UNL     1      29.123  -2.176  53.075  1.00  0.00    -0.213 OA
BRANCH  14  15
HETATM   15  O3  UNL     1      28.735  -3.391  53.404  1.00  0.00    -0.248 OA
HETATM   16  H8  UNL     1      29.490  -3.997  53.612  1.00  0.00     0.253 HD
ENDBRANCH  14  15
ENDBRANCH  11  14
ENDBRANCH   3   7
BRANCH   1  17
HETATM   17  O1  UNL     1      22.055  -0.960  53.504  1.00  0.00    -0.353 OA
HETATM   18  C1  UNL     1      21.953  -0.962  54.913  1.00  0.00     0.210 C 
ENDBRANCH   1  17
BRANCH   6  19
HETATM   19  O4  UNL     1      21.306   0.981  51.770  1.00  0.00    -0.338 OA
BRANCH  19  20
HETATM   20  C12 UNL     1      20.680   2.035  51.105  1.00  0.00     0.285 C 
BRANCH  20  21
HETATM   21  C13 UNL     1      19.827   2.888  51.954  1.00  0.00     0.164 C 
HETATM   22  O5  UNL     1      20.267   3.042  53.109  1.00  0.00    -0.648 OA
BRANCH  21  23
HETATM   23  O6  UNL     1      18.637   3.581  51.802  1.00  0.00    -0.775 OA
HETATM   24  H14 UNL     1      17.782   3.348  52.272  1.00  0.00     0.167 HD
ENDBRANCH  21  23
ENDBRANCH  20  21
ENDBRANCH  19  20
ENDBRANCH   6  19
TORSDOF 8
ENDMDL
MODEL 7
REMARK VINA RESULT:      -6.7      2.608      7.384
REMARK  8 active torsions:
REMARK  status: ('A' for Active; 'I' for Inactive)
REMARK    1  A    between atoms: O1_2  and  C2_3 
REMARK    2  A    between atoms: C4_5  and  C5_6 
REMARK    3  A    between atoms: C8_10  and  O2_11 
REMARK    4  A    between atoms: O2_11  and  O3_12 
REMARK    5  A    between atoms: C11_16  and  O4_17 
REMARK    6  A    between atoms: O4_17  and  C12_18 
REMARK    7  A    between atoms: C12_18  and  C13_19 
REMARK    8  A    between atoms: C13_19  and  O6_21 
ROOT
HETATM    1  C2  UNL     1      23.022  -0.405  53.072  1.00  0.00     0.102 A 
HETATM    2  C3  UNL     1      24.342  -0.224  53.499  1.00  0.00     0.055 A 
HETATM    3  C4  UNL     1      25.141   0.799  52.986  1.00  0.00     0.012 A 
HETATM    4  C9  UNL     1      24.588   1.633  52.036  1.00  0.00     0.018 A 
HETATM    5  C10 UNL     1      23.291   1.485  51.591  1.00  0.00     0.040 A 
HETATM    6  C11 UNL     1      22.514   0.468  52.110  1.00  0.00     0.102 A 
ENDROOT
BRANCH   3   7
HETATM    7  C5  UNL     1      26.507   0.924  53.481  1.00  0.00     0.135 A 
HETATM    8  N1  UNL     1      27.162   2.008  53.188  1.00  0.00    -0.243 NA
HETATM    9  C6  UNL     1      28.498   2.246  53.613  1.00  0.00     0.119 A 
HETATM   10  C7  UNL     1      29.118   1.312  54.352  1.00  0.00     0.048 A 
HETATM   11  C8  UNL     1      28.474   0.020  54.758  1.00  0.00     0.285 A 
HETATM   12  N2  UNL     1      27.136  -0.086  54.264  1.00  0.00    -0.342 N 
HETATM   13  H9  UNL     1      26.623  -0.959  54.507  1.00  0.00     0.164 HD
BRANCH  11  14
HETATM   14  O2  UNL     1      29.252  -0.994  54.232  1.00  0.00    -0.213 OA
BRANCH  14  15
HETATM   15  O3  UNL     1      28.527  -1.862  53.558  1.00  0.00    -0.248 OA
HETATM   16  H8  UNL     1      29.000  -2.715  53.389  1.00  0.00     0.253 HD
ENDBRANCH  14  15
ENDBRANCH  11  14
ENDBRANCH   3   7
BRANCH   1  17
HETATM   17  O1  UNL     1      22.250  -1.431  53.600  1.00  0.00    -0.353 OA
HETATM   18  C1  UNL     1      22.178  -1.529  55.008  1.00  0.00     0.210 C 
ENDBRANCH   1  17
BRANCH   6  19
HETATM   19  O4  UNL     1      21.199   0.227  51.735  1.00  0.00    -0.338 OA
BRANCH  19  20
HETATM   20  C12 UNL     1      20.062   0.692  52.393  1.00  0.00     0.285 C 
BRANCH  20  21
HETATM   21  C13 UNL     1      19.112  -0.357  52.812  1.00  0.00     0.164 C 
HETATM   22  O5  UNL     1      18.196  -0.557  51.991  1.00  0.00    -0.648 OA
BRANCH  21  23
HETATM   23  O6  UNL     1      18.966  -1.199  53.902  1.00  0.00    -0.775 OA
HETATM   24  H14 UNL     1      19.726  -1.522  54.473  1.00  0.00     0.167 HD
ENDBRANCH  21  23
ENDBRANCH  20  21
ENDBRANCH  19  20
ENDBRANCH   6  19
TORSDOF 8
ENDMDL
MODEL 8
REMARK VINA RESULT:      -6.6      1.865      2.516
REMARK  8 active torsions:
REMARK  status: ('A' for Active; 'I' for Inactive)
REMARK    1  A    between atoms: O1_2  and  C2_3 
REMARK    2  A    between atoms: C4_5  and  C5_6 
REMARK    3  A    between atoms: C8_10  and  O2_11 
REMARK    4  A    between atoms: O2_11  and  O3_12 
REMARK    5  A    between atoms: C11_16  and  O4_17 
REMARK    6  A    between atoms: O4_17  and  C12_18 
REMARK    7  A    between atoms: C12_18  and  C13_19 
REMARK    8  A    between atoms: C13_19  and  O6_21 
ROOT
HETATM    1  C2  UNL     1      25.681  -0.170  53.571  1.00  0.00     0.102 A 
HETATM    2  C3  UNL     1      24.532  -0.006  52.790  1.00  0.00     0.055 A 
HETATM    3  C4  UNL     1      23.962   1.251  52.586  1.00  0.00     0.012 A 
HETATM    4  C9  UNL     1      24.569   2.338  53.181  1.00  0.00     0.018 A 
HETATM    5  C10 UNL     1      25.702   2.215  53.957  1.00  0.00     0.040 A 
HETATM    6  C11 UNL     1      26.253   0.963  54.149  1.00  0.00     0.102 A 
ENDROOT
BRANCH   3   7
HETATM    7  C5  UNL     1      22.764   1.340  51.758  1.00  0.00     0.135 A 
HETATM    8  N1  UNL     1      22.919   1.591  50.492  1.00  0.00    -0.243 NA
HETATM    9  C6  UNL     1      21.829   1.702  49.585  1.00  0.00     0.119 A 
HETATM   10  C7  UNL     1      20.580   1.542  50.051  1.00  0.00     0.048 A 
HETATM   11  C8  UNL     1      20.268   1.249  51.488  1.00  0.00     0.285 A 
HETATM   12  N2  UNL     1      21.452   1.164  52.284  1.00  0.00    -0.342 N 
HETATM   13  H9  UNL     1      21.314   0.962  53.297  1.00  0.00     0.164 HD
BRANCH  11  14
HETATM   14  O2  UNL     1      19.470   2.283  51.940  1.00  0.00    -0.213 OA
BRANCH  14  15
HETATM   15  O3  UNL     1      20.092   3.020  52.836  1.00  0.00    -0.248 OA
HETATM   16  H8  UNL     1      19.597   3.846  53.070  1.00  0.00     0.253 HD
ENDBRANCH  14  15
ENDBRANCH  11  14
ENDBRANCH   3   7
BRANCH   1  17
HETATM   17  O1  UNL     1      26.228  -1.433  53.757  1.00  0.00    -0.353 OA
HETATM   18  C1  UNL     1      26.912  -2.011  52.665  1.00  0.00     0.210 C 
ENDBRANCH   1  17
BRANCH   6  19
HETATM   19  O4  UNL     1      27.390   0.724  54.910  1.00  0.00    -0.338 OA
BRANCH  19  20
HETATM   20  C12 UNL     1      28.703   0.719  54.441  1.00  0.00     0.285 C 
BRANCH  20  21
HETATM   21  C13 UNL     1      29.271   2.052  54.164  1.00  0.00     0.164 C 
HETATM   22  O5  UNL     1      29.931   2.521  55.111  1.00  0.00    -0.648 OA
BRANCH  21  23
HETATM   23  O6  UNL     1      29.264   2.942  53.103  1.00  0.00    -0.775 OA
HETATM   24  H14 UNL     1      28.795   2.780  52.230  1.00  0.00     0.167 HD
ENDBRANCH  21  23
ENDBRANCH  20  21
ENDBRANCH  19  20
ENDBRANCH   6  19
TORSDOF 8
ENDMDL
MODEL 9
REMARK VINA RESULT:      -6.6      2.580      7.078
REMARK  8 active torsions:
REMARK  status: ('A' for Active; 'I' for Inactive)
REMARK    1  A    between atoms: O1_2  and  C2_3 
REMARK    2  A    between atoms: C4_5  and  C5_6 
REMARK    3  A    between atoms: C8_10  and  O2_11 
REMARK    4  A    between atoms: O2_11  and  O3_12 
REMARK    5  A    between atoms: C11_16  and  O4_17 
REMARK    6  A    between atoms: O4_17  and  C12_18 
REMARK    7  A    between atoms: C12_18  and  C13_19 
REMARK    8  A    between atoms: C13_19  and  O6_21 
ROOT
HETATM    1  C2  UNL     1      23.120   1.152  51.827  1.00  0.00     0.102 A 
HETATM    2  C3  UNL     1      24.448   1.309  52.239  1.00  0.00     0.055 A 
HETATM    3  C4  UNL     1      25.000   0.510  53.241  1.00  0.00     0.012 A 
HETATM    4  C9  UNL     1      24.193  -0.448  53.819  1.00  0.00     0.018 A 
HETATM    5  C10 UNL     1      22.880  -0.632  53.439  1.00  0.00     0.040 A 
HETATM    6  C11 UNL     1      22.350   0.168  52.445  1.00  0.00     0.102 A 
ENDROOT
BRANCH   3   7
HETATM    7  C5  UNL     1      26.392   0.734  53.615  1.00  0.00     0.135 A 
HETATM    8  N1  UNL     1      26.952   1.843  53.231  1.00  0.00    -0.243 NA
HETATM    9  C6  UNL     1      28.301   2.175  53.534  1.00  0.00     0.119 A 
HETATM   10  C7  UNL     1      29.036   1.309  54.249  1.00  0.00     0.048 A 
HETATM   11  C8  UNL     1      28.508  -0.001  54.752  1.00  0.00     0.285 A 
HETATM   12  N2  UNL     1      27.144  -0.205  54.376  1.00  0.00    -0.342 N 
HETATM   13  H9  UNL     1      26.707  -1.097  54.692  1.00  0.00     0.164 HD
BRANCH  11  14
HETATM   14  O2  UNL     1      29.302  -0.988  54.198  1.00  0.00    -0.213 OA
BRANCH  14  15
HETATM   15  O3  UNL     1      28.582  -1.896  53.573  1.00  0.00    -0.248 OA
HETATM   16  H8  UNL     1      27.699  -1.557  53.279  1.00  0.00     0.253 HD
ENDBRANCH  14  15
ENDBRANCH  11  14
ENDBRANCH   3   7
BRANCH   1  17
HETATM   17  O1  UNL     1      22.596   1.961  50.827  1.00  0.00    -0.353 OA
HETATM   18  C1  UNL     1      23.506   2.747  50.086  1.00  0.00     0.210 C 
ENDBRANCH   1  17
BRANCH   6  19
HETATM   19  O4  UNL     1      21.043   0.069  51.986  1.00  0.00    -0.338 OA
BRANCH  19  20
HETATM   20  C12 UNL     1      19.895   0.406  52.703  1.00  0.00     0.285 C 
BRANCH  20  21
HETATM   21  C13 UNL     1      19.158  -0.739  53.272  1.00  0.00     0.164 C 
HETATM   22  O5  UNL     1      17.963  -0.786  52.923  1.00  0.00    -0.648 OA
BRANCH  21  23
HETATM   23  O6  UNL     1      19.451  -1.801  54.112  1.00  0.00    -0.775 OA
HETATM   24  H14 UNL     1      19.457  -2.763  53.827  1.00  0.00     0.167 HD
ENDBRANCH  21  23
ENDBRANCH  20  21
ENDBRANCH  19  20
ENDBRANCH   6  19
TORSDOF 8
ENDMDL
