MODEL 1
REMARK VINA RESULT:      -7.5      0.000      0.000
REMARK  5 active torsions:
REMARK  status: ('A' for Active; 'I' for Inactive)
REMARK    1  A    between atoms: N1_2  and  O1_3 
REMARK    2  A    between atoms: N1_2  and  N2_4 
REMARK    3  A    between atoms: N2_4  and  C2_5 
REMARK    4  A    between atoms: C7_10  and  N3_11 
REMARK    5  A    between atoms: C10_15  and  C11_16 
ROOT
HETATM    1  C2  UNL     1      23.712   3.316  51.184  1.00  0.00     0.048 A 
HETATM    2  C3  UNL     1      22.740   4.218  51.156  1.00  0.00     0.028 A 
HETATM    3  C4  UNL     1      21.351   3.838  50.926  1.00  0.00    -0.002 A 
HETATM    4  C5  UNL     1      21.139   2.550  50.752  1.00  0.00    -0.024 A 
HETATM    5  C6  UNL     1      22.127   1.458  50.762  1.00  0.00     0.060 A 
HETATM    6  C7  UNL     1      23.537   1.862  50.997  1.00  0.00     0.165 A 
ENDROOT
BRANCH   6   7
HETATM    7  N3  UNL     1      24.084   1.034  52.018  1.00  0.00    -0.253 N 
HETATM    8  C8  UNL     1      23.116   0.409  52.850  1.00  0.00     0.223 A 
HETATM    9  N4  UNL     1      23.446  -0.371  53.821  1.00  0.00    -0.277 NA
HETATM   10  C9  UNL     1      24.807  -0.704  54.181  1.00  0.00     0.212 A 
HETATM   11  C10 UNL     1      25.740  -0.008  53.261  1.00  0.00     0.086 A 
HETATM   12  N6  UNL     1      25.439   0.780  52.280  1.00  0.00    -0.173 NA
BRANCH  11  13
HETATM   13  C11 UNL     1      27.176  -0.196  53.435  1.00  0.00     0.009 A 
HETATM   14  C12 UNL     1      27.824  -1.328  53.035  1.00  0.00     0.016 A 
HETATM   15  C13 UNL     1      29.188  -1.524  53.193  1.00  0.00     0.020 A 
HETATM   16  C14 UNL     1      29.890  -0.488  53.794  1.00  0.00     0.116 A 
HETATM   17  N5  UNL     1      29.301   0.652  54.208  1.00  0.00    -0.272 NA
HETATM   18  C15 UNL     1      27.975   0.764  54.019  1.00  0.00     0.129 A 
ENDBRANCH  11  13
ENDBRANCH   6   7
BRANCH   1  19
HETATM   19  N2  UNL     1      25.010   3.835  51.418  1.00  0.00    -0.299 N 
HETATM   20  H5  UNL     1      25.130   4.470  52.259  1.00  0.00     0.183 HD
BRANCH  19  21
HETATM   21  N1  UNL     1      26.020   3.471  50.524  1.00  0.00    -0.112 NA
HETATM   22  C1  UNL     1      26.256   4.558  49.594  1.00  0.00     0.171 C 
BRANCH  21  23
HETATM   23  O1  UNL     1      27.190   3.174  51.123  1.00  0.00    -0.294 OA
HETATM   24  H4  UNL     1      27.325   3.822  51.883  1.00  0.00     0.239 HD
ENDBRANCH  21  23
ENDBRANCH  19  21
ENDBRANCH   1  19
TORSDOF 5
ENDMDL
MODEL 2
REMARK VINA RESULT:      -7.5      1.872      5.572
REMARK  5 active torsions:
REMARK  status: ('A' for Active; 'I' for Inactive)
REMARK    1  A    between atoms: N1_2  and  O1_3 
REMARK    2  A    between atoms: N1_2  and  N2_4 
REMARK    3  A    between atoms: N2_4  and  C2_5 
REMARK    4  A    between atoms: C7_10  and  N3_11 
REMARK    5  A    between atoms: C10_15  and  C11_16 
ROOT
HETATM    1  C2  UNL     1      25.348   0.738  52.681  1.00  0.00     0.048 A 
HETATM    2  C3  UNL     1      25.050  -0.480  53.112  1.00  0.00     0.028 A 
HETATM    3  C4  UNL     1      23.710  -0.820  53.576  1.00  0.00    -0.002 A 
HETATM    4  C5  UNL     1      22.832   0.160  53.534  1.00  0.00    -0.024 A 
HETATM    5  C6  UNL     1      23.039   1.546  53.078  1.00  0.00     0.060 A 
HETATM    6  C7  UNL     1      24.409   1.875  52.610  1.00  0.00     0.165 A 
ENDROOT
BRANCH   6   7
HETATM    7  N3  UNL     1      24.314   2.525  51.346  1.00  0.00    -0.253 N 
HETATM    8  C8  UNL     1      23.148   2.197  50.602  1.00  0.00     0.223 A 
HETATM    9  N4  UNL     1      22.912   2.699  49.440  1.00  0.00    -0.277 NA
HETATM   10  C9  UNL     1      23.778   3.637  48.758  1.00  0.00     0.212 A 
HETATM   11  C10 UNL     1      24.962   3.915  49.609  1.00  0.00     0.086 A 
HETATM   12  N6  UNL     1      25.227   3.427  50.777  1.00  0.00    -0.173 NA
BRANCH  11  13
HETATM   13  C11 UNL     1      25.980   4.839  49.122  1.00  0.00     0.009 A 
HETATM   14  C12 UNL     1      27.274   4.464  48.906  1.00  0.00     0.016 A 
HETATM   15  C13 UNL     1      28.254   5.330  48.444  1.00  0.00     0.020 A 
HETATM   16  C14 UNL     1      27.852   6.636  48.201  1.00  0.00     0.116 A 
HETATM   17  N5  UNL     1      26.587   7.061  48.396  1.00  0.00    -0.272 NA
HETATM   18  C15 UNL     1      25.697   6.162  48.846  1.00  0.00     0.129 A 
ENDBRANCH  11  13
ENDBRANCH   6   7
BRANCH   1  19
HETATM   19  N2  UNL     1      26.690   0.918  52.262  1.00  0.00    -0.299 N 
HETATM   20  H5  UNL     1      27.033   0.304  51.469  1.00  0.00     0.183 HD
BRANCH  19  21
HETATM   21  N1  UNL     1      27.448   1.885  52.928  1.00  0.00    -0.112 NA
HETATM   22  C1  UNL     1      28.580   1.249  53.574  1.00  0.00     0.171 C 
BRANCH  21  23
HETATM   23  O1  UNL     1      27.921   2.852  52.116  1.00  0.00    -0.294 OA
HETATM   24  H4  UNL     1      27.144   3.425  51.828  1.00  0.00     0.239 HD
ENDBRANCH  21  23
ENDBRANCH  19  21
ENDBRANCH   1  19
TORSDOF 5
ENDMDL
MODEL 3
REMARK VINA RESULT:      -7.3      2.457      4.155
REMARK  5 active torsions:
REMARK  status: ('A' for Active; 'I' for Inactive)
REMARK    1  A    between atoms: N1_2  and  O1_3 
REMARK    2  A    between atoms: N1_2  and  N2_4 
REMARK    3  A    between atoms: N2_4  and  C2_5 
REMARK    4  A    between atoms: C7_10  and  N3_11 
REMARK    5  A    between atoms: C10_15  and  C11_16 
ROOT
HETATM    1  C2  UNL     1      21.995   0.010  52.747  1.00  0.00     0.048 A 
HETATM    2  C3  UNL     1      20.862  -0.161  52.078  1.00  0.00     0.028 A 
HETATM    3  C4  UNL     1      20.152   0.963  51.478  1.00  0.00    -0.002 A 
HETATM    4  C5  UNL     1      20.712   2.142  51.649  1.00  0.00    -0.024 A 
HETATM    5  C6  UNL     1      21.959   2.459  52.367  1.00  0.00     0.060 A 
HETATM    6  C7  UNL     1      22.670   1.304  52.971  1.00  0.00     0.165 A 
ENDROOT
BRANCH   6   7
HETATM    7  N3  UNL     1      24.041   1.363  52.591  1.00  0.00    -0.253 N 
HETATM    8  C8  UNL     1      24.410   2.549  51.901  1.00  0.00     0.223 A 
HETATM    9  N4  UNL     1      25.612   2.758  51.489  1.00  0.00    -0.277 NA
HETATM   10  C9  UNL     1      26.714   1.837  51.668  1.00  0.00     0.212 A 
HETATM   11  C10 UNL     1      26.232   0.635  52.394  1.00  0.00     0.086 A 
HETATM   12  N6  UNL     1      25.035   0.398  52.820  1.00  0.00    -0.173 NA
BRANCH  11  13
HETATM   13  C11 UNL     1      27.177  -0.436  52.689  1.00  0.00     0.009 A 
HETATM   14  C12 UNL     1      28.426  -0.202  53.184  1.00  0.00     0.016 A 
HETATM   15  C13 UNL     1      29.337  -1.208  53.470  1.00  0.00     0.020 A 
HETATM   16  C14 UNL     1      28.911  -2.507  53.226  1.00  0.00     0.116 A 
HETATM   17  N5  UNL     1      27.688  -2.796  52.738  1.00  0.00    -0.272 NA
HETATM   18  C15 UNL     1      26.865  -1.765  52.486  1.00  0.00     0.129 A 
ENDBRANCH  11  13
ENDBRANCH   6   7
BRANCH   1  19
HETATM   19  N2  UNL     1      22.569  -1.174  53.272  1.00  0.00    -0.299 N 
HETATM   20  H5  UNL     1      23.283  -1.671  52.667  1.00  0.00     0.183 HD
BRANCH  19  21
HETATM   21  N1  UNL     1      22.148  -1.588  54.539  1.00  0.00    -0.112 NA
HETATM   22  C1  UNL     1      23.223  -1.392  55.491  1.00  0.00     0.171 C 
BRANCH  21  23
HETATM   23  O1  UNL     1      21.065  -0.925  54.990  1.00  0.00    -0.294 OA
HETATM   24  H4  UNL     1      20.245  -1.446  54.724  1.00  0.00     0.239 HD
ENDBRANCH  21  23
ENDBRANCH  19  21
ENDBRANCH   1  19
TORSDOF 5
ENDMDL
MODEL 4
REMARK VINA RESULT:      -7.2      2.505      6.168
REMARK  5 active torsions:
REMARK  status: ('A' for Active; 'I' for Inactive)
REMARK    1  A    between atoms: N1_2  and  O1_3 
REMARK    2  A    between atoms: N1_2  and  N2_4 
REMARK    3  A    between atoms: N2_4  and  C2_5 
REMARK    4  A    between atoms: C7_10  and  N3_11 
REMARK    5  A    between atoms: C10_15  and  C11_16 
ROOT
HETATM    1  C2  UNL     1      25.015   1.501  53.012  1.00  0.00     0.048 A 
HETATM    2  C3  UNL     1      25.904   1.666  52.041  1.00  0.00     0.028 A 
HETATM    3  C4  UNL     1      26.776   0.579  51.611  1.00  0.00    -0.002 A 
HETATM    4  C5  UNL     1      26.615  -0.561  52.250  1.00  0.00    -0.024 A 
HETATM    5  C6  UNL     1      25.668  -0.867  53.336  1.00  0.00     0.060 A 
HETATM    6  C7  UNL     1      24.787   0.250  53.762  1.00  0.00     0.165 A 
ENDROOT
BRANCH   6   7
HETATM    7  N3  UNL     1      23.443  -0.217  53.797  1.00  0.00    -0.253 N 
HETATM    8  C8  UNL     1      23.158  -1.110  54.866  1.00  0.00     0.223 A 
HETATM    9  N4  UNL     1      21.990  -1.623  55.039  1.00  0.00    -0.277 NA
HETATM   10  C9  UNL     1      20.845  -1.365  54.192  1.00  0.00     0.212 A 
HETATM   11  C10 UNL     1      21.240  -0.427  53.111  1.00  0.00     0.086 A 
HETATM   12  N6  UNL     1      22.402   0.103  52.912  1.00  0.00    -0.173 NA
BRANCH  11  13
HETATM   13  C11 UNL     1      20.240  -0.021  52.130  1.00  0.00     0.009 A 
HETATM   14  C12 UNL     1      18.904  -0.233  52.307  1.00  0.00     0.016 A 
HETATM   15  C13 UNL     1      17.940   0.146  51.385  1.00  0.00     0.020 A 
HETATM   16  C14 UNL     1      18.405   0.773  50.236  1.00  0.00     0.116 A 
HETATM   17  N5  UNL     1      19.713   1.008  50.009  1.00  0.00    -0.272 NA
HETATM   18  C15 UNL     1      20.584   0.609  50.951  1.00  0.00     0.129 A 
ENDBRANCH  11  13
ENDBRANCH   6   7
BRANCH   1  19
HETATM   19  N2  UNL     1      24.239   2.647  53.319  1.00  0.00    -0.299 N 
HETATM   20  H5  UNL     1      23.848   2.713  54.303  1.00  0.00     0.183 HD
BRANCH  19  21
HETATM   21  N1  UNL     1      24.054   3.591  52.306  1.00  0.00    -0.112 NA
HETATM   22  C1  UNL     1      22.737   3.421  51.724  1.00  0.00     0.171 C 
BRANCH  21  23
HETATM   23  O1  UNL     1      24.162   4.866  52.730  1.00  0.00    -0.294 OA
HETATM   24  H4  UNL     1      23.963   5.472  51.951  1.00  0.00     0.239 HD
ENDBRANCH  21  23
ENDBRANCH  19  21
ENDBRANCH   1  19
TORSDOF 5
ENDMDL
MODEL 5
REMARK VINA RESULT:      -7.0      2.811      5.203
REMARK  5 active torsions:
REMARK  status: ('A' for Active; 'I' for Inactive)
REMARK    1  A    between atoms: N1_2  and  O1_3 
REMARK    2  A    between atoms: N1_2  and  N2_4 
REMARK    3  A    between atoms: N2_4  and  C2_5 
REMARK    4  A    between atoms: C7_10  and  N3_11 
REMARK    5  A    between atoms: C10_15  and  C11_16 
ROOT
HETATM    1  C2  UNL     1      21.602   1.129  52.757  1.00  0.00     0.048 A 
HETATM    2  C3  UNL     1      20.794   0.983  53.799  1.00  0.00     0.028 A 
HETATM    3  C4  UNL     1      20.949  -0.123  54.737  1.00  0.00    -0.002 A 
HETATM    4  C5  UNL     1      21.938  -0.952  54.475  1.00  0.00    -0.024 A 
HETATM    5  C6  UNL     1      22.898  -0.896  53.359  1.00  0.00     0.060 A 
HETATM    6  C7  UNL     1      22.726   0.236  52.413  1.00  0.00     0.165 A 
ENDROOT
BRANCH   6   7
HETATM    7  N3  UNL     1      23.987   0.868  52.225  1.00  0.00    -0.253 N 
HETATM    8  C8  UNL     1      25.056   0.275  52.950  1.00  0.00     0.223 A 
HETATM    9  N4  UNL     1      26.261   0.728  52.890  1.00  0.00    -0.277 NA
HETATM   10  C9  UNL     1      26.672   1.867  52.098  1.00  0.00     0.212 A 
HETATM   11  C10 UNL     1      25.493   2.415  51.382  1.00  0.00     0.086 A 
HETATM   12  N6  UNL     1      24.275   1.984  51.423  1.00  0.00    -0.173 NA
BRANCH  11  13
HETATM   13  C11 UNL     1      25.670   3.576  50.516  1.00  0.00     0.009 A 
HETATM   14  C12 UNL     1      26.746   3.722  49.691  1.00  0.00     0.016 A 
HETATM   15  C13 UNL     1      26.930   4.819  48.861  1.00  0.00     0.020 A 
HETATM   16  C14 UNL     1      25.941   5.793  48.906  1.00  0.00     0.116 A 
HETATM   17  N5  UNL     1      24.857   5.700  49.703  1.00  0.00    -0.272 NA
HETATM   18  C15 UNL     1      24.753   4.606  50.477  1.00  0.00     0.129 A 
ENDBRANCH  11  13
ENDBRANCH   6   7
BRANCH   1  19
HETATM   19  N2  UNL     1      21.328   2.251  51.935  1.00  0.00    -0.299 N 
HETATM   20  H5  UNL     1      21.566   2.161  50.906  1.00  0.00     0.183 HD
BRANCH  19  21
HETATM   21  N1  UNL     1      20.771   3.377  52.546  1.00  0.00    -0.112 NA
HETATM   22  C1  UNL     1      21.612   4.530  52.288  1.00  0.00     0.171 C 
BRANCH  21  23
HETATM   23  O1  UNL     1      19.526   3.663  52.117  1.00  0.00    -0.294 OA
HETATM   24  H4  UNL     1      18.969   2.828  52.195  1.00  0.00     0.239 HD
ENDBRANCH  21  23
ENDBRANCH  19  21
ENDBRANCH   1  19
TORSDOF 5
ENDMDL
MODEL 6
REMARK VINA RESULT:      -7.0      3.386      5.169
REMARK  5 active torsions:
REMARK  status: ('A' for Active; 'I' for Inactive)
REMARK    1  A    between atoms: N1_2  and  O1_3 
REMARK    2  A    between atoms: N1_2  and  N2_4 
REMARK    3  A    between atoms: N2_4  and  C2_5 
REMARK    4  A    between atoms: C7_10  and  N3_11 
REMARK    5  A    between atoms: C10_15  and  C11_16 
ROOT
HETATM    1  C2  UNL     1      25.104   5.198  50.644  1.00  0.00     0.048 A 
HETATM    2  C3  UNL     1      25.663   6.056  49.800  1.00  0.00     0.028 A 
HETATM    3  C4  UNL     1      26.679   5.635  48.843  1.00  0.00    -0.002 A 
HETATM    4  C5  UNL     1      26.994   4.357  48.878  1.00  0.00    -0.024 A 
HETATM    5  C6  UNL     1      26.448   3.311  49.761  1.00  0.00     0.060 A 
HETATM    6  C7  UNL     1      25.415   3.757  50.730  1.00  0.00     0.165 A 
ENDROOT
BRANCH   6   7
HETATM    7  N3  UNL     1      24.300   2.875  50.645  1.00  0.00    -0.253 N 
HETATM    8  C8  UNL     1      23.611   2.916  49.403  1.00  0.00     0.223 A 
HETATM    9  N4  UNL     1      22.581   2.180  49.165  1.00  0.00    -0.277 NA
HETATM   10  C9  UNL     1      22.008   1.241  50.104  1.00  0.00     0.212 A 
HETATM   11  C10 UNL     1      22.791   1.270  51.364  1.00  0.00     0.086 A 
HETATM   12  N6  UNL     1      23.827   1.996  51.633  1.00  0.00    -0.173 NA
BRANCH  11  13
HETATM   13  C11 UNL     1      22.393   0.397  52.464  1.00  0.00     0.009 A 
HETATM   14  C12 UNL     1      21.100   0.020  52.674  1.00  0.00     0.016 A 
HETATM   15  C13 UNL     1      20.703  -0.808  53.714  1.00  0.00     0.020 A 
HETATM   16  C14 UNL     1      21.711  -1.253  54.560  1.00  0.00     0.116 A 
HETATM   17  N5  UNL     1      23.005  -0.911  54.399  1.00  0.00    -0.272 NA
HETATM   18  C15 UNL     1      23.307  -0.105  53.368  1.00  0.00     0.129 A 
ENDBRANCH  11  13
ENDBRANCH   6   7
BRANCH   1  19
HETATM   19  N2  UNL     1      24.134   5.753  51.514  1.00  0.00    -0.299 N 
HETATM   20  H5  UNL     1      24.390   5.819  52.541  1.00  0.00     0.183 HD
BRANCH  19  21
HETATM   21  N1  UNL     1      22.924   6.166  50.950  1.00  0.00    -0.112 NA
HETATM   22  C1  UNL     1      21.839   5.386  51.514  1.00  0.00     0.171 C 
BRANCH  21  23
HETATM   23  O1  UNL     1      22.651   7.470  51.155  1.00  0.00    -0.294 OA
HETATM   24  H4  UNL     1      22.886   7.692  52.109  1.00  0.00     0.239 HD
ENDBRANCH  21  23
ENDBRANCH  19  21
ENDBRANCH   1  19
TORSDOF 5
ENDMDL
MODEL 7
REMARK VINA RESULT:      -6.8      2.392      4.925
REMARK  5 active torsions:
REMARK  status: ('A' for Active; 'I' for Inactive)
REMARK    1  A    between atoms: N1_2  and  O1_3 
REMARK    2  A    between atoms: N1_2  and  N2_4 
REMARK    3  A    between atoms: N2_4  and  C2_5 
REMARK    4  A    between atoms: C7_10  and  N3_11 
REMARK    5  A    between atoms: C10_15  and  C11_16 
ROOT
HETATM    1  C2  UNL     1      24.516   3.808  51.355  1.00  0.00     0.048 A 
HETATM    2  C3  UNL     1      24.349   4.347  50.154  1.00  0.00     0.028 A 
HETATM    3  C4  UNL     1      25.369   4.235  49.118  1.00  0.00    -0.002 A 
HETATM    4  C5  UNL     1      26.451   3.568  49.460  1.00  0.00    -0.024 A 
HETATM    5  C6  UNL     1      26.752   2.926  50.751  1.00  0.00     0.060 A 
HETATM    6  C7  UNL     1      25.703   3.049  51.795  1.00  0.00     0.165 A 
ENDROOT
BRANCH   6   7
HETATM    7  N3  UNL     1      25.450   1.759  52.340  1.00  0.00    -0.253 N 
HETATM    8  C8  UNL     1      26.610   0.960  52.528  1.00  0.00     0.223 A 
HETATM    9  N4  UNL     1      26.552  -0.232  53.011  1.00  0.00    -0.277 NA
HETATM   10  C9  UNL     1      25.332  -0.897  53.415  1.00  0.00     0.212 A 
HETATM   11  C10 UNL     1      24.181   0.011  53.182  1.00  0.00     0.086 A 
HETATM   12  N6  UNL     1      24.208   1.211  52.699  1.00  0.00    -0.173 NA
BRANCH  11  13
HETATM   13  C11 UNL     1      22.839  -0.450  53.518  1.00  0.00     0.009 A 
HETATM   14  C12 UNL     1      21.737  -0.105  52.791  1.00  0.00     0.016 A 
HETATM   15  C13 UNL     1      20.454  -0.533  53.096  1.00  0.00     0.020 A 
HETATM   16  C14 UNL     1      20.332  -1.355  54.209  1.00  0.00     0.116 A 
HETATM   17  N5  UNL     1      21.386  -1.728  54.963  1.00  0.00    -0.272 NA
HETATM   18  C15 UNL     1      22.595  -1.269  54.601  1.00  0.00     0.129 A 
ENDBRANCH  11  13
ENDBRANCH   6   7
BRANCH   1  19
HETATM   19  N2  UNL     1      23.439   3.999  52.256  1.00  0.00    -0.299 N 
HETATM   20  H5  UNL     1      23.606   3.729  53.268  1.00  0.00     0.183 HD
BRANCH  19  21
HETATM   21  N1  UNL     1      22.252   4.524  51.740  1.00  0.00    -0.112 NA
HETATM   22  C1  UNL     1      21.133   3.725  52.198  1.00  0.00     0.171 C 
BRANCH  21  23
HETATM   23  O1  UNL     1      22.027   5.803  52.100  1.00  0.00    -0.294 OA
HETATM   24  H4  UNL     1      21.040   5.911  52.270  1.00  0.00     0.239 HD
ENDBRANCH  21  23
ENDBRANCH  19  21
ENDBRANCH   1  19
TORSDOF 5
ENDMDL
MODEL 8
REMARK VINA RESULT:      -6.7      2.782      5.647
REMARK  5 active torsions:
REMARK  status: ('A' for Active; 'I' for Inactive)
REMARK    1  A    between atoms: N1_2  and  O1_3 
REMARK    2  A    between atoms: N1_2  and  N2_4 
REMARK    3  A    between atoms: N2_4  and  C2_5 
REMARK    4  A    between atoms: C7_10  and  N3_11 
REMARK    5  A    between atoms: C10_15  and  C11_16 
ROOT
HETATM    1  C2  UNL     1      24.318   3.799  51.539  1.00  0.00     0.048 A 
HETATM    2  C3  UNL     1      24.576   4.310  50.342  1.00  0.00     0.028 A 
HETATM    3  C4  UNL     1      25.713   3.860  49.547  1.00  0.00    -0.002 A 
HETATM    4  C5  UNL     1      26.452   2.920  50.100  1.00  0.00    -0.024 A 
HETATM    5  C6  UNL     1      26.270   2.276  51.412  1.00  0.00     0.060 A 
HETATM    6  C7  UNL     1      25.108   2.746  52.209  1.00  0.00     0.165 A 
ENDROOT
BRANCH   6   7
HETATM    7  N3  UNL     1      24.375   1.611  52.658  1.00  0.00    -0.253 N 
HETATM    8  C8  UNL     1      25.134   0.686  53.424  1.00  0.00     0.223 A 
HETATM    9  N4  UNL     1      24.619  -0.393  53.904  1.00  0.00    -0.277 NA
HETATM   10  C9  UNL     1      23.239  -0.792  53.733  1.00  0.00     0.212 A 
HETATM   11  C10 UNL     1      22.532   0.231  52.924  1.00  0.00     0.086 A 
HETATM   12  N6  UNL     1      23.020   1.322  52.429  1.00  0.00    -0.173 NA
BRANCH  11  13
HETATM   13  C11 UNL     1      21.118   0.039  52.621  1.00  0.00     0.009 A 
HETATM   14  C12 UNL     1      20.257  -0.574  53.483  1.00  0.00     0.016 A 
HETATM   15  C13 UNL     1      18.910  -0.766  53.212  1.00  0.00     0.020 A 
HETATM   16  C14 UNL     1      18.459  -0.293  51.987  1.00  0.00     0.116 A 
HETATM   17  N5  UNL     1      19.266   0.320  51.097  1.00  0.00    -0.272 NA
HETATM   18  C15 UNL     1      20.558   0.467  51.435  1.00  0.00     0.129 A 
ENDBRANCH  11  13
ENDBRANCH   6   7
BRANCH   1  19
HETATM   19  N2  UNL     1      23.181   4.336  52.192  1.00  0.00    -0.299 N 
HETATM   20  H5  UNL     1      23.129   4.216  53.244  1.00  0.00     0.183 HD
BRANCH  19  21
HETATM   21  N1  UNL     1      22.225   4.975  51.398  1.00  0.00    -0.112 NA
HETATM   22  C1  UNL     1      20.967   4.260  51.490  1.00  0.00     0.171 C 
BRANCH  21  23
HETATM   23  O1  UNL     1      22.002   6.257  51.749  1.00  0.00    -0.294 OA
HETATM   24  H4  UNL     1      21.621   6.738  50.950  1.00  0.00     0.239 HD
ENDBRANCH  21  23
ENDBRANCH  19  21
ENDBRANCH   1  19
TORSDOF 5
ENDMDL
MODEL 9
REMARK VINA RESULT:      -6.6      1.897      2.392
REMARK  5 active torsions:
REMARK  status: ('A' for Active; 'I' for Inactive)
REMARK    1  A    between atoms: N1_2  and  O1_3 
REMARK    2  A    between atoms: N1_2  and  N2_4 
REMARK    3  A    between atoms: N2_4  and  C2_5 
REMARK    4  A    between atoms: C7_10  and  N3_11 
REMARK    5  A    between atoms: C10_15  and  C11_16 
ROOT
HETATM    1  C2  UNL     1      21.769   2.141  52.025  1.00  0.00     0.048 A 
HETATM    2  C3  UNL     1      20.678   2.897  52.034  1.00  0.00     0.028 A 
HETATM    3  C4  UNL     1      19.343   2.311  52.072  1.00  0.00    -0.002 A 
HETATM    4  C5  UNL     1      19.304   0.995  52.097  1.00  0.00    -0.024 A 
HETATM    5  C6  UNL     1      20.436   0.053  52.092  1.00  0.00     0.060 A 
HETATM    6  C7  UNL     1      21.789   0.665  52.053  1.00  0.00     0.165 A 
ENDROOT
BRANCH   6   7
HETATM    7  N3  UNL     1      22.586   0.073  53.073  1.00  0.00    -0.253 N 
HETATM    8  C8  UNL     1      21.844  -0.529  54.125  1.00  0.00     0.223 A 
HETATM    9  N4  UNL     1      22.416  -1.107  55.124  1.00  0.00    -0.277 NA
HETATM   10  C9  UNL     1      23.848  -1.216  55.302  1.00  0.00     0.212 A 
HETATM   11  C10 UNL     1      24.532  -0.561  54.160  1.00  0.00     0.086 A 
HETATM   12  N6  UNL     1      23.988   0.027  53.145  1.00  0.00    -0.173 NA
BRANCH  11  13
HETATM   13  C11 UNL     1      25.991  -0.547  54.125  1.00  0.00     0.009 A 
HETATM   14  C12 UNL     1      26.740   0.250  54.939  1.00  0.00     0.016 A 
HETATM   15  C13 UNL     1      28.127   0.276  54.919  1.00  0.00     0.020 A 
HETATM   16  C14 UNL     1      28.742  -0.571  54.007  1.00  0.00     0.116 A 
HETATM   17  N5  UNL     1      28.051  -1.380  53.178  1.00  0.00    -0.272 NA
HETATM   18  C15 UNL     1      26.710  -1.345  53.259  1.00  0.00     0.129 A 
ENDBRANCH  11  13
ENDBRANCH   6   7
BRANCH   1  19
HETATM   19  N2  UNL     1      22.994   2.852  51.987  1.00  0.00    -0.299 N 
HETATM   20  H5  UNL     1      23.533   2.930  52.897  1.00  0.00     0.183 HD
BRANCH  19  21
HETATM   21  N1  UNL     1      23.389   3.391  50.760  1.00  0.00    -0.112 NA
HETATM   22  C1  UNL     1      24.768   3.829  50.847  1.00  0.00     0.171 C 
BRANCH  21  23
HETATM   23  O1  UNL     1      23.291   2.522  49.733  1.00  0.00    -0.294 OA
HETATM   24  H4  UNL     1      22.318   2.290  49.611  1.00  0.00     0.239 HD
ENDBRANCH  21  23
ENDBRANCH  19  21
ENDBRANCH   1  19
TORSDOF 5
ENDMDL
