MODEL 1
REMARK VINA RESULT:      -9.9      0.000      0.000
REMARK  1 active torsions:
REMARK  status: ('A' for Active; 'I' for Inactive)
REMARK    1  A    between atoms: N3_7  and  C5_8 
ROOT
HETATM    1  C5  UNL     1      26.233  -0.347  52.873  1.00  0.00     0.059 A 
HETATM    2  C6  UNL     1      26.749  -1.577  52.585  1.00  0.00     0.034 A 
HETATM    3  C7  UNL     1      28.059  -1.782  52.926  1.00  0.00     0.046 A 
HETATM    4  C8  UNL     1      28.844  -0.823  53.528  1.00  0.00     0.137 A 
HETATM    5  F1  UNL     1      30.139  -1.079  53.852  1.00  0.00    -0.204 F 
HETATM    6  C9  UNL     1      28.337   0.427  53.827  1.00  0.00     0.085 A 
HETATM    7  C10 UNL     1      29.101   1.488  54.448  1.00  0.00     0.102 C 
HETATM    8  N4  UNL     1      29.718   2.321  54.953  1.00  0.00    -0.191 NA
HETATM    9  C11 UNL     1      26.995   0.600  53.465  1.00  0.00     0.057 A 
ENDROOT
BRANCH   1  10
HETATM   10  N3  UNL     1      24.951   0.163  52.626  1.00  0.00    -0.246 N 
HETATM   11  N2  UNL     1      23.590   0.178  52.609  1.00  0.00    -0.177 N 
HETATM   12  C4  UNL     1      22.792  -0.685  53.084  1.00  0.00     0.254 A 
HETATM   13  N1  UNL     1      22.110   0.362  52.498  1.00  0.00    -0.240 N 
HETATM   14  C3  UNL     1      20.874   0.453  52.243  1.00  0.00     0.106 C 
HETATM   15  C2  UNL     1      20.835   1.876  51.598  1.00  0.00     0.076 C 
HETATM   16  C1  UNL     1      20.244   2.787  52.651  1.00  0.00     0.026 C 
HETATM   17  S2  UNL     1      22.538   2.333  51.160  1.00  0.00    -0.189 SA
HETATM   18  C20 UNL     1      22.966   3.006  49.774  1.00  0.00    -0.002 A 
HETATM   19  H21 UNL     1      23.260   2.982  52.296  1.00  0.00     0.096 HD
HETATM   20  O2  UNL     1      21.562   2.833  49.731  1.00  0.00     0.000 OA
HETATM   21  C14 UNL     1      24.510   3.197  49.821  1.00  0.00     0.115 C 
HETATM   22  C13 UNL     1      24.805   2.264  50.991  1.00  0.00     0.013 C 
HETATM   23  S1  UNL     1      24.968   4.831  50.457  1.00  0.00    -0.128 SA
HETATM   24  C12 UNL     1      25.099   1.486  52.058  1.00  0.00     0.116 C 
HETATM   25  C15 UNL     1      23.633   5.413  51.538  1.00  0.00     0.044 C 
HETATM   26  C16 UNL     1      22.912   6.175  50.665  1.00  0.00     0.006 C 
HETATM   27  C17 UNL     1      21.639   7.022  50.617  1.00  0.00     0.195 C 
HETATM   28  O1  UNL     1      20.857   6.333  49.553  1.00  0.00    -0.387 OA
HETATM   29  C18 UNL     1      21.236   5.056  49.791  1.00  0.00     0.168 C 
HETATM   30  C19 UNL     1      20.763   3.867  49.036  1.00  0.00     0.028 C 
ENDBRANCH   1  10
TORSDOF 1
ENDMDL
MODEL 2
REMARK VINA RESULT:      -9.6      2.217      4.098
REMARK  1 active torsions:
REMARK  status: ('A' for Active; 'I' for Inactive)
REMARK    1  A    between atoms: N3_7  and  C5_8 
ROOT
HETATM    1  C5  UNL     1      27.269   1.748  52.490  1.00  0.00     0.059 A 
HETATM    2  C6  UNL     1      28.173   2.363  53.309  1.00  0.00     0.034 A 
HETATM    3  C7  UNL     1      29.029   1.543  53.993  1.00  0.00     0.046 A 
HETATM    4  C8  UNL     1      29.011   0.170  53.887  1.00  0.00     0.137 A 
HETATM    5  F1  UNL     1      29.888  -0.600  54.584  1.00  0.00    -0.204 F 
HETATM    6  C9  UNL     1      28.104  -0.469  53.062  1.00  0.00     0.085 A 
HETATM    7  C10 UNL     1      28.016  -1.904  52.906  1.00  0.00     0.102 C 
HETATM    8  N4  UNL     1      27.964  -3.050  52.782  1.00  0.00    -0.191 NA
HETATM    9  C11 UNL     1      27.245   0.401  52.378  1.00  0.00     0.057 A 
ENDROOT
BRANCH   1  10
HETATM   10  N3  UNL     1      26.263   2.309  51.692  1.00  0.00    -0.246 N 
HETATM   11  N2  UNL     1      25.725   3.112  50.733  1.00  0.00    -0.177 N 
HETATM   12  C4  UNL     1      26.330   3.885  49.931  1.00  0.00     0.254 A 
HETATM   13  N1  UNL     1      24.964   3.925  49.736  1.00  0.00    -0.240 N 
HETATM   14  C3  UNL     1      24.293   4.726  49.022  1.00  0.00     0.106 C 
HETATM   15  C2  UNL     1      22.852   4.179  49.283  1.00  0.00     0.076 C 
HETATM   16  C1  UNL     1      22.468   3.422  48.032  1.00  0.00     0.026 C 
HETATM   17  S2  UNL     1      22.923   3.108  50.750  1.00  0.00    -0.189 SA
HETATM   18  C20 UNL     1      21.857   3.133  51.940  1.00  0.00    -0.002 A 
HETATM   19  H21 UNL     1      23.282   1.699  50.404  1.00  0.00     0.096 HD
HETATM   20  O2  UNL     1      21.433   4.091  50.990  1.00  0.00     0.000 OA
HETATM   21  C14 UNL     1      22.321   2.078  52.986  1.00  0.00     0.115 C 
HETATM   22  C13 UNL     1      23.752   1.899  52.488  1.00  0.00     0.013 C 
HETATM   23  S1  UNL     1      21.566   0.457  52.690  1.00  0.00    -0.128 SA
HETATM   24  C12 UNL     1      25.010   1.676  52.044  1.00  0.00     0.116 C 
HETATM   25  C15 UNL     1      21.165   0.332  50.925  1.00  0.00     0.044 C 
HETATM   26  C16 UNL     1      19.856   0.719  50.933  1.00  0.00     0.006 C 
HETATM   27  C17 UNL     1      18.696   0.962  49.965  1.00  0.00     0.195 C 
HETATM   28  O1  UNL     1      18.383   2.394  50.222  1.00  0.00    -0.387 OA
HETATM   29  C18 UNL     1      19.630   2.854  50.469  1.00  0.00     0.168 C 
HETATM   30  C19 UNL     1      19.977   4.263  50.788  1.00  0.00     0.028 C 
ENDBRANCH   1  10
TORSDOF 1
ENDMDL
MODEL 3
REMARK VINA RESULT:      -9.4      1.404      1.962
REMARK  1 active torsions:
REMARK  status: ('A' for Active; 'I' for Inactive)
REMARK    1  A    between atoms: N3_7  and  C5_8 
ROOT
HETATM    1  C5  UNL     1      26.550   1.073  52.927  1.00  0.00     0.059 A 
HETATM    2  C6  UNL     1      27.410   2.109  53.155  1.00  0.00     0.034 A 
HETATM    3  C7  UNL     1      28.704   1.771  53.451  1.00  0.00     0.046 A 
HETATM    4  C8  UNL     1      29.150   0.470  53.523  1.00  0.00     0.137 A 
HETATM    5  F1  UNL     1      30.447   0.188  53.815  1.00  0.00    -0.204 F 
HETATM    6  C9  UNL     1      28.293  -0.590  53.295  1.00  0.00     0.085 A 
HETATM    7  C10 UNL     1      28.683  -1.982  53.363  1.00  0.00     0.102 C 
HETATM    8  N4  UNL     1      29.010  -3.087  53.410  1.00  0.00    -0.191 NA
HETATM    9  C11 UNL     1      26.979  -0.207  52.995  1.00  0.00     0.057 A 
ENDROOT
BRANCH   1  10
HETATM   10  N3  UNL     1      25.181   1.100  52.631  1.00  0.00    -0.246 N 
HETATM   11  N2  UNL     1      23.884   0.687  52.660  1.00  0.00    -0.177 N 
HETATM   12  C4  UNL     1      23.383  -0.272  53.322  1.00  0.00     0.254 A 
HETATM   13  N1  UNL     1      22.425   0.376  52.569  1.00  0.00    -0.240 N 
HETATM   14  C3  UNL     1      21.229   0.026  52.345  1.00  0.00     0.106 C 
HETATM   15  C2  UNL     1      20.765   1.211  51.438  1.00  0.00     0.076 C 
HETATM   16  C1  UNL     1      19.891   2.080  52.315  1.00  0.00     0.026 C 
HETATM   17  S2  UNL     1      22.252   2.081  50.860  1.00  0.00    -0.189 SA
HETATM   18  C20 UNL     1      22.486   2.570  49.355  1.00  0.00    -0.002 A 
HETATM   19  H21 UNL     1      22.704   3.131  51.822  1.00  0.00     0.096 HD
HETATM   20  O2  UNL     1      21.208   1.964  49.396  1.00  0.00     0.000 OA
HETATM   21  C14 UNL     1      23.891   3.237  49.310  1.00  0.00     0.115 C 
HETATM   22  C13 UNL     1      24.430   2.689  50.627  1.00  0.00     0.013 C 
HETATM   23  S1  UNL     1      23.799   5.024  49.601  1.00  0.00    -0.128 SA
HETATM   24  C12 UNL     1      24.923   2.266  51.813  1.00  0.00     0.116 C 
HETATM   25  C15 UNL     1      22.320   5.361  50.595  1.00  0.00     0.044 C 
HETATM   26  C16 UNL     1      21.421   5.675  49.617  1.00  0.00     0.006 C 
HETATM   27  C17 UNL     1      19.949   6.056  49.451  1.00  0.00     0.195 C 
HETATM   28  O1  UNL     1      19.451   4.965  48.570  1.00  0.00    -0.387 OA
HETATM   29  C18 UNL     1      20.202   3.942  49.037  1.00  0.00     0.168 C 
HETATM   30  C19 UNL     1      20.146   2.542  48.543  1.00  0.00     0.028 C 
ENDBRANCH   1  10
TORSDOF 1
ENDMDL
MODEL 4
REMARK VINA RESULT:      -9.3      2.206      3.858
REMARK  1 active torsions:
REMARK  status: ('A' for Active; 'I' for Inactive)
REMARK    1  A    between atoms: N3_7  and  C5_8 
ROOT
HETATM    1  C5  UNL     1      26.592   1.606  51.807  1.00  0.00     0.059 A 
HETATM    2  C6  UNL     1      26.376   0.261  51.711  1.00  0.00     0.034 A 
HETATM    3  C7  UNL     1      27.107  -0.534  52.552  1.00  0.00     0.046 A 
HETATM    4  C8  UNL     1      28.018  -0.041  53.459  1.00  0.00     0.137 A 
HETATM    5  F1  UNL     1      28.715  -0.873  54.278  1.00  0.00    -0.204 F 
HETATM    6  C9  UNL     1      28.249   1.317  53.571  1.00  0.00     0.085 A 
HETATM    7  C10 UNL     1      29.196   1.910  54.490  1.00  0.00     0.102 C 
HETATM    8  N4  UNL     1      29.947   2.370  55.235  1.00  0.00    -0.191 NA
HETATM    9  C11 UNL     1      27.484   2.100  52.695  1.00  0.00     0.057 A 
ENDROOT
BRANCH   1  10
HETATM   10  N3  UNL     1      26.022   2.655  51.074  1.00  0.00    -0.246 N 
HETATM   11  N2  UNL     1      25.982   3.688  50.187  1.00  0.00    -0.177 N 
HETATM   12  C4  UNL     1      26.911   4.107  49.432  1.00  0.00     0.254 A 
HETATM   13  N1  UNL     1      25.756   4.845  49.268  1.00  0.00    -0.240 N 
HETATM   14  C3  UNL     1      25.596   5.925  48.629  1.00  0.00     0.106 C 
HETATM   15  C2  UNL     1      24.071   6.164  48.879  1.00  0.00     0.076 C 
HETATM   16  C1  UNL     1      23.381   5.799  47.584  1.00  0.00     0.026 C 
HETATM   17  S2  UNL     1      23.563   5.099  50.261  1.00  0.00    -0.189 SA
HETATM   18  C20 UNL     1      22.632   5.571  51.472  1.00  0.00    -0.002 A 
HETATM   19  H21 UNL     1      23.168   3.732  49.806  1.00  0.00     0.096 HD
HETATM   20  O2  UNL     1      22.769   6.679  50.603  1.00  0.00     0.000 OA
HETATM   21  C14 UNL     1      22.480   4.353  52.427  1.00  0.00     0.115 C 
HETATM   22  C13 UNL     1      23.633   3.513  51.889  1.00  0.00     0.013 C 
HETATM   23  S1  UNL     1      21.014   3.362  52.029  1.00  0.00    -0.128 SA
HETATM   24  C12 UNL     1      24.614   2.718  51.404  1.00  0.00     0.116 C 
HETATM   25  C15 UNL     1      20.640   3.587  50.269  1.00  0.00     0.044 C 
HETATM   26  C16 UNL     1      19.706   4.581  50.331  1.00  0.00     0.006 C 
HETATM   27  C17 UNL     1      18.847   5.447  49.408  1.00  0.00     0.195 C 
HETATM   28  O1  UNL     1      19.295   6.818  49.776  1.00  0.00    -0.387 OA
HETATM   29  C18 UNL     1      20.599   6.565  50.030  1.00  0.00     0.168 C 
HETATM   30  C19 UNL     1      21.604   7.578  50.445  1.00  0.00     0.028 C 
ENDBRANCH   1  10
TORSDOF 1
ENDMDL
MODEL 5
REMARK VINA RESULT:      -9.2      1.304      1.881
REMARK  1 active torsions:
REMARK  status: ('A' for Active; 'I' for Inactive)
REMARK    1  A    between atoms: N3_7  and  C5_8 
ROOT
HETATM    1  C5  UNL     1      26.828   1.173  52.960  1.00  0.00     0.059 A 
HETATM    2  C6  UNL     1      27.814   2.050  53.309  1.00  0.00     0.034 A 
HETATM    3  C7  UNL     1      29.037   1.506  53.597  1.00  0.00     0.046 A 
HETATM    4  C8  UNL     1      29.295   0.154  53.549  1.00  0.00     0.137 A 
HETATM    5  F1  UNL     1      30.530  -0.336  53.840  1.00  0.00    -0.204 F 
HETATM    6  C9  UNL     1      28.309  -0.748  53.198  1.00  0.00     0.085 A 
HETATM    7  C10 UNL     1      28.499  -2.181  53.136  1.00  0.00     0.102 C 
HETATM    8  N4  UNL     1      28.668  -3.320  53.079  1.00  0.00    -0.191 NA
HETATM    9  C11 UNL     1      27.072  -0.156  52.909  1.00  0.00     0.057 A 
ENDROOT
BRANCH   1  10
HETATM   10  N3  UNL     1      25.487   1.421  52.639  1.00  0.00    -0.246 N 
HETATM   11  N2  UNL     1      24.146   1.186  52.583  1.00  0.00    -0.177 N 
HETATM   12  C4  UNL     1      23.498   0.227  53.101  1.00  0.00     0.254 A 
HETATM   13  N1  UNL     1      22.664   1.089  52.418  1.00  0.00    -0.240 N 
HETATM   14  C3  UNL     1      21.443   0.934  52.122  1.00  0.00     0.106 C 
HETATM   15  C2  UNL     1      21.175   2.278  51.369  1.00  0.00     0.076 C 
HETATM   16  C1  UNL     1      20.387   3.138  52.332  1.00  0.00     0.026 C 
HETATM   17  S2  UNL     1      22.785   3.006  50.945  1.00  0.00    -0.189 SA
HETATM   18  C20 UNL     1      23.141   3.646  49.524  1.00  0.00    -0.002 A 
HETATM   19  H21 UNL     1      23.331   3.854  52.047  1.00  0.00     0.096 HD
HETATM   20  O2  UNL     1      21.795   3.218  49.455  1.00  0.00     0.000 OA
HETATM   21  C14 UNL     1      24.622   4.118  49.599  1.00  0.00     0.115 C 
HETATM   22  C13 UNL     1      25.032   3.340  50.845  1.00  0.00     0.013 C 
HETATM   23  S1  UNL     1      24.752   5.850  50.121  1.00  0.00    -0.128 SA
HETATM   24  C12 UNL     1      25.417   2.706  51.976  1.00  0.00     0.116 C 
HETATM   25  C15 UNL     1      23.291   6.253  51.116  1.00  0.00     0.044 C 
HETATM   26  C16 UNL     1      22.481   6.808  50.167  1.00  0.00     0.006 C 
HETATM   27  C17 UNL     1      21.080   7.402  50.020  1.00  0.00     0.195 C 
HETATM   28  O1  UNL     1      20.480   6.509  48.991  1.00  0.00    -0.387 OA
HETATM   29  C18 UNL     1      21.071   5.343  49.336  1.00  0.00     0.168 C 
HETATM   30  C19 UNL     1      20.852   4.038  48.661  1.00  0.00     0.028 C 
ENDBRANCH   1  10
TORSDOF 1
ENDMDL
MODEL 6
REMARK VINA RESULT:      -9.0      4.153      6.539
REMARK  1 active torsions:
REMARK  status: ('A' for Active; 'I' for Inactive)
REMARK    1  A    between atoms: N3_7  and  C5_8 
ROOT
HETATM    1  C5  UNL     1      25.511   6.367  48.801  1.00  0.00     0.059 A 
HETATM    2  C6  UNL     1      25.475   7.728  48.893  1.00  0.00     0.034 A 
HETATM    3  C7  UNL     1      26.670   8.380  48.751  1.00  0.00     0.046 A 
HETATM    4  C8  UNL     1      27.865   7.732  48.528  1.00  0.00     0.137 A 
HETATM    5  F1  UNL     1      29.025   8.426  48.388  1.00  0.00    -0.204 F 
HETATM    6  C9  UNL     1      27.920   6.354  48.432  1.00  0.00     0.085 A 
HETATM    7  C10 UNL     1      29.136   5.601  48.210  1.00  0.00     0.102 C 
HETATM    8  N4  UNL     1      30.110   5.014  48.022  1.00  0.00    -0.191 NA
HETATM    9  C11 UNL     1      26.679   5.721  48.581  1.00  0.00     0.057 A 
ENDROOT
BRANCH   1  10
HETATM   10  N3  UNL     1      24.471   5.436  48.927  1.00  0.00    -0.246 N 
HETATM   11  N2  UNL     1      23.329   4.778  48.584  1.00  0.00    -0.177 N 
HETATM   12  C4  UNL     1      22.635   4.914  47.533  1.00  0.00     0.254 A 
HETATM   13  N1  UNL     1      22.094   3.963  48.375  1.00  0.00    -0.240 N 
HETATM   14  C3  UNL     1      20.968   3.391  48.298  1.00  0.00     0.106 C 
HETATM   15  C2  UNL     1      21.045   2.470  49.558  1.00  0.00     0.076 C 
HETATM   16  C1  UNL     1      21.305   1.076  49.031  1.00  0.00     0.026 C 
HETATM   17  S2  UNL     1      22.397   3.080  50.608  1.00  0.00    -0.189 SA
HETATM   18  C20 UNL     1      22.303   3.251  52.195  1.00  0.00    -0.002 A 
HETATM   19  H21 UNL     1      23.718   2.494  50.227  1.00  0.00     0.096 HD
HETATM   20  O2  UNL     1      21.060   2.732  51.763  1.00  0.00     0.000 OA
HETATM   21  C14 UNL     1      23.671   3.820  52.670  1.00  0.00     0.115 C 
HETATM   22  C13 UNL     1      24.194   4.281  51.314  1.00  0.00     0.013 C 
HETATM   23  S1  UNL     1      24.823   2.502  53.141  1.00  0.00    -0.128 SA
HETATM   24  C12 UNL     1      24.712   4.655  50.122  1.00  0.00     0.116 C 
HETATM   25  C15 UNL     1      24.379   1.005  52.220  1.00  0.00     0.044 C 
HETATM   26  C16 UNL     1      23.589   0.368  53.133  1.00  0.00     0.006 C 
HETATM   27  C17 UNL     1      22.747  -0.900  53.277  1.00  0.00     0.195 C 
HETATM   28  O1  UNL     1      21.398  -0.337  53.563  1.00  0.00    -0.387 OA
HETATM   29  C18 UNL     1      21.457   0.777  52.799  1.00  0.00     0.168 C 
HETATM   30  C19 UNL     1      20.366   1.776  52.655  1.00  0.00     0.028 C 
ENDBRANCH   1  10
TORSDOF 1
ENDMDL
MODEL 7
REMARK VINA RESULT:      -8.9      7.927      9.173
REMARK  1 active torsions:
REMARK  status: ('A' for Active; 'I' for Inactive)
REMARK    1  A    between atoms: N3_7  and  C5_8 
ROOT
HETATM    1  C5  UNL     1      31.584   4.731  47.558  1.00  0.00     0.059 A 
HETATM    2  C6  UNL     1      31.715   3.606  46.796  1.00  0.00     0.034 A 
HETATM    3  C7  UNL     1      32.976   3.084  46.696  1.00  0.00     0.046 A 
HETATM    4  C8  UNL     1      34.076   3.635  47.314  1.00  0.00     0.137 A 
HETATM    5  F1  UNL     1      35.308   3.074  47.187  1.00  0.00    -0.204 F 
HETATM    6  C9  UNL     1      33.961   4.774  48.089  1.00  0.00     0.085 A 
HETATM    7  C10 UNL     1      35.070   5.417  48.760  1.00  0.00     0.102 C 
HETATM    8  N4  UNL     1      35.961   5.914  49.298  1.00  0.00    -0.191 NA
HETATM    9  C11 UNL     1      32.658   5.280  48.170  1.00  0.00     0.057 A 
ENDROOT
BRANCH   1  10
HETATM   10  N3  UNL     1      30.442   5.499  47.825  1.00  0.00    -0.246 N 
HETATM   11  N2  UNL     1      29.144   5.742  48.154  1.00  0.00    -0.177 N 
HETATM   12  C4  UNL     1      28.253   4.906  48.493  1.00  0.00     0.254 A 
HETATM   13  N1  UNL     1      27.758   6.194  48.485  1.00  0.00    -0.240 N 
HETATM   14  C3  UNL     1      26.556   6.576  48.593  1.00  0.00     0.106 C 
HETATM   15  C2  UNL     1      26.756   8.124  48.498  1.00  0.00     0.076 C 
HETATM   16  C1  UNL     1      26.595   8.645  49.909  1.00  0.00     0.026 C 
HETATM   17  S2  UNL     1      28.418   8.428  47.830  1.00  0.00    -0.189 SA
HETATM   18  C20 UNL     1      28.752   9.501  46.693  1.00  0.00    -0.002 A 
HETATM   19  H21 UNL     1      29.460   8.465  48.900  1.00  0.00     0.096 HD
HETATM   20  O2  UNL     1      27.363   9.591  46.946  1.00  0.00     0.000 OA
HETATM   21  C14 UNL     1      30.280   9.404  46.415  1.00  0.00     0.115 C 
HETATM   22  C13 UNL     1      30.535   8.059  47.088  1.00  0.00     0.013 C 
HETATM   23  S1  UNL     1      31.226  10.571  47.430  1.00  0.00    -0.128 SA
HETATM   24  C12 UNL     1      30.809   6.895  47.720  1.00  0.00     0.116 C 
HETATM   25  C15 UNL     1      30.280  10.904  48.941  1.00  0.00     0.044 C 
HETATM   26  C16 UNL     1      29.628  12.050  48.586  1.00  0.00     0.006 C 
HETATM   27  C17 UNL     1      28.611  13.046  49.146  1.00  0.00     0.195 C 
HETATM   28  O1  UNL     1      27.515  12.955  48.143  1.00  0.00    -0.387 OA
HETATM   29  C18 UNL     1      27.605  11.642  47.833  1.00  0.00     0.168 C 
HETATM   30  C19 UNL     1      26.734  10.928  46.864  1.00  0.00     0.028 C 
ENDBRANCH   1  10
TORSDOF 1
ENDMDL
MODEL 8
REMARK VINA RESULT:      -8.7      2.907      4.177
REMARK  1 active torsions:
REMARK  status: ('A' for Active; 'I' for Inactive)
REMARK    1  A    between atoms: N3_7  and  C5_8 
ROOT
HETATM    1  C5  UNL     1      23.852   1.091  51.877  1.00  0.00     0.059 A 
HETATM    2  C6  UNL     1      25.189   1.052  52.152  1.00  0.00     0.034 A 
HETATM    3  C7  UNL     1      25.570   0.264  53.205  1.00  0.00     0.046 A 
HETATM    4  C8  UNL     1      24.684  -0.463  53.968  1.00  0.00     0.137 A 
HETATM    5  F1  UNL     1      25.115  -1.235  55.000  1.00  0.00    -0.204 F 
HETATM    6  C9  UNL     1      23.328  -0.435  53.703  1.00  0.00     0.085 A 
HETATM    7  C10 UNL     1      22.335  -1.161  54.465  1.00  0.00     0.102 C 
HETATM    8  N4  UNL     1      21.554  -1.754  55.073  1.00  0.00    -0.191 NA
HETATM    9  C11 UNL     1      22.974   0.380  52.620  1.00  0.00     0.057 A 
ENDROOT
BRANCH   1  10
HETATM   10  N3  UNL     1      23.165   1.814  50.893  1.00  0.00    -0.246 N 
HETATM   11  N2  UNL     1      22.308   2.016  49.855  1.00  0.00    -0.177 N 
HETATM   12  C4  UNL     1      21.535   1.175  49.304  1.00  0.00     0.254 A 
HETATM   13  N1  UNL     1      21.427   2.419  48.716  1.00  0.00    -0.240 N 
HETATM   14  C3  UNL     1      20.822   2.737  47.651  1.00  0.00     0.106 C 
HETATM   15  C2  UNL     1      21.126   4.270  47.616  1.00  0.00     0.076 C 
HETATM   16  C1  UNL     1      19.843   4.952  48.037  1.00  0.00     0.026 C 
HETATM   17  S2  UNL     1      22.494   4.591  48.767  1.00  0.00    -0.189 SA
HETATM   18  C20 UNL     1      23.746   5.532  48.445  1.00  0.00    -0.002 A 
HETATM   19  H21 UNL     1      22.016   4.825  50.163  1.00  0.00     0.096 HD
HETATM   20  O2  UNL     1      22.902   5.567  47.309  1.00  0.00     0.000 OA
HETATM   21  C14 UNL     1      24.673   5.495  49.694  1.00  0.00     0.115 C 
HETATM   22  C13 UNL     1      24.077   4.263  50.367  1.00  0.00     0.013 C 
HETATM   23  S1  UNL     1      24.295   6.835  50.855  1.00  0.00    -0.128 SA
HETATM   24  C12 UNL     1      23.540   3.206  51.019  1.00  0.00     0.116 C 
HETATM   25  C15 UNL     1      22.554   7.296  50.641  1.00  0.00     0.044 C 
HETATM   26  C16 UNL     1      22.671   8.346  49.776  1.00  0.00     0.006 C 
HETATM   27  C17 UNL     1      21.799   9.339  49.007  1.00  0.00     0.195 C 
HETATM   28  O1  UNL     1      22.189   9.057  47.599  1.00  0.00    -0.387 OA
HETATM   29  C18 UNL     1      22.395   7.723  47.688  1.00  0.00     0.168 C 
HETATM   30  C19 UNL     1      22.804   6.842  46.564  1.00  0.00     0.028 C 
ENDBRANCH   1  10
TORSDOF 1
ENDMDL
MODEL 9
REMARK VINA RESULT:      -8.7      2.325      4.437
REMARK  1 active torsions:
REMARK  status: ('A' for Active; 'I' for Inactive)
REMARK    1  A    between atoms: N3_7  and  C5_8 
ROOT
HETATM    1  C5  UNL     1      26.058   1.693  52.244  1.00  0.00     0.059 A 
HETATM    2  C6  UNL     1      26.923   2.480  52.949  1.00  0.00     0.034 A 
HETATM    3  C7  UNL     1      27.961   1.838  53.569  1.00  0.00     0.046 A 
HETATM    4  C8  UNL     1      28.155   0.476  53.508  1.00  0.00     0.137 A 
HETATM    5  F1  UNL     1      29.206  -0.113  54.138  1.00  0.00    -0.204 F 
HETATM    6  C9  UNL     1      27.290  -0.335  52.799  1.00  0.00     0.085 A 
HETATM    7  C10 UNL     1      27.420  -1.773  52.698  1.00  0.00     0.102 C 
HETATM    8  N4  UNL     1      27.542  -2.917  52.616  1.00  0.00    -0.191 NA
HETATM    9  C11 UNL     1      26.241   0.355  52.177  1.00  0.00     0.057 A 
ENDROOT
BRANCH   1  10
HETATM   10  N3  UNL     1      24.904   2.050  51.534  1.00  0.00    -0.246 N 
HETATM   11  N2  UNL     1      24.168   2.649  50.558  1.00  0.00    -0.177 N 
HETATM   12  C4  UNL     1      24.584   3.320  49.565  1.00  0.00     0.254 A 
HETATM   13  N1  UNL     1      23.206   3.238  49.577  1.00  0.00    -0.240 N 
HETATM   14  C3  UNL     1      22.373   3.868  48.861  1.00  0.00     0.106 C 
HETATM   15  C2  UNL     1      21.037   3.279  49.419  1.00  0.00     0.076 C 
HETATM   16  C1  UNL     1      20.549   2.305  48.370  1.00  0.00     0.026 C 
HETATM   17  S2  UNL     1      21.408   2.467  51.002  1.00  0.00    -0.189 SA
HETATM   18  C20 UNL     1      20.521   2.616  52.324  1.00  0.00    -0.002 A 
HETATM   19  H21 UNL     1      21.837   1.047  50.823  1.00  0.00     0.096 HD
HETATM   20  O2  UNL     1      19.886   3.378  51.316  1.00  0.00     0.000 OA
HETATM   21  C14 UNL     1      21.219   1.778  53.434  1.00  0.00     0.115 C 
HETATM   22  C13 UNL     1      22.576   1.614  52.757  1.00  0.00     0.013 C 
HETATM   23  S1  UNL     1      20.575   0.085  53.506  1.00  0.00    -0.128 SA
HETATM   24  C12 UNL     1      23.774   1.403  52.165  1.00  0.00     0.116 C 
HETATM   25  C15 UNL     1      19.943  -0.351  51.863  1.00  0.00     0.044 C 
HETATM   26  C16 UNL     1      18.619  -0.054  52.012  1.00  0.00     0.006 C 
HETATM   27  C17 UNL     1      17.318  -0.047  51.207  1.00  0.00     0.195 C 
HETATM   28  O1  UNL     1      16.919   1.385  51.289  1.00  0.00    -0.387 OA
HETATM   29  C18 UNL     1      18.144   1.958  51.269  1.00  0.00     0.168 C 
HETATM   30  C19 UNL     1      18.406   3.420  51.315  1.00  0.00     0.028 C 
ENDBRANCH   1  10
TORSDOF 1
ENDMDL
