MODEL 1
REMARK VINA RESULT:      -8.5      0.000      0.000
REMARK  4 active torsions:
REMARK  status: ('A' for Active; 'I' for Inactive)
REMARK    1  A    between atoms: C9_11  and  N2_12 
REMARK    2  A    between atoms: C11_15  and  O2_16 
REMARK    3  A    between atoms: O2_16  and  C12_17 
REMARK    4  A    between atoms: C12_17  and  C13_18 
ROOT
HETATM    1  N2  UNL     1      25.257   2.561  51.652  1.00  0.00    -0.297 N 
HETATM    2  C10 UNL     1      25.362   2.493  50.341  1.00  0.00     0.216 A 
HETATM    3  N3  UNL     1      24.582   3.267  49.602  1.00  0.00    -0.218 NA
HETATM    4  C11 UNL     1      23.684   4.129  50.062  1.00  0.00     0.193 A 
HETATM    5  C19 UNL     1      23.541   4.235  51.438  1.00  0.00     0.154 A 
HETATM    6 CL1  UNL     1      22.344   5.389  51.994  1.00  0.00    -0.074 Cl
HETATM    7  C20 UNL     1      24.351   3.428  52.198  1.00  0.00     0.275 A 
HETATM    8  O3  UNL     1      24.069   3.670  53.422  1.00  0.00    -0.266 OA
ENDROOT
BRANCH   1   9
HETATM    9  C9  UNL     1      25.966   1.742  52.625  1.00  0.00     0.053 C 
HETATM   10  C2  UNL     1      25.287   0.485  53.047  1.00  0.00    -0.038 C 
HETATM   11  C1  UNL     1      23.892   0.039  52.793  1.00  0.00     0.048 C 
HETATM   12  C3  UNL     1      25.788  -0.346  53.908  1.00  0.00     0.139 C 
HETATM   13  O1  UNL     1      27.126  -0.150  54.309  1.00  0.00    -0.361 OA
HETATM   14  C4  UNL     1      28.006  -0.975  53.526  1.00  0.00     0.193 C 
HETATM   15  C5  UNL     1      29.418  -0.725  53.794  1.00  0.00     0.140 C 
HETATM   16  N1  UNL     1      29.914   0.549  53.515  1.00  0.00    -0.419 N 
HETATM   17  C6  UNL     1      29.490   1.686  54.207  1.00  0.00     0.114 C 
HETATM   18  H9  UNL     1      30.896   0.548  53.227  1.00  0.00     0.153 HD
HETATM   19  C7  UNL     1      28.256   2.415  53.790  1.00  0.00     0.027 C 
HETATM   20  C8  UNL     1      27.060   1.725  53.434  1.00  0.00     0.095 C 
ENDBRANCH   1   9
BRANCH   4  21
HETATM   21  O2  UNL     1      22.925   4.889  49.206  1.00  0.00    -0.328 OA
BRANCH  21  22
HETATM   22  C12 UNL     1      23.428   5.797  48.250  1.00  0.00     0.219 C 
BRANCH  22  23
HETATM   23  C13 UNL     1      24.583   6.558  48.778  1.00  0.00     0.005 A 
HETATM   24  C14 UNL     1      25.939   6.426  48.589  1.00  0.00     0.015 A 
HETATM   25  C15 UNL     1      26.819   7.292  49.196  1.00  0.00     0.043 A 
HETATM   26  C16 UNL     1      26.405   8.318  50.010  1.00  0.00     0.119 A 
HETATM   27  F1  UNL     1      27.277   9.169  50.606  1.00  0.00    -0.206 F 
HETATM   28  C17 UNL     1      25.039   8.466  50.211  1.00  0.00     0.085 A 
HETATM   29  C18 UNL     1      24.126   7.597  49.604  1.00  0.00     0.127 A 
HETATM   30  F2  UNL     1      22.835   7.885  49.910  1.00  0.00    -0.205 F 
ENDBRANCH  22  23
ENDBRANCH  21  22
ENDBRANCH   4  21
TORSDOF 4
ENDMDL
MODEL 2
REMARK VINA RESULT:      -8.4      3.544      7.361
REMARK  4 active torsions:
REMARK  status: ('A' for Active; 'I' for Inactive)
REMARK    1  A    between atoms: C9_11  and  N2_12 
REMARK    2  A    between atoms: C11_15  and  O2_16 
REMARK    3  A    between atoms: O2_16  and  C12_17 
REMARK    4  A    between atoms: C12_17  and  C13_18 
ROOT
HETATM    1  N2  UNL     1      24.097   3.927  51.266  1.00  0.00    -0.297 N 
HETATM    2  C10 UNL     1      24.427   3.723  52.525  1.00  0.00     0.216 A 
HETATM    3  N3  UNL     1      23.999   2.620  53.122  1.00  0.00    -0.218 NA
HETATM    4  C11 UNL     1      23.253   1.675  52.563  1.00  0.00     0.193 A 
HETATM    5  C19 UNL     1      22.884   1.848  51.237  1.00  0.00     0.154 A 
HETATM    6 CL1  UNL     1      21.902   0.570  50.546  1.00  0.00    -0.074 Cl
HETATM    7  C20 UNL     1      23.330   2.993  50.625  1.00  0.00     0.275 A 
HETATM    8  O3  UNL     1      22.886   2.967  49.426  1.00  0.00    -0.266 OA
ENDROOT
BRANCH   1   9
HETATM    9  C9  UNL     1      24.403   5.104  50.467  1.00  0.00     0.053 C 
HETATM   10  C2  UNL     1      23.406   6.210  50.515  1.00  0.00    -0.038 C 
HETATM   11  C1  UNL     1      22.033   6.214  51.084  1.00  0.00     0.048 C 
HETATM   12  C3  UNL     1      23.534   7.320  49.855  1.00  0.00     0.139 C 
HETATM   13  O1  UNL     1      24.771   7.570  49.224  1.00  0.00    -0.361 OA
HETATM   14  C4  UNL     1      25.603   8.383  50.069  1.00  0.00     0.193 C 
HETATM   15  C5  UNL     1      26.949   8.571  49.538  1.00  0.00     0.140 C 
HETATM   16  N1  UNL     1      27.746   7.437  49.376  1.00  0.00    -0.419 N 
HETATM   17  C6  UNL     1      27.431   6.425  48.466  1.00  0.00     0.114 C 
HETATM   18  H9  UNL     1      28.744   7.619  49.507  1.00  0.00     0.153 HD
HETATM   19  C7  UNL     1      26.489   5.329  48.839  1.00  0.00     0.027 C 
HETATM   20  C8  UNL     1      25.277   5.589  49.544  1.00  0.00     0.095 C 
ENDBRANCH   1   9
BRANCH   4  21
HETATM   21  O2  UNL     1      22.864   0.566  53.273  1.00  0.00    -0.328 OA
BRANCH  21  22
HETATM   22  C12 UNL     1      23.553  -0.665  53.314  1.00  0.00     0.219 C 
BRANCH  22  23
HETATM   23  C13 UNL     1      25.021  -0.467  53.325  1.00  0.00     0.005 A 
HETATM   24  C14 UNL     1      25.931  -0.264  52.315  1.00  0.00     0.015 A 
HETATM   25  C15 UNL     1      27.266  -0.089  52.599  1.00  0.00     0.043 A 
HETATM   26  C16 UNL     1      27.759  -0.108  53.881  1.00  0.00     0.119 A 
HETATM   27  F1  UNL     1      29.076   0.065  54.155  1.00  0.00    -0.206 F 
HETATM   28  C17 UNL     1      26.852  -0.312  54.913  1.00  0.00     0.085 A 
HETATM   29  C18 UNL     1      25.490  -0.492  54.647  1.00  0.00     0.127 A 
HETATM   30  F2  UNL     1      24.751  -0.679  55.770  1.00  0.00    -0.205 F 
ENDBRANCH  22  23
ENDBRANCH  21  22
ENDBRANCH   4  21
TORSDOF 4
ENDMDL
MODEL 3
REMARK VINA RESULT:      -8.4      2.773      3.629
REMARK  4 active torsions:
REMARK  status: ('A' for Active; 'I' for Inactive)
REMARK    1  A    between atoms: C9_11  and  N2_12 
REMARK    2  A    between atoms: C11_15  and  O2_16 
REMARK    3  A    between atoms: O2_16  and  C12_17 
REMARK    4  A    between atoms: C12_17  and  C13_18 
ROOT
HETATM    1  N2  UNL     1      25.172   2.726  52.371  1.00  0.00    -0.297 N 
HETATM    2  C10 UNL     1      24.041   3.281  52.757  1.00  0.00     0.216 A 
HETATM    3  N3  UNL     1      23.529   4.255  52.020  1.00  0.00    -0.218 NA
HETATM    4  C11 UNL     1      24.052   4.739  50.901  1.00  0.00     0.193 A 
HETATM    5  C19 UNL     1      25.243   4.182  50.456  1.00  0.00     0.154 A 
HETATM    6 CL1  UNL     1      25.891   4.856  48.972  1.00  0.00    -0.074 Cl
HETATM    7  C20 UNL     1      25.769   3.175  51.225  1.00  0.00     0.275 A 
HETATM    8  O3  UNL     1      26.852   2.803  50.655  1.00  0.00    -0.266 OA
ENDROOT
BRANCH   1   9
HETATM    9  C9  UNL     1      25.927   1.704  53.081  1.00  0.00     0.053 C 
HETATM   10  C2  UNL     1      25.252   0.387  53.253  1.00  0.00    -0.038 C 
HETATM   11  C1  UNL     1      23.834   0.017  53.003  1.00  0.00     0.048 C 
HETATM   12  C3  UNL     1      25.793  -0.620  53.866  1.00  0.00     0.139 C 
HETATM   13  O1  UNL     1      27.159  -0.527  54.206  1.00  0.00    -0.361 OA
HETATM   14  C4  UNL     1      27.967  -1.156  53.197  1.00  0.00     0.193 C 
HETATM   15  C5  UNL     1      29.398  -0.981  53.415  1.00  0.00     0.140 C 
HETATM   16  N1  UNL     1      29.901   0.322  53.398  1.00  0.00    -0.419 N 
HETATM   17  C6  UNL     1      29.547   1.274  54.358  1.00  0.00     0.114 C 
HETATM   18  H9  UNL     1      30.861   0.382  53.049  1.00  0.00     0.153 HD
HETATM   19  C7  UNL     1      28.303   2.084  54.205  1.00  0.00     0.027 C 
HETATM   20  C8  UNL     1      27.072   1.498  53.786  1.00  0.00     0.095 C 
ENDBRANCH   1   9
BRANCH   4  21
HETATM   21  O2  UNL     1      23.437   5.753  50.209  1.00  0.00    -0.328 OA
BRANCH  21  22
HETATM   22  C12 UNL     1      22.104   5.737  49.745  1.00  0.00     0.219 C 
BRANCH  22  23
HETATM   23  C13 UNL     1      22.028   5.332  48.322  1.00  0.00     0.005 A 
HETATM   24  C14 UNL     1      22.168   6.042  47.153  1.00  0.00     0.015 A 
HETATM   25  C15 UNL     1      22.064   5.412  45.934  1.00  0.00     0.043 A 
HETATM   26  C16 UNL     1      21.820   4.066  45.814  1.00  0.00     0.119 A 
HETATM   27  F1  UNL     1      21.719   3.451  44.610  1.00  0.00    -0.206 F 
HETATM   28  C17 UNL     1      21.677   3.334  46.986  1.00  0.00     0.085 A 
HETATM   29  C18 UNL     1      21.778   3.953  48.236  1.00  0.00     0.127 A 
HETATM   30  F2  UNL     1      21.611   3.091  49.271  1.00  0.00    -0.205 F 
ENDBRANCH  22  23
ENDBRANCH  21  22
ENDBRANCH   4  21
TORSDOF 4
ENDMDL
MODEL 4
REMARK VINA RESULT:      -8.3      1.797      2.230
REMARK  4 active torsions:
REMARK  status: ('A' for Active; 'I' for Inactive)
REMARK    1  A    between atoms: C9_11  and  N2_12 
REMARK    2  A    between atoms: C11_15  and  O2_16 
REMARK    3  A    between atoms: O2_16  and  C12_17 
REMARK    4  A    between atoms: C12_17  and  C13_18 
ROOT
HETATM    1  N2  UNL     1      25.145   2.753  52.360  1.00  0.00    -0.297 N 
HETATM    2  C10 UNL     1      24.013   3.303  52.745  1.00  0.00     0.216 A 
HETATM    3  N3  UNL     1      23.501   4.280  52.010  1.00  0.00    -0.218 NA
HETATM    4  C11 UNL     1      24.028   4.770  50.895  1.00  0.00     0.193 A 
HETATM    5  C19 UNL     1      25.221   4.218  50.452  1.00  0.00     0.154 A 
HETATM    6 CL1  UNL     1      25.873   4.900  48.974  1.00  0.00    -0.074 Cl
HETATM    7  C20 UNL     1      25.746   3.208  51.219  1.00  0.00     0.275 A 
HETATM    8  O3  UNL     1      26.832   2.842  50.650  1.00  0.00    -0.266 OA
ENDROOT
BRANCH   1   9
HETATM    9  C9  UNL     1      25.900   1.729  53.068  1.00  0.00     0.053 C 
HETATM   10  C2  UNL     1      25.222   0.414  53.241  1.00  0.00    -0.038 C 
HETATM   11  C1  UNL     1      23.803   0.047  52.995  1.00  0.00     0.048 C 
HETATM   12  C3  UNL     1      25.762  -0.595  53.853  1.00  0.00     0.139 C 
HETATM   13  O1  UNL     1      27.130  -0.505  54.190  1.00  0.00    -0.361 OA
HETATM   14  C4  UNL     1      27.933  -1.136  53.178  1.00  0.00     0.193 C 
HETATM   15  C5  UNL     1      29.366  -0.964  53.393  1.00  0.00     0.140 C 
HETATM   16  N1  UNL     1      29.871   0.337  53.375  1.00  0.00    -0.419 N 
HETATM   17  C6  UNL     1      29.522   1.290  54.335  1.00  0.00     0.114 C 
HETATM   18  H9  UNL     1      30.831   0.395  53.023  1.00  0.00     0.153 HD
HETATM   19  C7  UNL     1      28.280   2.103  54.186  1.00  0.00     0.027 C 
HETATM   20  C8  UNL     1      27.047   1.520  53.770  1.00  0.00     0.095 C 
ENDBRANCH   1   9
BRANCH   4  21
HETATM   21  O2  UNL     1      23.412   5.787  50.206  1.00  0.00    -0.328 OA
BRANCH  21  22
HETATM   22  C12 UNL     1      23.200   7.095  50.692  1.00  0.00     0.219 C 
BRANCH  22  23
HETATM   23  C13 UNL     1      23.727   8.115  49.758  1.00  0.00     0.005 A 
HETATM   24  C14 UNL     1      23.116   8.897  48.806  1.00  0.00     0.015 A 
HETATM   25  C15 UNL     1      23.846   9.799  48.066  1.00  0.00     0.043 A 
HETATM   26  C16 UNL     1      25.199   9.968  48.230  1.00  0.00     0.119 A 
HETATM   27  F1  UNL     1      25.913  10.859  47.497  1.00  0.00    -0.206 F 
HETATM   28  C17 UNL     1      25.831   9.187  49.188  1.00  0.00     0.085 A 
HETATM   29  C18 UNL     1      25.109   8.263  49.952  1.00  0.00     0.127 A 
HETATM   30  F2  UNL     1      25.884   7.586  50.837  1.00  0.00    -0.205 F 
ENDBRANCH  22  23
ENDBRANCH  21  22
ENDBRANCH   4  21
TORSDOF 4
ENDMDL
MODEL 5
REMARK VINA RESULT:      -8.3      4.050      8.457
REMARK  4 active torsions:
REMARK  status: ('A' for Active; 'I' for Inactive)
REMARK    1  A    between atoms: C9_11  and  N2_12 
REMARK    2  A    between atoms: C11_15  and  O2_16 
REMARK    3  A    between atoms: O2_16  and  C12_17 
REMARK    4  A    between atoms: C12_17  and  C13_18 
ROOT
HETATM    1  N2  UNL     1      22.960   3.085  50.571  1.00  0.00    -0.297 N 
HETATM    2  C10 UNL     1      24.258   2.938  50.731  1.00  0.00     0.216 A 
HETATM    3  N3  UNL     1      24.692   2.142  51.697  1.00  0.00    -0.218 NA
HETATM    4  C11 UNL     1      23.929   1.458  52.540  1.00  0.00     0.193 A 
HETATM    5  C19 UNL     1      22.553   1.583  52.407  1.00  0.00     0.154 A 
HETATM    6 CL1  UNL     1      21.591   0.658  53.544  1.00  0.00    -0.074 Cl
HETATM    7  C20 UNL     1      22.111   2.410  51.405  1.00  0.00     0.275 A 
HETATM    8  O3  UNL     1      20.833   2.392  51.449  1.00  0.00    -0.266 OA
ENDROOT
BRANCH   1   9
HETATM    9  C9  UNL     1      22.294   3.969  49.625  1.00  0.00     0.053 C 
HETATM   10  C2  UNL     1      21.991   3.390  48.285  1.00  0.00    -0.038 C 
HETATM   11  C1  UNL     1      22.459   2.114  47.684  1.00  0.00     0.048 C 
HETATM   12  C3  UNL     1      21.406   4.053  47.335  1.00  0.00     0.139 C 
HETATM   13  O1  UNL     1      20.851   5.310  47.654  1.00  0.00    -0.361 OA
HETATM   14  C4  UNL     1      19.450   5.175  47.947  1.00  0.00     0.193 C 
HETATM   15  C5  UNL     1      18.840   6.414  48.416  1.00  0.00     0.140 C 
HETATM   16  N1  UNL     1      19.319   6.961  49.608  1.00  0.00    -0.419 N 
HETATM   17  C6  UNL     1      20.622   7.449  49.737  1.00  0.00     0.114 C 
HETATM   18  H9  UNL     1      18.604   7.464  50.140  1.00  0.00     0.153 HD
HETATM   19  C7  UNL     1      21.750   6.530  50.068  1.00  0.00     0.027 C 
HETATM   20  C8  UNL     1      21.888   5.255  49.445  1.00  0.00     0.095 C 
ENDBRANCH   1   9
BRANCH   4  21
HETATM   21  O2  UNL     1      24.482   0.657  53.509  1.00  0.00    -0.328 OA
BRANCH  21  22
HETATM   22  C12 UNL     1      25.111  -0.586  53.283  1.00  0.00     0.219 C 
BRANCH  22  23
HETATM   23  C13 UNL     1      26.558  -0.528  53.591  1.00  0.00     0.005 A 
HETATM   24  C14 UNL     1      27.294   0.297  54.408  1.00  0.00     0.015 A 
HETATM   25  C15 UNL     1      28.654   0.128  54.534  1.00  0.00     0.043 A 
HETATM   26  C16 UNL     1      29.343  -0.854  53.865  1.00  0.00     0.119 A 
HETATM   27  F1  UNL     1      30.683  -1.016  53.993  1.00  0.00    -0.206 F 
HETATM   28  C17 UNL     1      28.614  -1.696  53.036  1.00  0.00     0.085 A 
HETATM   29  C18 UNL     1      27.231  -1.543  52.893  1.00  0.00     0.127 A 
HETATM   30  F2  UNL     1      26.681  -2.449  52.045  1.00  0.00    -0.205 F 
ENDBRANCH  22  23
ENDBRANCH  21  22
ENDBRANCH   4  21
TORSDOF 4
ENDMDL
MODEL 6
REMARK VINA RESULT:      -8.2      2.737      4.269
REMARK  4 active torsions:
REMARK  status: ('A' for Active; 'I' for Inactive)
REMARK    1  A    between atoms: C9_11  and  N2_12 
REMARK    2  A    between atoms: C11_15  and  O2_16 
REMARK    3  A    between atoms: O2_16  and  C12_17 
REMARK    4  A    between atoms: C12_17  and  C13_18 
ROOT
HETATM    1  N2  UNL     1      25.450   2.629  51.663  1.00  0.00    -0.297 N 
HETATM    2  C10 UNL     1      25.637   2.651  50.360  1.00  0.00     0.216 A 
HETATM    3  N3  UNL     1      24.871   3.441  49.623  1.00  0.00    -0.218 NA
HETATM    4  C11 UNL     1      23.909   4.234  50.078  1.00  0.00     0.193 A 
HETATM    5  C19 UNL     1      23.678   4.243  51.447  1.00  0.00     0.154 A 
HETATM    6 CL1  UNL     1      22.399   5.309  51.996  1.00  0.00    -0.074 Cl
HETATM    7  C20 UNL     1      24.475   3.421  52.204  1.00  0.00     0.275 A 
HETATM    8  O3  UNL     1      24.107   3.570  53.420  1.00  0.00    -0.266 OA
ENDROOT
BRANCH   1   9
HETATM    9  C9  UNL     1      26.133   1.777  52.626  1.00  0.00     0.053 C 
HETATM   10  C2  UNL     1      25.438   0.511  52.994  1.00  0.00    -0.038 C 
HETATM   11  C1  UNL     1      24.047   0.081  52.697  1.00  0.00     0.048 C 
HETATM   12  C3  UNL     1      25.916  -0.348  53.841  1.00  0.00     0.139 C 
HETATM   13  O1  UNL     1      27.247  -0.172  54.276  1.00  0.00    -0.361 OA
HETATM   14  C4  UNL     1      28.139  -0.978  53.487  1.00  0.00     0.193 C 
HETATM   15  C5  UNL     1      29.546  -0.745  53.793  1.00  0.00     0.140 C 
HETATM   16  N1  UNL     1      30.055   0.534  53.564  1.00  0.00    -0.419 N 
HETATM   17  C6  UNL     1      29.621   1.652  54.280  1.00  0.00     0.114 C 
HETATM   18  H9  UNL     1      31.043   0.536  53.297  1.00  0.00     0.153 HD
HETATM   19  C7  UNL     1      28.400   2.401  53.860  1.00  0.00     0.027 C 
HETATM   20  C8  UNL     1      27.209   1.728  53.457  1.00  0.00     0.095 C 
ENDBRANCH   1   9
BRANCH   4  21
HETATM   21  O2  UNL     1      23.171   5.017  49.225  1.00  0.00    -0.328 OA
BRANCH  21  22
HETATM   22  C12 UNL     1      22.254   4.542  48.263  1.00  0.00     0.219 C 
BRANCH  22  23
HETATM   23  C13 UNL     1      21.286   3.591  48.856  1.00  0.00     0.005 A 
HETATM   24  C14 UNL     1      20.166   3.778  49.630  1.00  0.00     0.015 A 
HETATM   25  C15 UNL     1      19.415   2.703  50.048  1.00  0.00     0.043 A 
HETATM   26  C16 UNL     1      19.732   1.407  49.724  1.00  0.00     0.119 A 
HETATM   27  F1  UNL     1      18.988   0.352  50.139  1.00  0.00    -0.206 F 
HETATM   28  C17 UNL     1      20.861   1.201  48.942  1.00  0.00     0.085 A 
HETATM   29  C18 UNL     1      21.640   2.278  48.506  1.00  0.00     0.127 A 
HETATM   30  F2  UNL     1      22.703   1.895  47.755  1.00  0.00    -0.205 F 
ENDBRANCH  22  23
ENDBRANCH  21  22
ENDBRANCH   4  21
TORSDOF 4
ENDMDL
MODEL 7
REMARK VINA RESULT:      -8.2      3.047      4.981
REMARK  4 active torsions:
REMARK  status: ('A' for Active; 'I' for Inactive)
REMARK    1  A    between atoms: C9_11  and  N2_12 
REMARK    2  A    between atoms: C11_15  and  O2_16 
REMARK    3  A    between atoms: O2_16  and  C12_17 
REMARK    4  A    between atoms: C12_17  and  C13_18 
ROOT
HETATM    1  N2  UNL     1      24.569   3.266  50.713  1.00  0.00    -0.297 N 
HETATM    2  C10 UNL     1      25.526   3.234  49.810  1.00  0.00     0.216 A 
HETATM    3  N3  UNL     1      26.010   4.381  49.357  1.00  0.00    -0.218 NA
HETATM    4  C11 UNL     1      25.617   5.591  49.735  1.00  0.00     0.193 A 
HETATM    5  C19 UNL     1      24.611   5.672  50.687  1.00  0.00     0.154 A 
HETATM    6 CL1  UNL     1      24.131   7.293  51.152  1.00  0.00    -0.074 Cl
HETATM    7  C20 UNL     1      24.114   4.479  51.150  1.00  0.00     0.275 A 
HETATM    8  O3  UNL     1      23.206   4.766  52.005  1.00  0.00    -0.266 OA
ENDROOT
BRANCH   1   9
HETATM    9  C9  UNL     1      23.861   2.123  51.271  1.00  0.00     0.053 C 
HETATM   10  C2  UNL     1      24.516   1.440  52.422  1.00  0.00    -0.038 C 
HETATM   11  C1  UNL     1      25.893   1.608  52.955  1.00  0.00     0.048 C 
HETATM   12  C3  UNL     1      24.012   0.406  53.023  1.00  0.00     0.139 C 
HETATM   13  O1  UNL     1      22.688   0.040  52.702  1.00  0.00    -0.361 OA
HETATM   14  C4  UNL     1      21.771   0.604  53.655  1.00  0.00     0.193 C 
HETATM   15  C5  UNL     1      20.372   0.378  53.309  1.00  0.00     0.140 C 
HETATM   16  N1  UNL     1      19.903   0.929  52.116  1.00  0.00    -0.419 N 
HETATM   17  C6  UNL     1      20.371   0.517  50.865  1.00  0.00     0.114 C 
HETATM   18  H9  UNL     1      18.915   1.195  52.152  1.00  0.00     0.153 HD
HETATM   19  C7  UNL     1      21.614   1.105  50.286  1.00  0.00     0.027 C 
HETATM   20  C8  UNL     1      22.784   1.315  51.074  1.00  0.00     0.095 C 
ENDBRANCH   1   9
BRANCH   4  21
HETATM   21  O2  UNL     1      26.187   6.721  49.202  1.00  0.00    -0.328 OA
BRANCH  21  22
HETATM   22  C12 UNL     1      27.003   6.763  48.051  1.00  0.00     0.219 C 
BRANCH  22  23
HETATM   23  C13 UNL     1      28.388   7.171  48.380  1.00  0.00     0.005 A 
HETATM   24  C14 UNL     1      28.934   8.384  48.724  1.00  0.00     0.015 A 
HETATM   25  C15 UNL     1      30.278   8.495  49.002  1.00  0.00     0.043 A 
HETATM   26  C16 UNL     1      31.135   7.423  48.952  1.00  0.00     0.119 A 
HETATM   27  F1  UNL     1      32.458   7.538  49.226  1.00  0.00    -0.206 F 
HETATM   28  C17 UNL     1      30.599   6.189  48.606  1.00  0.00     0.085 A 
HETATM   29  C18 UNL     1      29.236   6.053  48.320  1.00  0.00     0.127 A 
HETATM   30  F2  UNL     1      28.885   4.782  48.000  1.00  0.00    -0.205 F 
ENDBRANCH  22  23
ENDBRANCH  21  22
ENDBRANCH   4  21
TORSDOF 4
ENDMDL
MODEL 8
REMARK VINA RESULT:      -8.1      3.653      7.413
REMARK  4 active torsions:
REMARK  status: ('A' for Active; 'I' for Inactive)
REMARK    1  A    between atoms: C9_11  and  N2_12 
REMARK    2  A    between atoms: C11_15  and  O2_16 
REMARK    3  A    between atoms: O2_16  and  C12_17 
REMARK    4  A    between atoms: C12_17  and  C13_18 
ROOT
HETATM    1  N2  UNL     1      24.885   5.101  49.362  1.00  0.00    -0.297 N 
HETATM    2  C10 UNL     1      24.511   3.907  48.952  1.00  0.00     0.216 A 
HETATM    3  N3  UNL     1      23.808   3.145  49.777  1.00  0.00    -0.218 NA
HETATM    4  C11 UNL     1      23.432   3.474  51.007  1.00  0.00     0.193 A 
HETATM    5  C19 UNL     1      23.804   4.725  51.479  1.00  0.00     0.154 A 
HETATM    6 CL1  UNL     1      23.280   5.111  53.107  1.00  0.00    -0.074 Cl
HETATM    7  C20 UNL     1      24.533   5.508  50.620  1.00  0.00     0.275 A 
HETATM    8  O3  UNL     1      24.776   6.603  51.235  1.00  0.00    -0.266 OA
ENDROOT
BRANCH   1   9
HETATM    9  C9  UNL     1      25.722   6.047  48.638  1.00  0.00     0.053 C 
HETATM   10  C2  UNL     1      25.010   7.153  47.937  1.00  0.00    -0.038 C 
HETATM   11  C1  UNL     1      23.557   7.321  47.678  1.00  0.00     0.048 C 
HETATM   12  C3  UNL     1      25.615   8.070  47.247  1.00  0.00     0.139 C 
HETATM   13  O1  UNL     1      27.022   8.138  47.334  1.00  0.00    -0.361 OA
HETATM   14  C4  UNL     1      27.413   9.112  48.317  1.00  0.00     0.193 C 
HETATM   15  C5  UNL     1      28.851   9.141  48.557  1.00  0.00     0.140 C 
HETATM   16  N1  UNL     1      29.447   7.984  49.063  1.00  0.00    -0.419 N 
HETATM   17  C6  UNL     1      29.500   6.791  48.338  1.00  0.00     0.114 C 
HETATM   18  H9  UNL     1      30.252   8.172  49.665  1.00  0.00     0.153 HD
HETATM   19  C7  UNL     1      28.354   5.835  48.357  1.00  0.00     0.027 C 
HETATM   20  C8  UNL     1      27.004   6.280  48.246  1.00  0.00     0.095 C 
ENDBRANCH   1   9
BRANCH   4  21
HETATM   21  O2  UNL     1      22.700   2.608  51.781  1.00  0.00    -0.328 OA
BRANCH  21  22
HETATM   22  C12 UNL     1      22.995   1.242  51.984  1.00  0.00     0.219 C 
BRANCH  22  23
HETATM   23  C13 UNL     1      24.193   1.064  52.836  1.00  0.00     0.005 A 
HETATM   24  C14 UNL     1      25.235   1.905  53.148  1.00  0.00     0.015 A 
HETATM   25  C15 UNL     1      26.239   1.493  53.994  1.00  0.00     0.043 A 
HETATM   26  C16 UNL     1      26.259   0.244  54.565  1.00  0.00     0.119 A 
HETATM   27  F1  UNL     1      27.251  -0.157  55.399  1.00  0.00    -0.206 F 
HETATM   28  C17 UNL     1      25.213  -0.617  54.261  1.00  0.00     0.085 A 
HETATM   29  C18 UNL     1      24.182  -0.220  53.402  1.00  0.00     0.127 A 
HETATM   30  F2  UNL     1      23.247  -1.185  53.214  1.00  0.00    -0.205 F 
ENDBRANCH  22  23
ENDBRANCH  21  22
ENDBRANCH   4  21
TORSDOF 4
ENDMDL
MODEL 9
REMARK VINA RESULT:      -8.1      4.097      8.415
REMARK  4 active torsions:
REMARK  status: ('A' for Active; 'I' for Inactive)
REMARK    1  A    between atoms: C9_11  and  N2_12 
REMARK    2  A    between atoms: C11_15  and  O2_16 
REMARK    3  A    between atoms: O2_16  and  C12_17 
REMARK    4  A    between atoms: C12_17  and  C13_18 
ROOT
HETATM    1  N2  UNL     1      26.107   6.860  49.440  1.00  0.00    -0.297 N 
HETATM    2  C10 UNL     1      25.118   6.989  50.299  1.00  0.00     0.216 A 
HETATM    3  N3  UNL     1      24.598   5.895  50.837  1.00  0.00    -0.218 NA
HETATM    4  C11 UNL     1      24.986   4.650  50.591  1.00  0.00     0.193 A 
HETATM    5  C19 UNL     1      26.027   4.468  49.692  1.00  0.00     0.154 A 
HETATM    6 CL1  UNL     1      26.503   2.805  49.405  1.00  0.00    -0.074 Cl
HETATM    7  C20 UNL     1      26.559   5.605  49.138  1.00  0.00     0.275 A 
HETATM    8  O3  UNL     1      27.491   5.228  48.346  1.00  0.00    -0.266 OA
ENDROOT
BRANCH   1   9
HETATM    9  C9  UNL     1      26.752   7.927  48.690  1.00  0.00     0.053 C 
HETATM   10  C2  UNL     1      26.008   8.445  47.507  1.00  0.00    -0.038 C 
HETATM   11  C1  UNL     1      24.801   7.892  46.839  1.00  0.00     0.048 C 
HETATM   12  C3  UNL     1      26.454   9.390  46.738  1.00  0.00     0.139 C 
HETATM   13  O1  UNL     1      27.600  10.096  47.160  1.00  0.00    -0.361 OA
HETATM   14  C4  UNL     1      27.218  11.305  47.837  1.00  0.00     0.193 C 
HETATM   15  C5  UNL     1      28.349  12.020  48.419  1.00  0.00     0.140 C 
HETATM   16  N1  UNL     1      29.084  11.370  49.411  1.00  0.00    -0.419 N 
HETATM   17  C6  UNL     1      29.829  10.216  49.156  1.00  0.00     0.114 C 
HETATM   18  H9  UNL     1      29.481  12.007  50.106  1.00  0.00     0.153 HD
HETATM   19  C7  UNL     1      29.186   8.870  49.187  1.00  0.00     0.027 C 
HETATM   20  C8  UNL     1      27.912   8.633  48.591  1.00  0.00     0.095 C 
ENDBRANCH   1   9
BRANCH   4  21
HETATM   21  O2  UNL     1      24.379   3.583  51.206  1.00  0.00    -0.328 OA
BRANCH  21  22
HETATM   22  C12 UNL     1      24.484   3.258  52.575  1.00  0.00     0.219 C 
BRANCH  22  23
HETATM   23  C13 UNL     1      24.851   1.836  52.771  1.00  0.00     0.005 A 
HETATM   24  C14 UNL     1      24.094   0.712  52.999  1.00  0.00     0.015 A 
HETATM   25  C15 UNL     1      24.692  -0.520  53.133  1.00  0.00     0.043 A 
HETATM   26  C16 UNL     1      26.051  -0.697  53.050  1.00  0.00     0.119 A 
HETATM   27  F1  UNL     1      26.635  -1.914  53.183  1.00  0.00    -0.206 F 
HETATM   28  C17 UNL     1      26.830   0.430  52.820  1.00  0.00     0.085 A 
HETATM   29  C18 UNL     1      26.244   1.692  52.680  1.00  0.00     0.127 A 
HETATM   30  F2  UNL     1      27.152   2.678  52.463  1.00  0.00    -0.205 F 
ENDBRANCH  22  23
ENDBRANCH  21  22
ENDBRANCH   4  21
TORSDOF 4
ENDMDL
