MODEL 1
REMARK VINA RESULT:      -7.8      0.000      0.000
REMARK  4 active torsions:
REMARK  status: ('A' for Active; 'I' for Inactive)
REMARK    1  A    between atoms: C2_2  and  C3_3 
REMARK    2  A    between atoms: C3_3  and  C4_4 
REMARK    3  A    between atoms: C5_5  and  C6_6 
REMARK       I    between atoms: C6_6  and  N1_8 
REMARK    4  A    between atoms: N1_8  and  C7_9 
ROOT
HETATM    1  C7  UNL     1      24.684   3.244  51.076  1.00  0.00     0.235 C 
HETATM    2  C8  UNL     1      23.341   3.617  51.559  1.00  0.00     0.071 C 
HETATM    3  C9  UNL     1      23.126   4.861  52.053  1.00  0.00     0.129 C 
HETATM    4  N2  UNL     1      21.664   4.732  52.363  1.00  0.00    -0.225 NA
HETATM    5  C10 UNL     1      20.898   4.835  51.176  1.00  0.00     0.236 C 
HETATM    6  N3  UNL     1      21.344   4.749  49.748  1.00  0.00    -0.240 NA
HETATM    7  C11 UNL     1      22.651   4.785  49.401  1.00  0.00     0.087 C 
HETATM    8  C12 UNL     1      23.802   3.931  48.924  1.00  0.00     0.145 C 
HETATM    9  N4  UNL     1      24.672   3.272  49.615  1.00  0.00    -0.270 NA
HETATM   10  C13 UNL     1      23.503   6.034  49.443  1.00  0.00     0.024 A 
HETATM   11  C14 UNL     1      23.638   6.741  48.319  1.00  0.00     0.060 A 
HETATM   12  C15 UNL     1      24.408   7.877  48.378  1.00  0.00     0.139 A 
HETATM   13  F1  UNL     1      24.473   8.519  47.165  1.00  0.00    -0.204 F 
HETATM   14  C16 UNL     1      25.018   8.272  49.551  1.00  0.00     0.074 A 
HETATM   15 CL1  UNL     1      25.961   9.722  49.491  1.00  0.00    -0.081 Cl
HETATM   16  C17 UNL     1      24.854   7.511  50.691  1.00  0.00     0.057 A 
HETATM   17  C18 UNL     1      24.108   6.385  50.694  1.00  0.00     0.048 A 
HETATM   18  N5  UNL     1      24.164   5.838  52.062  1.00  0.00    -0.340 N 
HETATM   19  H15 UNL     1      24.854   6.227  52.664  1.00  0.00     0.167 HD
ENDROOT
BRANCH   1  20
HETATM   20  N1  UNL     1      25.013   1.920  51.486  1.00  0.00    -0.324 N 
HETATM   21  C6  UNL     1      26.394   1.612  51.728  1.00  0.00     0.298 C 
HETATM   22  O1  UNL     1      27.310   2.465  51.592  1.00  0.00    -0.258 OA
HETATM   23  H8  UNL     1      24.255   1.213  51.599  1.00  0.00     0.165 HD
BRANCH  21  24
HETATM   24  C5  UNL     1      26.749   0.292  52.140  1.00  0.00    -0.006 C 
HETATM   25  C4  UNL     1      27.051  -0.809  52.496  1.00  0.00    -0.096 C 
BRANCH  25  26
HETATM   26  C3  UNL     1      27.443  -2.145  52.940  1.00  0.00     0.094 C 
BRANCH  26  27
HETATM   27  C2  UNL     1      28.965  -2.300  53.004  1.00  0.00     0.007 C 
HETATM   28  C1  UNL     1      29.600  -1.127  53.692  1.00  0.00     0.006 C 
ENDBRANCH  26  27
ENDBRANCH  25  26
ENDBRANCH  21  24
ENDBRANCH   1  20
TORSDOF 4
ENDMDL
MODEL 2
REMARK VINA RESULT:      -7.4      4.261      5.618
REMARK  4 active torsions:
REMARK  status: ('A' for Active; 'I' for Inactive)
REMARK    1  A    between atoms: C2_2  and  C3_3 
REMARK    2  A    between atoms: C3_3  and  C4_4 
REMARK    3  A    between atoms: C5_5  and  C6_6 
REMARK       I    between atoms: C6_6  and  N1_8 
REMARK    4  A    between atoms: N1_8  and  C7_9 
ROOT
HETATM    1  C7  UNL     1      23.279   1.727  51.777  1.00  0.00     0.235 C 
HETATM    2  C8  UNL     1      23.277   2.196  50.378  1.00  0.00     0.071 C 
HETATM    3  C9  UNL     1      22.382   1.681  49.499  1.00  0.00     0.129 C 
HETATM    4  N2  UNL     1      22.772   2.476  48.288  1.00  0.00    -0.225 NA
HETATM    5  C10 UNL     1      22.256   3.792  48.376  1.00  0.00     0.236 C 
HETATM    6  N3  UNL     1      21.690   4.513  49.563  1.00  0.00    -0.240 NA
HETATM    7  C11 UNL     1      21.384   3.870  50.713  1.00  0.00     0.087 C 
HETATM    8  C12 UNL     1      21.842   3.648  52.135  1.00  0.00     0.145 C 
HETATM    9  N4  UNL     1      22.641   2.749  52.606  1.00  0.00    -0.270 NA
HETATM   10  C13 UNL     1      20.191   2.955  50.880  1.00  0.00     0.024 A 
HETATM   11  C14 UNL     1      19.068   3.471  51.383  1.00  0.00     0.060 A 
HETATM   12  C15 UNL     1      17.993   2.627  51.518  1.00  0.00     0.139 A 
HETATM   13  F1  UNL     1      16.897   3.268  52.045  1.00  0.00    -0.204 F 
HETATM   14  C16 UNL     1      18.070   1.299  51.150  1.00  0.00     0.074 A 
HETATM   15 CL1  UNL     1      16.643   0.344  51.372  1.00  0.00    -0.081 Cl
HETATM   16  C17 UNL     1      19.250   0.806  50.634  1.00  0.00     0.057 A 
HETATM   17  C18 UNL     1      20.341   1.587  50.477  1.00  0.00     0.048 A 
HETATM   18  N5  UNL     1      21.403   0.733  49.915  1.00  0.00    -0.340 N 
HETATM   19  H15 UNL     1      21.238  -0.248  49.939  1.00  0.00     0.167 HD
ENDROOT
BRANCH   1  20
HETATM   20  N1  UNL     1      24.614   1.556  52.245  1.00  0.00    -0.324 N 
HETATM   21  C6  UNL     1      24.868   0.502  53.186  1.00  0.00     0.298 C 
HETATM   22  O1  UNL     1      23.960  -0.263  53.605  1.00  0.00    -0.258 OA
HETATM   23  H8  UNL     1      25.366   2.189  51.898  1.00  0.00     0.165 HD
BRANCH  21  24
HETATM   24  C5  UNL     1      26.198   0.309  53.669  1.00  0.00    -0.006 C 
HETATM   25  C4  UNL     1      27.310   0.159  54.080  1.00  0.00    -0.096 C 
BRANCH  25  26
HETATM   26  C3  UNL     1      28.675   0.001  54.581  1.00  0.00     0.094 C 
BRANCH  26  27
HETATM   27  C2  UNL     1      29.588  -0.660  53.545  1.00  0.00     0.007 C 
HETATM   28  C1  UNL     1      29.128  -2.053  53.228  1.00  0.00     0.006 C 
ENDBRANCH  26  27
ENDBRANCH  25  26
ENDBRANCH  21  24
ENDBRANCH   1  20
TORSDOF 4
ENDMDL
MODEL 3
REMARK VINA RESULT:      -7.4      4.902      6.650
REMARK  4 active torsions:
REMARK  status: ('A' for Active; 'I' for Inactive)
REMARK    1  A    between atoms: C2_2  and  C3_3 
REMARK    2  A    between atoms: C3_3  and  C4_4 
REMARK    3  A    between atoms: C5_5  and  C6_6 
REMARK       I    between atoms: C6_6  and  N1_8 
REMARK    4  A    between atoms: N1_8  and  C7_9 
ROOT
HETATM    1  C7  UNL     1      23.906   3.683  50.392  1.00  0.00     0.235 C 
HETATM    2  C8  UNL     1      22.670   3.735  49.588  1.00  0.00     0.071 C 
HETATM    3  C9  UNL     1      21.974   2.596  49.352  1.00  0.00     0.129 C 
HETATM    4  N2  UNL     1      20.849   3.181  48.551  1.00  0.00    -0.225 NA
HETATM    5  C10 UNL     1      19.921   3.828  49.404  1.00  0.00     0.236 C 
HETATM    6  N3  UNL     1      20.074   4.235  50.839  1.00  0.00    -0.240 NA
HETATM    7  C11 UNL     1      21.106   3.803  51.601  1.00  0.00     0.087 C 
HETATM    8  C12 UNL     1      22.414   4.232  52.223  1.00  0.00     0.145 C 
HETATM    9  N4  UNL     1      23.607   4.189  51.730  1.00  0.00    -0.270 NA
HETATM   10  C13 UNL     1      21.233   2.394  52.134  1.00  0.00     0.024 A 
HETATM   11  C14 UNL     1      20.792   2.147  53.369  1.00  0.00     0.060 A 
HETATM   12  C15 UNL     1      20.907   0.860  53.833  1.00  0.00     0.139 A 
HETATM   13  F1  UNL     1      20.421   0.727  55.113  1.00  0.00    -0.204 F 
HETATM   14  C16 UNL     1      21.456  -0.139  53.056  1.00  0.00     0.074 A 
HETATM   15 CL1  UNL     1      21.543  -1.719  53.760  1.00  0.00    -0.081 Cl
HETATM   16  C17 UNL     1      21.901   0.158  51.784  1.00  0.00     0.057 A 
HETATM   17  C18 UNL     1      21.814   1.406  51.273  1.00  0.00     0.048 A 
HETATM   18  N5  UNL     1      22.385   1.353  49.915  1.00  0.00    -0.340 N 
HETATM   19  H15 UNL     1      22.898   0.532  49.684  1.00  0.00     0.167 HD
ENDROOT
BRANCH   1  20
HETATM   20  N1  UNL     1      24.908   4.520  49.822  1.00  0.00    -0.324 N 
HETATM   21  C6  UNL     1      26.188   3.938  49.533  1.00  0.00     0.298 C 
HETATM   22  O1  UNL     1      26.447   2.728  49.764  1.00  0.00    -0.258 OA
HETATM   23  H8  UNL     1      24.694   5.522  49.630  1.00  0.00     0.165 HD
BRANCH  21  24
HETATM   24  C5  UNL     1      27.209   4.756  48.960  1.00  0.00    -0.006 C 
HETATM   25  C4  UNL     1      28.054   5.449  48.477  1.00  0.00    -0.096 C 
BRANCH  25  26
HETATM   26  C3  UNL     1      29.072   6.302  47.866  1.00  0.00     0.094 C 
BRANCH  26  27
HETATM   27  C2  UNL     1      30.442   5.620  47.835  1.00  0.00     0.007 C 
HETATM   28  C1  UNL     1      31.293   6.059  48.990  1.00  0.00     0.006 C 
ENDBRANCH  26  27
ENDBRANCH  25  26
ENDBRANCH  21  24
ENDBRANCH   1  20
TORSDOF 4
ENDMDL
MODEL 4
REMARK VINA RESULT:      -7.3      2.747      3.342
REMARK  4 active torsions:
REMARK  status: ('A' for Active; 'I' for Inactive)
REMARK    1  A    between atoms: C2_2  and  C3_3 
REMARK    2  A    between atoms: C3_3  and  C4_4 
REMARK    3  A    between atoms: C5_5  and  C6_6 
REMARK       I    between atoms: C6_6  and  N1_8 
REMARK    4  A    between atoms: N1_8  and  C7_9 
ROOT
HETATM    1  C7  UNL     1      23.770   4.491  50.881  1.00  0.00     0.235 C 
HETATM    2  C8  UNL     1      22.738   5.546  50.847  1.00  0.00     0.071 C 
HETATM    3  C9  UNL     1      23.071   6.822  51.161  1.00  0.00     0.129 C 
HETATM    4  N2  UNL     1      21.731   7.463  50.953  1.00  0.00    -0.225 NA
HETATM    5  C10 UNL     1      21.478   7.639  49.571  1.00  0.00     0.236 C 
HETATM    6  N3  UNL     1      22.180   7.034  48.392  1.00  0.00    -0.240 NA
HETATM    7  C11 UNL     1      23.357   6.378  48.518  1.00  0.00     0.087 C 
HETATM    8  C12 UNL     1      23.982   5.003  48.520  1.00  0.00     0.145 C 
HETATM    9  N4  UNL     1      24.166   4.190  49.507  1.00  0.00    -0.270 NA
HETATM   10  C13 UNL     1      24.682   7.058  48.778  1.00  0.00     0.024 A 
HETATM   11  C14 UNL     1      25.457   7.346  47.730  1.00  0.00     0.060 A 
HETATM   12  C15 UNL     1      26.653   7.972  47.985  1.00  0.00     0.139 A 
HETATM   13  F1  UNL     1      27.363   8.216  46.833  1.00  0.00    -0.204 F 
HETATM   14  C16 UNL     1      27.039   8.291  49.271  1.00  0.00     0.074 A 
HETATM   15 CL1  UNL     1      28.569   9.078  49.455  1.00  0.00    -0.081 Cl
HETATM   16  C17 UNL     1      26.208   7.975  50.326  1.00  0.00     0.057 A 
HETATM   17  C18 UNL     1      25.019   7.360  50.138  1.00  0.00     0.048 A 
HETATM   18  N5  UNL     1      24.416   7.176  51.470  1.00  0.00    -0.340 N 
HETATM   19  H15 UNL     1      25.017   7.323  52.250  1.00  0.00     0.167 HD
ENDROOT
BRANCH   1  20
HETATM   20  N1  UNL     1      23.246   3.298  51.457  1.00  0.00    -0.324 N 
HETATM   21  C6  UNL     1      24.157   2.420  52.135  1.00  0.00     0.298 C 
HETATM   22  O1  UNL     1      25.387   2.670  52.235  1.00  0.00    -0.258 OA
HETATM   23  H8  UNL     1      22.227   3.091  51.375  1.00  0.00     0.165 HD
BRANCH  21  24
HETATM   24  C5  UNL     1      23.656   1.218  52.721  1.00  0.00    -0.006 C 
HETATM   25  C4  UNL     1      23.244   0.205  53.203  1.00  0.00    -0.096 C 
BRANCH  25  26
HETATM   26  C3  UNL     1      22.741  -1.045  53.771  1.00  0.00     0.094 C 
BRANCH  26  27
HETATM   27  C2  UNL     1      21.710  -0.795  54.874  1.00  0.00     0.007 C 
HETATM   28  C1  UNL     1      20.688   0.215  54.442  1.00  0.00     0.006 C 
ENDBRANCH  26  27
ENDBRANCH  25  26
ENDBRANCH  21  24
ENDBRANCH   1  20
TORSDOF 4
ENDMDL
MODEL 5
REMARK VINA RESULT:      -7.0      4.249      7.737
REMARK  4 active torsions:
REMARK  status: ('A' for Active; 'I' for Inactive)
REMARK    1  A    between atoms: C2_2  and  C3_3 
REMARK    2  A    between atoms: C3_3  and  C4_4 
REMARK    3  A    between atoms: C5_5  and  C6_6 
REMARK       I    between atoms: C6_6  and  N1_8 
REMARK    4  A    between atoms: N1_8  and  C7_9 
ROOT
HETATM    1  C7  UNL     1      21.787   3.630  51.413  1.00  0.00     0.235 C 
HETATM    2  C8  UNL     1      22.675   4.778  51.146  1.00  0.00     0.071 C 
HETATM    3  C9  UNL     1      23.674   5.071  52.014  1.00  0.00     0.129 C 
HETATM    4  N2  UNL     1      24.259   6.250  51.296  1.00  0.00    -0.225 NA
HETATM    5  C10 UNL     1      25.045   5.818  50.199  1.00  0.00     0.236 C 
HETATM    6  N3  UNL     1      25.101   4.472  49.542  1.00  0.00    -0.240 NA
HETATM    7  C11 UNL     1      24.531   3.378  50.099  1.00  0.00     0.087 C 
HETATM    8  C12 UNL     1      23.352   2.440  49.992  1.00  0.00     0.145 C 
HETATM    9  N4  UNL     1      22.185   2.527  50.539  1.00  0.00    -0.270 NA
HETATM   10  C13 UNL     1      25.086   2.655  51.306  1.00  0.00     0.024 A 
HETATM   11  C14 UNL     1      25.874   1.598  51.097  1.00  0.00     0.060 A 
HETATM   12  C15 UNL     1      26.376   0.960  52.205  1.00  0.00     0.139 A 
HETATM   13  F1  UNL     1      27.170  -0.111  51.867  1.00  0.00    -0.204 F 
HETATM   14  C16 UNL     1      26.080   1.393  53.481  1.00  0.00     0.074 A 
HETATM   15 CL1  UNL     1      26.778   0.500  54.790  1.00  0.00    -0.081 Cl
HETATM   16  C17 UNL     1      25.262   2.490  53.652  1.00  0.00     0.057 A 
HETATM   17  C18 UNL     1      24.738   3.159  52.602  1.00  0.00     0.048 A 
HETATM   18  N5  UNL     1      23.920   4.253  53.155  1.00  0.00    -0.340 N 
HETATM   19  H15 UNL     1      23.721   4.205  54.129  1.00  0.00     0.167 HD
ENDROOT
BRANCH   1  20
HETATM   20  N1  UNL     1      20.435   3.962  51.110  1.00  0.00    -0.324 N 
HETATM   21  C6  UNL     1      19.396   3.274  51.824  1.00  0.00     0.298 C 
HETATM   22  O1  UNL     1      19.641   2.400  52.696  1.00  0.00    -0.258 OA
HETATM   23  H8  UNL     1      20.232   4.686  50.388  1.00  0.00     0.165 HD
BRANCH  21  24
HETATM   24  C5  UNL     1      18.033   3.590  51.539  1.00  0.00    -0.006 C 
HETATM   25  C4  UNL     1      16.889   3.843  51.303  1.00  0.00    -0.096 C 
BRANCH  25  26
HETATM   26  C3  UNL     1      15.486   4.128  51.006  1.00  0.00     0.094 C 
BRANCH  26  27
HETATM   27  C2  UNL     1      14.595   3.944  52.237  1.00  0.00     0.007 C 
HETATM   28  C1  UNL     1      14.408   2.490  52.558  1.00  0.00     0.006 C 
ENDBRANCH  26  27
ENDBRANCH  25  26
ENDBRANCH  21  24
ENDBRANCH   1  20
TORSDOF 4
ENDMDL
MODEL 6
REMARK VINA RESULT:      -6.9      2.789      3.774
REMARK  4 active torsions:
REMARK  status: ('A' for Active; 'I' for Inactive)
REMARK    1  A    between atoms: C2_2  and  C3_3 
REMARK    2  A    between atoms: C3_3  and  C4_4 
REMARK    3  A    between atoms: C5_5  and  C6_6 
REMARK       I    between atoms: C6_6  and  N1_8 
REMARK    4  A    between atoms: N1_8  and  C7_9 
ROOT
HETATM    1  C7  UNL     1      24.282   3.696  51.085  1.00  0.00     0.235 C 
HETATM    2  C8  UNL     1      24.492   5.155  51.010  1.00  0.00     0.071 C 
HETATM    3  C9  UNL     1      24.482   5.774  49.804  1.00  0.00     0.129 C 
HETATM    4  N2  UNL     1      24.704   7.181  50.271  1.00  0.00    -0.225 NA
HETATM    5  C10 UNL     1      23.506   7.720  50.800  1.00  0.00     0.236 C 
HETATM    6  N3  UNL     1      22.245   7.017  51.202  1.00  0.00    -0.240 NA
HETATM    7  C11 UNL     1      22.010   5.724  50.878  1.00  0.00     0.087 C 
HETATM    8  C12 UNL     1      21.966   4.323  51.441  1.00  0.00     0.145 C 
HETATM    9  N4  UNL     1      22.913   3.450  51.537  1.00  0.00    -0.270 NA
HETATM   10  C13 UNL     1      21.661   5.251  49.484  1.00  0.00     0.024 A 
HETATM   11  C14 UNL     1      20.371   5.106  49.174  1.00  0.00     0.060 A 
HETATM   12  C15 UNL     1      20.074   4.684  47.902  1.00  0.00     0.139 A 
HETATM   13  F1  UNL     1      18.718   4.571  47.700  1.00  0.00    -0.204 F 
HETATM   14  C16 UNL     1      21.066   4.421  46.980  1.00  0.00     0.074 A 
HETATM   15 CL1  UNL     1      20.556   3.896  45.411  1.00  0.00    -0.081 Cl
HETATM   16  C17 UNL     1      22.387   4.584  47.341  1.00  0.00     0.057 A 
HETATM   17  C18 UNL     1      22.743   4.996  48.578  1.00  0.00     0.048 A 
HETATM   18  N5  UNL     1      24.215   5.048  48.606  1.00  0.00    -0.340 N 
HETATM   19  H15 UNL     1      24.686   4.604  47.851  1.00  0.00     0.167 HD
ENDROOT
BRANCH   1  20
HETATM   20  N1  UNL     1      25.168   3.112  52.035  1.00  0.00    -0.324 N 
HETATM   21  C6  UNL     1      26.435   2.627  51.565  1.00  0.00     0.298 C 
HETATM   22  O1  UNL     1      26.781   2.702  50.357  1.00  0.00    -0.258 OA
HETATM   23  H8  UNL     1      24.882   3.050  53.035  1.00  0.00     0.165 HD
BRANCH  21  24
HETATM   24  C5  UNL     1      27.341   2.038  52.499  1.00  0.00    -0.006 C 
HETATM   25  C4  UNL     1      28.098   1.533  53.274  1.00  0.00    -0.096 C 
BRANCH  25  26
HETATM   26  C3  UNL     1      29.010   0.894  54.221  1.00  0.00     0.094 C 
BRANCH  26  27
HETATM   27  C2  UNL     1      29.978  -0.064  53.522  1.00  0.00     0.007 C 
HETATM   28  C1  UNL     1      29.412  -1.452  53.453  1.00  0.00     0.006 C 
ENDBRANCH  26  27
ENDBRANCH  25  26
ENDBRANCH  21  24
ENDBRANCH   1  20
TORSDOF 4
ENDMDL
MODEL 7
REMARK VINA RESULT:      -6.9      5.779      8.209
REMARK  4 active torsions:
REMARK  status: ('A' for Active; 'I' for Inactive)
REMARK    1  A    between atoms: C2_2  and  C3_3 
REMARK    2  A    between atoms: C3_3  and  C4_4 
REMARK    3  A    between atoms: C5_5  and  C6_6 
REMARK       I    between atoms: C6_6  and  N1_8 
REMARK    4  A    between atoms: N1_8  and  C7_9 
ROOT
HETATM    1  C7  UNL     1      20.214   0.894  50.462  1.00  0.00     0.235 C 
HETATM    2  C8  UNL     1      20.151   2.214  51.118  1.00  0.00     0.071 C 
HETATM    3  C9  UNL     1      20.624   2.361  52.380  1.00  0.00     0.129 C 
HETATM    4  N2  UNL     1      20.358   3.827  52.552  1.00  0.00    -0.225 NA
HETATM    5  C10 UNL     1      21.335   4.589  51.865  1.00  0.00     0.236 C 
HETATM    6  N3  UNL     1      22.323   4.151  50.826  1.00  0.00    -0.240 NA
HETATM    7  C11 UNL     1      22.559   2.845  50.566  1.00  0.00     0.087 C 
HETATM    8  C12 UNL     1      22.302   1.743  49.566  1.00  0.00     0.145 C 
HETATM    9  N4  UNL     1      21.318   0.908  49.504  1.00  0.00    -0.270 NA
HETATM   10  C13 UNL     1      23.334   1.926  51.485  1.00  0.00     0.024 A 
HETATM   11  C14 UNL     1      24.637   1.756  51.251  1.00  0.00     0.060 A 
HETATM   12  C15 UNL     1      25.325   0.926  52.101  1.00  0.00     0.139 A 
HETATM   13  F1  UNL     1      26.655   0.828  51.762  1.00  0.00    -0.204 F 
HETATM   14  C16 UNL     1      24.697   0.292  53.154  1.00  0.00     0.074 A 
HETATM   15 CL1  UNL     1      25.680  -0.728  54.150  1.00  0.00    -0.081 Cl
HETATM   16  C17 UNL     1      23.349   0.495  53.360  1.00  0.00     0.057 A 
HETATM   17  C18 UNL     1      22.618   1.301  52.558  1.00  0.00     0.048 A 
HETATM   18  N5  UNL     1      21.235   1.272  53.067  1.00  0.00    -0.340 N 
HETATM   19  H15 UNL     1      21.024   0.560  53.729  1.00  0.00     0.167 HD
ENDROOT
BRANCH   1  20
HETATM   20  N1  UNL     1      19.013   0.637  49.740  1.00  0.00    -0.324 N 
HETATM   21  C6  UNL     1      17.958  -0.066  50.416  1.00  0.00     0.298 C 
HETATM   22  O1  UNL     1      18.062  -0.455  51.609  1.00  0.00    -0.258 OA
HETATM   23  H8  UNL     1      18.926   0.959  48.753  1.00  0.00     0.165 HD
BRANCH  21  24
HETATM   24  C5  UNL     1      16.744  -0.335  49.714  1.00  0.00    -0.006 C 
HETATM   25  C4  UNL     1      15.723  -0.549  49.131  1.00  0.00    -0.096 C 
BRANCH  25  26
HETATM   26  C3  UNL     1      14.460  -0.800  48.438  1.00  0.00     0.094 C 
BRANCH  26  27
HETATM   27  C2  UNL     1      14.223  -2.296  48.214  1.00  0.00     0.007 C 
HETATM   28  C1  UNL     1      15.324  -2.903  47.394  1.00  0.00     0.006 C 
ENDBRANCH  26  27
ENDBRANCH  25  26
ENDBRANCH  21  24
ENDBRANCH   1  20
TORSDOF 4
ENDMDL
MODEL 8
REMARK VINA RESULT:      -6.6      4.104      8.227
REMARK  4 active torsions:
REMARK  status: ('A' for Active; 'I' for Inactive)
REMARK    1  A    between atoms: C2_2  and  C3_3 
REMARK    2  A    between atoms: C3_3  and  C4_4 
REMARK    3  A    between atoms: C5_5  and  C6_6 
REMARK       I    between atoms: C6_6  and  N1_8 
REMARK    4  A    between atoms: N1_8  and  C7_9 
ROOT
HETATM    1  C7  UNL     1      22.129   4.811  50.654  1.00  0.00     0.235 C 
HETATM    2  C8  UNL     1      21.972   3.870  49.529  1.00  0.00     0.071 C 
HETATM    3  C9  UNL     1      23.062   3.254  49.010  1.00  0.00     0.129 C 
HETATM    4  N2  UNL     1      22.378   2.429  47.962  1.00  0.00    -0.225 NA
HETATM    5  C10 UNL     1      21.754   1.302  48.551  1.00  0.00     0.236 C 
HETATM    6  N3  UNL     1      21.453   1.030  49.994  1.00  0.00    -0.240 NA
HETATM    7  C11 UNL     1      21.978   1.781  50.990  1.00  0.00     0.087 C 
HETATM    8  C12 UNL     1      21.647   2.853  52.001  1.00  0.00     0.145 C 
HETATM    9  N4  UNL     1      21.704   4.138  51.880  1.00  0.00    -0.270 NA
HETATM   10  C13 UNL     1      23.424   1.717  51.426  1.00  0.00     0.024 A 
HETATM   11  C14 UNL     1      23.737   0.925  52.454  1.00  0.00     0.060 A 
HETATM   12  C15 UNL     1      25.056   0.872  52.830  1.00  0.00     0.139 A 
HETATM   13  F1  UNL     1      25.256   0.026  53.895  1.00  0.00    -0.204 F 
HETATM   14  C16 UNL     1      26.022   1.609  52.174  1.00  0.00     0.074 A 
HETATM   15 CL1  UNL     1      27.648   1.453  52.747  1.00  0.00    -0.081 Cl
HETATM   16  C17 UNL     1      25.656   2.416  51.117  1.00  0.00     0.057 A 
HETATM   17  C18 UNL     1      24.374   2.509  50.700  1.00  0.00     0.048 A 
HETATM   18  N5  UNL     1      24.357   3.456  49.571  1.00  0.00    -0.340 N 
HETATM   19  H15 UNL     1      25.180   3.999  49.439  1.00  0.00     0.167 HD
ENDROOT
BRANCH   1  20
HETATM   20  N1  UNL     1      21.297   5.953  50.472  1.00  0.00    -0.324 N 
HETATM   21  C6  UNL     1      21.899   7.150  49.957  1.00  0.00     0.298 C 
HETATM   22  O1  UNL     1      23.122   7.220  49.666  1.00  0.00    -0.258 OA
HETATM   23  H8  UNL     1      20.284   5.896  50.712  1.00  0.00     0.165 HD
BRANCH  21  24
HETATM   24  C5  UNL     1      21.086   8.308  49.764  1.00  0.00    -0.006 C 
HETATM   25  C4  UNL     1      20.395   9.269  49.598  1.00  0.00    -0.096 C 
BRANCH  25  26
HETATM   26  C3  UNL     1      19.540  10.434  49.375  1.00  0.00     0.094 C 
BRANCH  26  27
HETATM   27  C2  UNL     1      20.346  11.735  49.352  1.00  0.00     0.007 C 
HETATM   28  C1  UNL     1      20.934  11.984  47.994  1.00  0.00     0.006 C 
ENDBRANCH  26  27
ENDBRANCH  25  26
ENDBRANCH  21  24
ENDBRANCH   1  20
TORSDOF 4
ENDMDL
MODEL 9
REMARK VINA RESULT:      -6.5      5.206      6.592
REMARK  4 active torsions:
REMARK  status: ('A' for Active; 'I' for Inactive)
REMARK    1  A    between atoms: C2_2  and  C3_3 
REMARK    2  A    between atoms: C3_3  and  C4_4 
REMARK    3  A    between atoms: C5_5  and  C6_6 
REMARK       I    between atoms: C6_6  and  N1_8 
REMARK    4  A    between atoms: N1_8  and  C7_9 
ROOT
HETATM    1  C7  UNL     1      21.205   1.709  51.634  1.00  0.00     0.235 C 
HETATM    2  C8  UNL     1      21.068   2.005  50.195  1.00  0.00     0.071 C 
HETATM    3  C9  UNL     1      20.001   1.527  49.508  1.00  0.00     0.129 C 
HETATM    4  N2  UNL     1      20.318   2.109  48.163  1.00  0.00    -0.225 NA
HETATM    5  C10 UNL     1      19.994   3.488  48.134  1.00  0.00     0.236 C 
HETATM    6  N3  UNL     1      19.697   4.418  49.272  1.00  0.00    -0.240 NA
HETATM    7  C11 UNL     1      19.473   3.966  50.528  1.00  0.00     0.087 C 
HETATM    8  C12 UNL     1      20.092   3.847  51.900  1.00  0.00     0.145 C 
HETATM    9  N4  UNL     1      20.826   2.903  52.388  1.00  0.00    -0.270 NA
HETATM   10  C13 UNL     1      18.207   3.261  50.960  1.00  0.00     0.024 A 
HETATM   11  C14 UNL     1      17.241   3.991  51.521  1.00  0.00     0.060 A 
HETATM   12  C15 UNL     1      16.096   3.335  51.899  1.00  0.00     0.139 A 
HETATM   13  F1  UNL     1      15.176   4.187  52.464  1.00  0.00    -0.204 F 
HETATM   14  C16 UNL     1      15.947   1.977  51.708  1.00  0.00     0.074 A 
HETATM   15 CL1  UNL     1      14.454   1.272  52.229  1.00  0.00    -0.081 Cl
HETATM   16  C17 UNL     1      16.970   1.259  51.124  1.00  0.00     0.057 A 
HETATM   17  C18 UNL     1      18.121   1.848  50.731  1.00  0.00     0.048 A 
HETATM   18  N5  UNL     1      18.975   0.788  50.166  1.00  0.00    -0.340 N 
HETATM   19  H15 UNL     1      18.689  -0.148  50.342  1.00  0.00     0.167 HD
ENDROOT
BRANCH   1  20
HETATM   20  N1  UNL     1      22.558   1.400  51.954  1.00  0.00    -0.324 N 
HETATM   21  C6  UNL     1      22.809   0.606  53.124  1.00  0.00     0.298 C 
HETATM   22  O1  UNL     1      21.883   0.181  53.863  1.00  0.00    -0.258 OA
HETATM   23  H8  UNL     1      23.325   1.751  51.343  1.00  0.00     0.165 HD
BRANCH  21  24
HETATM   24  C5  UNL     1      24.157   0.282  53.466  1.00  0.00    -0.006 C 
HETATM   25  C4  UNL     1      25.290   0.020  53.744  1.00  0.00    -0.096 C 
BRANCH  25  26
HETATM   26  C3  UNL     1      26.681  -0.298  54.058  1.00  0.00     0.094 C 
BRANCH  26  27
HETATM   27  C2  UNL     1      27.439  -0.811  52.831  1.00  0.00     0.007 C 
HETATM   28  C1  UNL     1      26.953  -2.170  52.422  1.00  0.00     0.006 C 
ENDBRANCH  26  27
ENDBRANCH  25  26
ENDBRANCH  21  24
ENDBRANCH   1  20
TORSDOF 4
ENDMDL
