MODEL 1
REMARK VINA RESULT:      -8.8      0.000      0.000
REMARK  6 active torsions:
REMARK  status: ('A' for Active; 'I' for Inactive)
REMARK    1  A    between atoms: C4_4  and  N1_5 
REMARK    2  A    between atoms: N1_5  and  C5_6 
REMARK    3  A    between atoms: C9_11  and  C10_12 
REMARK    4  A    between atoms: C10_12  and  C11_13 
REMARK    5  A    between atoms: C10_12  and  C12_15 
REMARK    6  A    between atoms: C12_15  and  C13_16 
ROOT
HETATM    1  C5  UNL     1      20.113  -0.629  53.863  1.00  0.00     0.728 A 
HETATM    2  N2  UNL     1      20.808  -1.628  54.439  1.00  0.00    -0.074 NA
HETATM    3  C6  UNL     1      22.161  -1.637  54.458  1.00  0.00     0.151 A 
HETATM    4  C7  UNL     1      22.861  -0.595  53.874  1.00  0.00     0.030 A 
HETATM    5  C8  UNL     1      24.258  -0.555  53.863  1.00  0.00     0.030 A 
HETATM    6  C9  UNL     1      24.980   0.475  53.283  1.00  0.00     0.016 A 
HETATM    7  C14 UNL     1      24.167   1.453  52.717  1.00  0.00     0.255 A 
HETATM    8  O1  UNL     1      24.778   2.427  52.167  1.00  0.00    -0.267 OA
HETATM    9  N3  UNL     1      22.824   1.443  52.711  1.00  0.00    -0.301 N 
HETATM   10  C15 UNL     1      22.124   2.541  52.073  1.00  0.00     0.161 C 
HETATM   11  C16 UNL     1      22.158   0.425  53.286  1.00  0.00     0.163 A 
HETATM   12  N4  UNL     1      20.794   0.392  53.290  1.00  0.00    -0.044 NA
ENDROOT
BRANCH   1  13
HETATM   13  N1  UNL     1      18.696  -0.686  53.871  1.00  0.00    -0.188 N 
HETATM   14  H5  UNL     1      18.550   0.219  54.369  1.00  0.00     0.184 HD
BRANCH  13  15
HETATM   15  C4  UNL     1      17.703  -1.565  53.420  1.00  0.00     0.050 A 
HETATM   16  C3  UNL     1      17.709  -2.880  53.797  1.00  0.00     0.039 A 
HETATM   17  C2  UNL     1      16.690  -3.686  53.309  1.00  0.00    -0.021 A 
HETATM   18  C1  UNL     1      16.671  -5.136  53.703  1.00  0.00     0.051 C 
HETATM   19  C19 UNL     1      15.716  -3.174  52.477  1.00  0.00     0.122 A 
HETATM   20  C18 UNL     1      15.753  -1.824  52.120  1.00  0.00     0.045 A 
HETATM   21  F1  UNL     1      14.742  -3.996  52.025  1.00  0.00    -0.206 F 
HETATM   22  C17 UNL     1      16.760  -1.013  52.598  1.00  0.00     0.033 A 
ENDBRANCH  13  15
ENDBRANCH   1  13
BRANCH   6  23
HETATM   23  C10 UNL     1      26.435   0.468  53.267  1.00  0.00     0.039 C 
BRANCH  23  24
HETATM   24  C11 UNL     1      27.083  -0.368  52.192  1.00  0.00     0.124 C 
HETATM   25 CL1  UNL     1      27.058  -2.076  52.634  1.00  0.00    -0.130 Cl
ENDBRANCH  23  24
BRANCH  23  26
HETATM   26  C12 UNL     1      27.136   0.391  54.588  1.00  0.00     0.025 C 
BRANCH  26  27
HETATM   27  C13 UNL     1      28.563   0.785  54.458  1.00  0.00     0.115 C 
HETATM   28 CL2  UNL     1      28.673   2.459  53.785  1.00  0.00    -0.130 Cl
ENDBRANCH  26  27
ENDBRANCH  23  26
ENDBRANCH   6  23
TORSDOF 6
ENDMDL
MODEL 2
REMARK VINA RESULT:      -8.1      1.553      2.356
REMARK  6 active torsions:
REMARK  status: ('A' for Active; 'I' for Inactive)
REMARK    1  A    between atoms: C4_4  and  N1_5 
REMARK    2  A    between atoms: N1_5  and  C5_6 
REMARK    3  A    between atoms: C9_11  and  C10_12 
REMARK    4  A    between atoms: C10_12  and  C11_13 
REMARK    5  A    between atoms: C10_12  and  C12_15 
REMARK    6  A    between atoms: C12_15  and  C13_16 
ROOT
HETATM    1  C5  UNL     1      20.050   0.065  52.820  1.00  0.00     0.728 A 
HETATM    2  N2  UNL     1      20.512   0.727  51.742  1.00  0.00    -0.074 NA
HETATM    3  C6  UNL     1      21.836   0.887  51.515  1.00  0.00     0.151 A 
HETATM    4  C7  UNL     1      22.752   0.359  52.409  1.00  0.00     0.030 A 
HETATM    5  C8  UNL     1      24.130   0.496  52.226  1.00  0.00     0.030 A 
HETATM    6  C9  UNL     1      25.065  -0.021  53.108  1.00  0.00     0.016 A 
HETATM    7  C14 UNL     1      24.484  -0.685  54.184  1.00  0.00     0.255 A 
HETATM    8  O1  UNL     1      25.297  -1.182  55.030  1.00  0.00    -0.267 OA
HETATM    9  N3  UNL     1      23.165  -0.833  54.388  1.00  0.00    -0.301 N 
HETATM   10  C15 UNL     1      22.721  -1.551  55.567  1.00  0.00     0.161 C 
HETATM   11  C16 UNL     1      22.287  -0.317  53.509  1.00  0.00     0.163 A 
HETATM   12  N4  UNL     1      20.942  -0.453  53.696  1.00  0.00    -0.044 NA
ENDROOT
BRANCH   1  13
HETATM   13  N1  UNL     1      18.649  -0.059  52.999  1.00  0.00    -0.188 N 
HETATM   14  H5  UNL     1      18.492   0.916  53.338  1.00  0.00     0.184 HD
BRANCH  13  15
HETATM   15  C4  UNL     1      17.678  -1.054  52.830  1.00  0.00     0.050 A 
HETATM   16  C3  UNL     1      17.820  -2.278  53.427  1.00  0.00     0.039 A 
HETATM   17  C2  UNL     1      16.814  -3.210  53.212  1.00  0.00    -0.021 A 
HETATM   18  C1  UNL     1      16.943  -4.564  53.850  1.00  0.00     0.051 C 
HETATM   19  C19 UNL     1      15.720  -2.907  52.428  1.00  0.00     0.122 A 
HETATM   20  C18 UNL     1      15.621  -1.643  51.841  1.00  0.00     0.045 A 
HETATM   21  F1  UNL     1      14.764  -3.846  52.246  1.00  0.00    -0.206 F 
HETATM   22  C17 UNL     1      16.613  -0.709  52.046  1.00  0.00     0.033 A 
ENDBRANCH  13  15
ENDBRANCH   1  13
BRANCH   6  23
HETATM   23  C10 UNL     1      26.493   0.166  52.897  1.00  0.00     0.039 C 
BRANCH  23  24
HETATM   24  C11 UNL     1      26.886   1.306  51.992  1.00  0.00     0.124 C 
HETATM   25 CL1  UNL     1      27.817   2.512  52.880  1.00  0.00    -0.130 Cl
ENDBRANCH  23  24
BRANCH  23  26
HETATM   26  C12 UNL     1      27.327  -1.063  52.708  1.00  0.00     0.025 C 
BRANCH  26  27
HETATM   27  C13 UNL     1      28.669  -0.896  53.323  1.00  0.00     0.115 C 
HETATM   28 CL2  UNL     1      28.508  -0.057  54.916  1.00  0.00    -0.130 Cl
ENDBRANCH  26  27
ENDBRANCH  23  26
ENDBRANCH   6  23
TORSDOF 6
ENDMDL
MODEL 3
REMARK VINA RESULT:      -7.9      1.647      2.288
REMARK  6 active torsions:
REMARK  status: ('A' for Active; 'I' for Inactive)
REMARK    1  A    between atoms: C4_4  and  N1_5 
REMARK    2  A    between atoms: N1_5  and  C5_6 
REMARK    3  A    between atoms: C9_11  and  C10_12 
REMARK    4  A    between atoms: C10_12  and  C11_13 
REMARK    5  A    between atoms: C10_12  and  C12_15 
REMARK    6  A    between atoms: C12_15  and  C13_16 
ROOT
HETATM    1  C5  UNL     1      20.568  -0.902  53.915  1.00  0.00     0.728 A 
HETATM    2  N2  UNL     1      21.168  -1.589  54.905  1.00  0.00    -0.074 NA
HETATM    3  C6  UNL     1      22.506  -1.543  55.098  1.00  0.00     0.151 A 
HETATM    4  C7  UNL     1      23.292  -0.770  54.259  1.00  0.00     0.030 A 
HETATM    5  C8  UNL     1      24.678  -0.688  54.411  1.00  0.00     0.030 A 
HETATM    6  C9  UNL     1      25.485   0.076  53.584  1.00  0.00     0.016 A 
HETATM    7  C14 UNL     1      24.767   0.744  52.596  1.00  0.00     0.255 A 
HETATM    8  O1  UNL     1      25.459   1.463  51.803  1.00  0.00    -0.267 OA
HETATM    9  N3  UNL     1      23.437   0.685  52.424  1.00  0.00    -0.301 N 
HETATM   10  C15 UNL     1      22.843   1.441  51.339  1.00  0.00     0.161 C 
HETATM   11  C16 UNL     1      22.687  -0.068  53.249  1.00  0.00     0.163 A 
HETATM   12  N4  UNL     1      21.333  -0.145  53.093  1.00  0.00    -0.044 NA
ENDROOT
BRANCH   1  13
HETATM   13  N1  UNL     1      19.161  -1.002  53.765  1.00  0.00    -0.188 N 
HETATM   14  H5  UNL     1      18.959  -1.237  54.762  1.00  0.00     0.184 HD
BRANCH  13  15
HETATM   15  C4  UNL     1      18.228  -0.864  52.730  1.00  0.00     0.050 A 
HETATM   16  C3  UNL     1      17.011  -1.485  52.799  1.00  0.00     0.039 A 
HETATM   17  C2  UNL     1      16.140  -1.297  51.734  1.00  0.00    -0.021 A 
HETATM   18  C1  UNL     1      14.797  -1.969  51.779  1.00  0.00     0.051 C 
HETATM   19  C19 UNL     1      16.497  -0.517  50.654  1.00  0.00     0.122 A 
HETATM   20  C18 UNL     1      17.753   0.096  50.630  1.00  0.00     0.045 A 
HETATM   21  F1  UNL     1      15.618  -0.362  49.638  1.00  0.00    -0.206 F 
HETATM   22  C17 UNL     1      18.626  -0.083  51.682  1.00  0.00     0.033 A 
ENDBRANCH  13  15
ENDBRANCH   1  13
BRANCH   6  23
HETATM   23  C10 UNL     1      26.929   0.115  53.756  1.00  0.00     0.039 C 
BRANCH  23  24
HETATM   24  C11 UNL     1      27.495   1.388  54.333  1.00  0.00     0.124 C 
HETATM   25 CL1  UNL     1      28.487   2.224  53.138  1.00  0.00    -0.130 Cl
ENDBRANCH  23  24
BRANCH  23  26
HETATM   26  C12 UNL     1      27.768  -0.470  52.662  1.00  0.00     0.025 C 
BRANCH  26  27
HETATM   27  C13 UNL     1      28.594  -1.597  53.167  1.00  0.00     0.115 C 
HETATM   28 CL2  UNL     1      30.177  -0.968  53.772  1.00  0.00    -0.130 Cl
ENDBRANCH  26  27
ENDBRANCH  23  26
ENDBRANCH   6  23
TORSDOF 6
ENDMDL
MODEL 4
REMARK VINA RESULT:      -7.8      4.947      9.037
REMARK  6 active torsions:
REMARK  status: ('A' for Active; 'I' for Inactive)
REMARK    1  A    between atoms: C4_4  and  N1_5 
REMARK    2  A    between atoms: N1_5  and  C5_6 
REMARK    3  A    between atoms: C9_11  and  C10_12 
REMARK    4  A    between atoms: C10_12  and  C11_13 
REMARK    5  A    between atoms: C10_12  and  C12_15 
REMARK    6  A    between atoms: C12_15  and  C13_16 
ROOT
HETATM    1  C5  UNL     1      24.659   1.385  52.120  1.00  0.00     0.728 A 
HETATM    2  N2  UNL     1      23.980   0.880  53.167  1.00  0.00    -0.074 NA
HETATM    3  C6  UNL     1      22.640   0.698  53.128  1.00  0.00     0.151 A 
HETATM    4  C7  UNL     1      21.936   1.036  51.985  1.00  0.00     0.030 A 
HETATM    5  C8  UNL     1      20.552   0.872  51.891  1.00  0.00     0.030 A 
HETATM    6  C9  UNL     1      19.826   1.205  50.759  1.00  0.00     0.016 A 
HETATM    7  C14 UNL     1      20.622   1.717  49.738  1.00  0.00     0.255 A 
HETATM    8  O1  UNL     1      20.007   2.042  48.670  1.00  0.00    -0.267 OA
HETATM    9  N3  UNL     1      21.953   1.887  49.798  1.00  0.00    -0.301 N 
HETATM   10  C15 UNL     1      22.635   2.439  48.643  1.00  0.00     0.161 C 
HETATM   11  C16 UNL     1      22.623   1.551  50.915  1.00  0.00     0.163 A 
HETATM   12  N4  UNL     1      23.975   1.717  51.000  1.00  0.00    -0.044 NA
ENDROOT
BRANCH   1  13
HETATM   13  N1  UNL     1      26.063   1.556  52.232  1.00  0.00    -0.188 N 
HETATM   14  H5  UNL     1      26.092   2.512  51.816  1.00  0.00     0.184 HD
BRANCH  13  15
HETATM   15  C4  UNL     1      27.151   0.812  52.704  1.00  0.00     0.050 A 
HETATM   16  C3  UNL     1      27.173  -0.551  52.579  1.00  0.00     0.039 A 
HETATM   17  C2  UNL     1      28.288  -1.216  53.070  1.00  0.00    -0.021 A 
HETATM   18  C1  UNL     1      28.341  -2.713  52.951  1.00  0.00     0.051 C 
HETATM   19  C19 UNL     1      29.326  -0.524  53.659  1.00  0.00     0.122 A 
HETATM   20  C18 UNL     1      29.257   0.868  53.763  1.00  0.00     0.045 A 
HETATM   21  F1  UNL     1      30.393  -1.213  54.123  1.00  0.00    -0.206 F 
HETATM   22  C17 UNL     1      28.155   1.540  53.279  1.00  0.00     0.033 A 
ENDBRANCH  13  15
ENDBRANCH   1  13
BRANCH   6  23
HETATM   23  C10 UNL     1      18.381   1.046  50.709  1.00  0.00     0.039 C 
BRANCH  23  24
HETATM   24  C11 UNL     1      17.569   2.135  51.363  1.00  0.00     0.124 C 
HETATM   25 CL1  UNL     1      17.046   3.322  50.168  1.00  0.00    -0.130 Cl
ENDBRANCH  23  24
BRANCH  23  26
HETATM   26  C12 UNL     1      17.832  -0.328  50.940  1.00  0.00     0.025 C 
BRANCH  26  27
HETATM   27  C13 UNL     1      17.073  -0.392  52.216  1.00  0.00     0.115 C 
HETATM   28 CL2  UNL     1      18.000  -1.360  53.428  1.00  0.00    -0.130 Cl
ENDBRANCH  26  27
ENDBRANCH  23  26
ENDBRANCH   6  23
TORSDOF 6
ENDMDL
MODEL 5
REMARK VINA RESULT:      -7.8      6.295     10.338
REMARK  6 active torsions:
REMARK  status: ('A' for Active; 'I' for Inactive)
REMARK    1  A    between atoms: C4_4  and  N1_5 
REMARK    2  A    between atoms: N1_5  and  C5_6 
REMARK    3  A    between atoms: C9_11  and  C10_12 
REMARK    4  A    between atoms: C10_12  and  C11_13 
REMARK    5  A    between atoms: C10_12  and  C12_15 
REMARK    6  A    between atoms: C12_15  and  C13_16 
ROOT
HETATM    1  C5  UNL     1      26.188   3.394  49.700  1.00  0.00     0.728 A 
HETATM    2  N2  UNL     1      24.913   3.627  49.338  1.00  0.00    -0.074 NA
HETATM    3  C6  UNL     1      23.871   3.076  50.001  1.00  0.00     0.151 A 
HETATM    4  C7  UNL     1      24.110   2.248  51.085  1.00  0.00     0.030 A 
HETATM    5  C8  UNL     1      23.072   1.650  51.805  1.00  0.00     0.030 A 
HETATM    6  C9  UNL     1      23.286   0.817  52.890  1.00  0.00     0.016 A 
HETATM    7  C14 UNL     1      24.637   0.644  53.180  1.00  0.00     0.255 A 
HETATM    8  O1  UNL     1      24.895  -0.115  54.170  1.00  0.00    -0.267 OA
HETATM    9  N3  UNL     1      25.656   1.203  52.508  1.00  0.00    -0.301 N 
HETATM   10  C15 UNL     1      27.011   0.916  52.937  1.00  0.00     0.161 C 
HETATM   11  C16 UNL     1      25.407   2.008  51.459  1.00  0.00     0.163 A 
HETATM   12  N4  UNL     1      26.427   2.586  50.760  1.00  0.00    -0.044 NA
ENDROOT
BRANCH   1  13
HETATM   13  N1  UNL     1      27.234   3.999  48.956  1.00  0.00    -0.188 N 
HETATM   14  H5  UNL     1      27.739   3.114  48.734  1.00  0.00     0.184 HD
BRANCH  13  15
HETATM   15  C4  UNL     1      27.599   5.294  48.568  1.00  0.00     0.050 A 
HETATM   16  C3  UNL     1      28.886   5.576  48.200  1.00  0.00     0.039 A 
HETATM   17  C2  UNL     1      29.168   6.883  47.826  1.00  0.00    -0.021 A 
HETATM   18  C1  UNL     1      30.574   7.226  47.420  1.00  0.00     0.051 C 
HETATM   19  C19 UNL     1      28.185   7.851  47.830  1.00  0.00     0.122 A 
HETATM   20  C18 UNL     1      26.885   7.513  48.214  1.00  0.00     0.045 A 
HETATM   21  F1  UNL     1      28.505   9.112  47.459  1.00  0.00    -0.206 F 
HETATM   22  C17 UNL     1      26.593   6.219  48.588  1.00  0.00     0.033 A 
ENDBRANCH  13  15
ENDBRANCH   1  13
BRANCH   6  23
HETATM   23  C10 UNL     1      22.180   0.191  53.598  1.00  0.00     0.039 C 
BRANCH  23  24
HETATM   24  C11 UNL     1      22.101  -1.312  53.509  1.00  0.00     0.124 C 
HETATM   25 CL1  UNL     1      22.185  -2.034  55.117  1.00  0.00    -0.130 Cl
ENDBRANCH  23  24
BRANCH  23  26
HETATM   26  C12 UNL     1      20.844   0.864  53.520  1.00  0.00     0.025 C 
BRANCH  26  27
HETATM   27  C13 UNL     1      19.807  -0.065  53.001  1.00  0.00     0.115 C 
HETATM   28 CL2  UNL     1      19.455   0.321  51.271  1.00  0.00    -0.130 Cl
ENDBRANCH  26  27
ENDBRANCH  23  26
ENDBRANCH   6  23
TORSDOF 6
ENDMDL
MODEL 6
REMARK VINA RESULT:      -7.7      7.297      9.567
REMARK  6 active torsions:
REMARK  status: ('A' for Active; 'I' for Inactive)
REMARK    1  A    between atoms: C4_4  and  N1_5 
REMARK    2  A    between atoms: N1_5  and  C5_6 
REMARK    3  A    between atoms: C9_11  and  C10_12 
REMARK    4  A    between atoms: C10_12  and  C11_13 
REMARK    5  A    between atoms: C10_12  and  C12_15 
REMARK    6  A    between atoms: C12_15  and  C13_16 
ROOT
HETATM    1  C5  UNL     1      25.916   2.484  51.615  1.00  0.00     0.728 A 
HETATM    2  N2  UNL     1      26.773   2.716  50.602  1.00  0.00    -0.074 NA
HETATM    3  C6  UNL     1      26.560   3.701  49.699  1.00  0.00     0.151 A 
HETATM    4  C7  UNL     1      25.434   4.500  49.810  1.00  0.00     0.030 A 
HETATM    5  C8  UNL     1      25.164   5.529  48.905  1.00  0.00     0.030 A 
HETATM    6  C9  UNL     1      24.044   6.340  48.994  1.00  0.00     0.016 A 
HETATM    7  C14 UNL     1      23.227   6.016  50.074  1.00  0.00     0.255 A 
HETATM    8  O1  UNL     1      22.179   6.729  50.205  1.00  0.00    -0.267 OA
HETATM    9  N3  UNL     1      23.459   5.034  50.959  1.00  0.00    -0.301 N 
HETATM   10  C15 UNL     1      22.503   4.823  52.029  1.00  0.00     0.161 C 
HETATM   11  C16 UNL     1      24.559   4.268  50.840  1.00  0.00     0.163 A 
HETATM   12  N4  UNL     1      24.815   3.262  51.727  1.00  0.00    -0.044 NA
ENDROOT
BRANCH   1  13
HETATM   13  N1  UNL     1      26.197   1.429  52.521  1.00  0.00    -0.188 N 
HETATM   14  H5  UNL     1      25.220   1.318  52.869  1.00  0.00     0.184 HD
BRANCH  13  15
HETATM   15  C4  UNL     1      27.319   0.692  52.920  1.00  0.00     0.050 A 
HETATM   16  C3  UNL     1      27.362  -0.664  52.745  1.00  0.00     0.039 A 
HETATM   17  C2  UNL     1      28.510  -1.323  53.165  1.00  0.00    -0.021 A 
HETATM   18  C1  UNL     1      28.587  -2.812  52.989  1.00  0.00     0.051 C 
HETATM   19  C19 UNL     1      29.558  -0.630  53.736  1.00  0.00     0.122 A 
HETATM   20  C18 UNL     1      29.465   0.755  53.894  1.00  0.00     0.045 A 
HETATM   21  F1  UNL     1      30.657  -1.312  54.131  1.00  0.00    -0.206 F 
HETATM   22  C17 UNL     1      28.330   1.420  53.481  1.00  0.00     0.033 A 
ENDBRANCH  13  15
ENDBRANCH   1  13
BRANCH   6  23
HETATM   23  C10 UNL     1      23.783   7.384  48.016  1.00  0.00     0.039 C 
BRANCH  23  24
HETATM   24  C11 UNL     1      23.415   6.919  46.629  1.00  0.00     0.124 C 
HETATM   25 CL1  UNL     1      22.021   5.839  46.686  1.00  0.00    -0.130 Cl
ENDBRANCH  23  24
BRANCH  23  26
HETATM   26  C12 UNL     1      24.688   8.577  48.025  1.00  0.00     0.025 C 
BRANCH  26  27
HETATM   27  C13 UNL     1      25.461   8.670  46.759  1.00  0.00     0.115 C 
HETATM   28 CL2  UNL     1      27.101   7.948  46.994  1.00  0.00    -0.130 Cl
ENDBRANCH  26  27
ENDBRANCH  23  26
ENDBRANCH   6  23
TORSDOF 6
ENDMDL
MODEL 7
REMARK VINA RESULT:      -7.7      5.307      9.119
REMARK  6 active torsions:
REMARK  status: ('A' for Active; 'I' for Inactive)
REMARK    1  A    between atoms: C4_4  and  N1_5 
REMARK    2  A    between atoms: N1_5  and  C5_6 
REMARK    3  A    between atoms: C9_11  and  C10_12 
REMARK    4  A    between atoms: C10_12  and  C11_13 
REMARK    5  A    between atoms: C10_12  and  C12_15 
REMARK    6  A    between atoms: C12_15  and  C13_16 
ROOT
HETATM    1  C5  UNL     1      24.638   2.580  52.714  1.00  0.00     0.728 A 
HETATM    2  N2  UNL     1      24.275   3.631  51.954  1.00  0.00    -0.074 NA
HETATM    3  C6  UNL     1      23.002   3.799  51.530  1.00  0.00     0.151 A 
HETATM    4  C7  UNL     1      22.035   2.871  51.880  1.00  0.00     0.030 A 
HETATM    5  C8  UNL     1      20.706   2.994  51.467  1.00  0.00     0.030 A 
HETATM    6  C9  UNL     1      19.722   2.078  51.803  1.00  0.00     0.016 A 
HETATM    7  C14 UNL     1      20.203   1.033  52.588  1.00  0.00     0.255 A 
HETATM    8  O1  UNL     1      19.341   0.158  52.927  1.00  0.00    -0.267 OA
HETATM    9  N3  UNL     1      21.472   0.887  53.000  1.00  0.00    -0.301 N 
HETATM   10  C15 UNL     1      21.810  -0.265  53.812  1.00  0.00     0.161 C 
HETATM   11  C16 UNL     1      22.399   1.799  52.654  1.00  0.00     0.163 A 
HETATM   12  N4  UNL     1      23.696   1.671  53.059  1.00  0.00    -0.044 NA
ENDROOT
BRANCH   1  13
HETATM   13  N1  UNL     1      25.992   2.462  53.118  1.00  0.00    -0.188 N 
HETATM   14  H5  UNL     1      26.120   3.464  53.378  1.00  0.00     0.184 HD
BRANCH  13  15
HETATM   15  C4  UNL     1      26.952   1.445  53.201  1.00  0.00     0.050 A 
HETATM   16  C3  UNL     1      26.635   0.156  52.867  1.00  0.00     0.039 A 
HETATM   17  C2  UNL     1      27.641  -0.794  52.974  1.00  0.00    -0.021 A 
HETATM   18  C1  UNL     1      27.324  -2.218  52.618  1.00  0.00     0.051 C 
HETATM   19  C19 UNL     1      28.905  -0.445  53.402  1.00  0.00     0.122 A 
HETATM   20  C18 UNL     1      29.180   0.885  53.732  1.00  0.00     0.045 A 
HETATM   21  F1  UNL     1      29.855  -1.403  53.492  1.00  0.00    -0.206 F 
HETATM   22  C17 UNL     1      28.188   1.838  53.630  1.00  0.00     0.033 A 
ENDBRANCH  13  15
ENDBRANCH   1  13
BRANCH   6  23
HETATM   23  C10 UNL     1      18.354   2.225  51.331  1.00  0.00     0.039 C 
BRANCH  23  24
HETATM   24  C11 UNL     1      18.057   1.653  49.968  1.00  0.00     0.124 C 
HETATM   25 CL1  UNL     1      17.433   0.009  50.107  1.00  0.00    -0.130 Cl
ENDBRANCH  23  24
BRANCH  23  26
HETATM   26  C12 UNL     1      17.674   3.533  51.591  1.00  0.00     0.025 C 
BRANCH  26  27
HETATM   27  C13 UNL     1      16.198   3.398  51.482  1.00  0.00     0.115 C 
HETATM   28 CL2  UNL     1      15.412   4.102  52.950  1.00  0.00    -0.130 Cl
ENDBRANCH  26  27
ENDBRANCH  23  26
ENDBRANCH   6  23
TORSDOF 6
ENDMDL
MODEL 8
REMARK VINA RESULT:      -7.7      7.661     10.150
REMARK  6 active torsions:
REMARK  status: ('A' for Active; 'I' for Inactive)
REMARK    1  A    between atoms: C4_4  and  N1_5 
REMARK    2  A    between atoms: N1_5  and  C5_6 
REMARK    3  A    between atoms: C9_11  and  C10_12 
REMARK    4  A    between atoms: C10_12  and  C11_13 
REMARK    5  A    between atoms: C10_12  and  C12_15 
REMARK    6  A    between atoms: C12_15  and  C13_16 
ROOT
HETATM    1  C5  UNL     1      26.247   3.668  50.257  1.00  0.00     0.728 A 
HETATM    2  N2  UNL     1      27.304   3.671  49.423  1.00  0.00    -0.074 NA
HETATM    3  C6  UNL     1      27.607   4.745  48.659  1.00  0.00     0.151 A 
HETATM    4  C7  UNL     1      26.816   5.880  48.728  1.00  0.00     0.030 A 
HETATM    5  C8  UNL     1      27.082   7.016  47.959  1.00  0.00     0.030 A 
HETATM    6  C9  UNL     1      26.304   8.161  48.009  1.00  0.00     0.016 A 
HETATM    7  C14 UNL     1      25.240   8.053  48.901  1.00  0.00     0.255 A 
HETATM    8  O1  UNL     1      24.488   9.078  48.988  1.00  0.00    -0.267 OA
HETATM    9  N3  UNL     1      24.958   6.976  49.652  1.00  0.00    -0.301 N 
HETATM   10  C15 UNL     1      23.806   7.024  50.530  1.00  0.00     0.161 C 
HETATM   11  C16 UNL     1      25.739   5.882  49.576  1.00  0.00     0.163 A 
HETATM   12  N4  UNL     1      25.471   4.775  50.328  1.00  0.00    -0.044 NA
ENDROOT
BRANCH   1  13
HETATM   13  N1  UNL     1      25.983   2.505  51.024  1.00  0.00    -0.188 N 
HETATM   14  H5  UNL     1      24.966   2.449  50.796  1.00  0.00     0.184 HD
BRANCH  13  15
HETATM   15  C4  UNL     1      26.708   1.631  51.844  1.00  0.00     0.050 A 
HETATM   16  C3  UNL     1      26.477   0.283  51.805  1.00  0.00     0.039 A 
HETATM   17  C2  UNL     1      27.238  -0.517  52.647  1.00  0.00    -0.021 A 
HETATM   18  C1  UNL     1      27.005  -2.001  52.630  1.00  0.00     0.051 C 
HETATM   19  C19 UNL     1      28.185   0.034  53.485  1.00  0.00     0.122 A 
HETATM   20  C18 UNL     1      28.384   1.417  53.488  1.00  0.00     0.045 A 
HETATM   21  F1  UNL     1      28.904  -0.784  54.288  1.00  0.00    -0.206 F 
HETATM   22  C17 UNL     1      27.634   2.221  52.657  1.00  0.00     0.033 A 
ENDBRANCH  13  15
ENDBRANCH   1  13
BRANCH   6  23
HETATM   23  C10 UNL     1      26.596   9.315  47.173  1.00  0.00     0.039 C 
BRANCH  23  24
HETATM   24  C11 UNL     1      26.124   9.235  45.743  1.00  0.00     0.124 C 
HETATM   25 CL1  UNL     1      27.366   8.512  44.720  1.00  0.00    -0.130 Cl
ENDBRANCH  23  24
BRANCH  23  26
HETATM   26  C12 UNL     1      27.944   9.950  47.323  1.00  0.00     0.025 C 
BRANCH  26  27
HETATM   27  C13 UNL     1      28.134  10.480  48.698  1.00  0.00     0.115 C 
HETATM   28 CL2  UNL     1      29.657   9.810  49.403  1.00  0.00    -0.130 Cl
ENDBRANCH  26  27
ENDBRANCH  23  26
ENDBRANCH   6  23
TORSDOF 6
ENDMDL
MODEL 9
REMARK VINA RESULT:      -7.6      6.096      8.036
REMARK  6 active torsions:
REMARK  status: ('A' for Active; 'I' for Inactive)
REMARK    1  A    between atoms: C4_4  and  N1_5 
REMARK    2  A    between atoms: N1_5  and  C5_6 
REMARK    3  A    between atoms: C9_11  and  C10_12 
REMARK    4  A    between atoms: C10_12  and  C11_13 
REMARK    5  A    between atoms: C10_12  and  C12_15 
REMARK    6  A    between atoms: C12_15  and  C13_16 
ROOT
HETATM    1  C5  UNL     1      24.459   3.721  50.703  1.00  0.00     0.728 A 
HETATM    2  N2  UNL     1      25.375   2.925  50.120  1.00  0.00    -0.074 NA
HETATM    3  C6  UNL     1      26.420   3.429  49.424  1.00  0.00     0.151 A 
HETATM    4  C7  UNL     1      26.562   4.801  49.302  1.00  0.00     0.030 A 
HETATM    5  C8  UNL     1      27.620   5.375  48.592  1.00  0.00     0.030 A 
HETATM    6  C9  UNL     1      27.783   6.744  48.454  1.00  0.00     0.016 A 
HETATM    7  C14 UNL     1      26.784   7.474  49.093  1.00  0.00     0.255 A 
HETATM    8  O1  UNL     1      26.882   8.741  48.998  1.00  0.00    -0.267 OA
HETATM    9  N3  UNL     1      25.756   6.952  49.781  1.00  0.00    -0.301 N 
HETATM   10  C15 UNL     1      24.795   7.854  50.385  1.00  0.00     0.161 C 
HETATM   11  C16 UNL     1      25.633   5.617  49.894  1.00  0.00     0.163 A 
HETATM   12  N4  UNL     1      24.595   5.063  50.586  1.00  0.00    -0.044 NA
ENDROOT
BRANCH   1  13
HETATM   13  N1  UNL     1      23.385   3.126  51.412  1.00  0.00    -0.188 N 
HETATM   14  H5  UNL     1      22.784   3.978  51.442  1.00  0.00     0.184 HD
BRANCH  13  15
HETATM   15  C4  UNL     1      23.082   1.867  51.947  1.00  0.00     0.050 A 
HETATM   16  C3  UNL     1      23.939   1.256  52.822  1.00  0.00     0.039 A 
HETATM   17  C2  UNL     1      23.567   0.011  53.310  1.00  0.00    -0.021 A 
HETATM   18  C1  UNL     1      24.488  -0.688  54.270  1.00  0.00     0.051 C 
HETATM   19  C19 UNL     1      22.382  -0.580  52.921  1.00  0.00     0.122 A 
HETATM   20  C18 UNL     1      21.541   0.085  52.025  1.00  0.00     0.045 A 
HETATM   21  F1  UNL     1      22.060  -1.794  53.422  1.00  0.00    -0.206 F 
HETATM   22  C17 UNL     1      21.900   1.322  51.534  1.00  0.00     0.033 A 
ENDBRANCH  13  15
ENDBRANCH   1  13
BRANCH   6  23
HETATM   23  C10 UNL     1      28.882   7.305  47.684  1.00  0.00     0.039 C 
BRANCH  23  24
HETATM   24  C11 UNL     1      28.546   7.775  46.291  1.00  0.00     0.124 C 
HETATM   25 CL1  UNL     1      29.768   8.903  45.704  1.00  0.00    -0.130 Cl
ENDBRANCH  23  24
BRANCH  23  26
HETATM   26  C12 UNL     1      30.209   6.616  47.778  1.00  0.00     0.025 C 
BRANCH  26  27
HETATM   27  C13 UNL     1      31.048   7.219  48.846  1.00  0.00     0.115 C 
HETATM   28 CL2  UNL     1      30.421   8.863  49.257  1.00  0.00    -0.130 Cl
ENDBRANCH  26  27
ENDBRANCH  23  26
ENDBRANCH   6  23
TORSDOF 6
ENDMDL
