MODEL 1
REMARK VINA RESULT:      -7.9      0.000      0.000
REMARK  4 active torsions:
REMARK  status: ('A' for Active; 'I' for Inactive)
REMARK    1  A    between atoms: C4_5  and  C5_6 
REMARK    2  A    between atoms: C7_10  and  S1_11 
REMARK    3  A    between atoms: S1_11  and  C8_12 
REMARK    4  A    between atoms: C8_12  and  C9_13 
REMARK       I    between atoms: C9_13  and  N3_15 
ROOT
HETATM    1  C5  UNL     1      23.835   0.595  53.296  1.00  0.00     0.159 A 
HETATM    2  N1  UNL     1      23.425  -0.494  53.821  1.00  0.00    -0.251 NA
HETATM    3  C6  UNL     1      22.070  -0.922  53.965  1.00  0.00     0.274 A 
HETATM    4  N2  UNL     1      21.152   0.059  53.422  1.00  0.00    -0.351 N 
HETATM    5  C7  UNL     1      21.612   1.288  52.830  1.00  0.00     0.166 A 
HETATM    6  N4  UNL     1      22.882   1.512  52.785  1.00  0.00    -0.205 NA
HETATM    7  H5  UNL     1      20.146  -0.201  53.501  1.00  0.00     0.163 HD
ENDROOT
BRANCH   5   8
HETATM    8  S1  UNL     1      20.403   2.446  52.184  1.00  0.00    -0.083 SA
BRANCH   8   9
HETATM    9  C8  UNL     1      21.314   3.789  51.374  1.00  0.00     0.187 C 
BRANCH   9  10
HETATM   10  C9  UNL     1      21.952   3.354  50.121  1.00  0.00     0.253 C 
HETATM   11  O2  UNL     1      21.869   2.327  49.387  1.00  0.00    -0.270 OA
HETATM   12  N3  UNL     1      22.864   4.293  49.614  1.00  0.00    -0.218 NA
HETATM   13  C10 UNL     1      24.147   4.162  49.583  1.00  0.00     0.043 A 
HETATM   14  C11 UNL     1      24.853   5.297  49.000  1.00  0.00     0.051 A 
HETATM   15  C15 UNL     1      24.808   2.939  50.110  1.00  0.00     0.086 A 
HETATM   16  C12 UNL     1      26.174   5.255  48.926  1.00  0.00     0.035 A 
HETATM   17 CL1  UNL     1      27.044   6.604  48.230  1.00  0.00    -0.084 Cl
HETATM   18  C13 UNL     1      26.954   4.119  49.403  1.00  0.00     0.020 A 
HETATM   19  C14 UNL     1      26.271   3.112  49.925  1.00  0.00    -0.019 A 
ENDBRANCH   9  10
ENDBRANCH   8   9
ENDBRANCH   5   8
BRANCH   1  20
HETATM   20  C4  UNL     1      25.273   0.893  53.223  1.00  0.00     0.015 A 
HETATM   21  C3  UNL     1      26.288   0.181  52.448  1.00  0.00     0.019 A 
HETATM   22  C2  UNL     1      27.477   0.733  52.629  1.00  0.00     0.056 A 
HETATM   23  C1  UNL     1      27.311   1.860  53.551  1.00  0.00     0.172 A 
HETATM   24  O1  UNL     1      28.126   2.694  54.032  1.00  0.00    -0.288 OA
HETATM   25  C16 UNL     1      25.885   1.867  53.859  1.00  0.00     0.070 A 
ENDBRANCH   1  20
TORSDOF 4
ENDMDL
MODEL 2
REMARK VINA RESULT:      -7.7      2.651      4.941
REMARK  4 active torsions:
REMARK  status: ('A' for Active; 'I' for Inactive)
REMARK    1  A    between atoms: C4_5  and  C5_6 
REMARK    2  A    between atoms: C7_10  and  S1_11 
REMARK    3  A    between atoms: S1_11  and  C8_12 
REMARK    4  A    between atoms: C8_12  and  C9_13 
REMARK       I    between atoms: C9_13  and  N3_15 
ROOT
HETATM    1  C5  UNL     1      22.418   0.118  53.493  1.00  0.00     0.159 A 
HETATM    2  N1  UNL     1      21.988  -0.602  54.456  1.00  0.00    -0.251 NA
HETATM    3  C6  UNL     1      22.771  -1.368  55.373  1.00  0.00     0.274 A 
HETATM    4  N2  UNL     1      24.186  -1.239  55.087  1.00  0.00    -0.351 N 
HETATM    5  C7  UNL     1      24.672  -0.428  54.000  1.00  0.00     0.166 A 
HETATM    6  N4  UNL     1      23.815   0.198  53.268  1.00  0.00    -0.205 NA
HETATM    7  H5  UNL     1      24.806  -1.778  55.726  1.00  0.00     0.163 HD
ENDROOT
BRANCH   5   8
HETATM    8  S1  UNL     1      26.442  -0.328  53.719  1.00  0.00    -0.083 SA
BRANCH   8   9
HETATM    9  C8  UNL     1      26.691   0.128  51.981  1.00  0.00     0.187 C 
BRANCH   9  10
HETATM   10  C9  UNL     1      26.830   1.581  51.798  1.00  0.00     0.253 C 
HETATM   11  O2  UNL     1      27.605   2.468  52.260  1.00  0.00    -0.270 OA
HETATM   12  N3  UNL     1      25.889   2.115  50.905  1.00  0.00    -0.218 NA
HETATM   13  C10 UNL     1      24.896   2.878  51.217  1.00  0.00     0.043 A 
HETATM   14  C11 UNL     1      24.074   3.288  50.084  1.00  0.00     0.051 A 
HETATM   15  C15 UNL     1      24.649   3.280  52.627  1.00  0.00     0.086 A 
HETATM   16  C12 UNL     1      23.030   4.071  50.306  1.00  0.00     0.035 A 
HETATM   17 CL1  UNL     1      22.029   4.576  48.963  1.00  0.00    -0.084 Cl
HETATM   18  C13 UNL     1      22.668   4.543  51.637  1.00  0.00     0.020 A 
HETATM   19  C14 UNL     1      23.443   4.146  52.635  1.00  0.00    -0.019 A 
ENDBRANCH   9  10
ENDBRANCH   8   9
ENDBRANCH   5   8
BRANCH   1  20
HETATM   20  C4  UNL     1      21.478   0.850  52.631  1.00  0.00     0.015 A 
HETATM   21  C3  UNL     1      21.371   0.777  51.175  1.00  0.00     0.019 A 
HETATM   22  C2  UNL     1      20.410   1.579  50.744  1.00  0.00     0.056 A 
HETATM   23  C1  UNL     1      19.819   2.237  51.912  1.00  0.00     0.172 A 
HETATM   24  O1  UNL     1      18.886   3.076  52.035  1.00  0.00    -0.288 OA
HETATM   25  C16 UNL     1      20.569   1.703  53.044  1.00  0.00     0.070 A 
ENDBRANCH   1  20
TORSDOF 4
ENDMDL
MODEL 3
REMARK VINA RESULT:      -7.7      1.808      2.372
REMARK  4 active torsions:
REMARK  status: ('A' for Active; 'I' for Inactive)
REMARK    1  A    between atoms: C4_5  and  C5_6 
REMARK    2  A    between atoms: C7_10  and  S1_11 
REMARK    3  A    between atoms: S1_11  and  C8_12 
REMARK    4  A    between atoms: C8_12  and  C9_13 
REMARK       I    between atoms: C9_13  and  N3_15 
ROOT
HETATM    1  C5  UNL     1      24.757   0.181  53.002  1.00  0.00     0.159 A 
HETATM    2  N1  UNL     1      23.994  -0.655  53.594  1.00  0.00    -0.251 NA
HETATM    3  C6  UNL     1      22.585  -0.806  53.417  1.00  0.00     0.274 A 
HETATM    4  N2  UNL     1      22.076   0.136  52.440  1.00  0.00    -0.351 N 
HETATM    5  C7  UNL     1      22.935   1.080  51.773  1.00  0.00     0.166 A 
HETATM    6  N4  UNL     1      24.193   1.076  52.059  1.00  0.00    -0.205 NA
HETATM    7  H5  UNL     1      21.051   0.071  52.271  1.00  0.00     0.163 HD
ENDROOT
BRANCH   5   8
HETATM    8  S1  UNL     1      22.218   2.211  50.578  1.00  0.00    -0.083 SA
BRANCH   8   9
HETATM    9  C8  UNL     1      23.577   2.882  49.582  1.00  0.00     0.187 C 
BRANCH   9  10
HETATM   10  C9  UNL     1      24.374   3.874  50.321  1.00  0.00     0.253 C 
HETATM   11  O2  UNL     1      24.137   4.689  51.258  1.00  0.00    -0.270 OA
HETATM   12  N3  UNL     1      25.709   3.935  49.892  1.00  0.00    -0.218 NA
HETATM   13  C10 UNL     1      26.251   4.907  49.239  1.00  0.00     0.043 A 
HETATM   14  C11 UNL     1      27.660   4.704  48.921  1.00  0.00     0.051 A 
HETATM   15  C15 UNL     1      25.467   6.113  48.863  1.00  0.00     0.086 A 
HETATM   16  C12 UNL     1      28.303   5.648  48.251  1.00  0.00     0.035 A 
HETATM   17 CL1  UNL     1      29.994   5.429  47.858  1.00  0.00    -0.084 Cl
HETATM   18  C13 UNL     1      27.661   6.883  47.818  1.00  0.00     0.020 A 
HETATM   19  C14 UNL     1      26.381   7.024  48.129  1.00  0.00    -0.019 A 
ENDBRANCH   9  10
ENDBRANCH   8   9
ENDBRANCH   5   8
BRANCH   1  20
HETATM   20  C4  UNL     1      26.198   0.214  53.296  1.00  0.00     0.015 A 
HETATM   21  C3  UNL     1      27.207  -0.764  52.894  1.00  0.00     0.019 A 
HETATM   22  C2  UNL     1      28.399  -0.404  53.341  1.00  0.00     0.056 A 
HETATM   23  C1  UNL     1      28.241   0.853  54.077  1.00  0.00     0.172 A 
HETATM   24  O1  UNL     1      29.062   1.593  54.684  1.00  0.00    -0.288 OA
HETATM   25  C16 UNL     1      26.815   1.148  53.984  1.00  0.00     0.070 A 
ENDBRANCH   1  20
TORSDOF 4
ENDMDL
MODEL 4
REMARK VINA RESULT:      -7.7      3.546      5.934
REMARK  4 active torsions:
REMARK  status: ('A' for Active; 'I' for Inactive)
REMARK    1  A    between atoms: C4_5  and  C5_6 
REMARK    2  A    between atoms: C7_10  and  S1_11 
REMARK    3  A    between atoms: S1_11  and  C8_12 
REMARK    4  A    between atoms: C8_12  and  C9_13 
REMARK       I    between atoms: C9_13  and  N3_15 
ROOT
HETATM    1  C5  UNL     1      25.786   2.230  51.210  1.00  0.00     0.159 A 
HETATM    2  N1  UNL     1      26.789   2.816  50.682  1.00  0.00    -0.251 NA
HETATM    3  C6  UNL     1      26.758   3.882  49.730  1.00  0.00     0.274 A 
HETATM    4  N2  UNL     1      25.396   4.254  49.406  1.00  0.00    -0.351 N 
HETATM    5  C7  UNL     1      24.263   3.593  50.001  1.00  0.00     0.166 A 
HETATM    6  N4  UNL     1      24.480   2.643  50.847  1.00  0.00    -0.205 NA
HETATM    7  H5  UNL     1      25.313   5.028  48.715  1.00  0.00     0.163 HD
ENDROOT
BRANCH   5   8
HETATM    8  S1  UNL     1      22.611   4.120  49.540  1.00  0.00    -0.083 SA
BRANCH   8   9
HETATM    9  C8  UNL     1      21.471   2.778  49.976  1.00  0.00     0.187 C 
BRANCH   9  10
HETATM   10  C9  UNL     1      21.040   2.846  51.382  1.00  0.00     0.253 C 
HETATM   11  O2  UNL     1      21.259   3.636  52.345  1.00  0.00    -0.270 OA
HETATM   12  N3  UNL     1      20.186   1.793  51.745  1.00  0.00    -0.218 NA
HETATM   13  C10 UNL     1      20.482   0.815  52.534  1.00  0.00     0.043 A 
HETATM   14  C11 UNL     1      19.400  -0.141  52.737  1.00  0.00     0.051 A 
HETATM   15  C15 UNL     1      21.827   0.712  53.159  1.00  0.00     0.086 A 
HETATM   16  C12 UNL     1      19.611  -1.180  53.530  1.00  0.00     0.035 A 
HETATM   17 CL1  UNL     1      18.327  -2.341  53.790  1.00  0.00    -0.084 Cl
HETATM   18  C13 UNL     1      20.880  -1.409  54.210  1.00  0.00     0.020 A 
HETATM   19  C14 UNL     1      21.833  -0.515  53.996  1.00  0.00    -0.019 A 
ENDBRANCH   9  10
ENDBRANCH   8   9
ENDBRANCH   5   8
BRANCH   1  20
HETATM   20  C4  UNL     1      25.983   1.141  52.180  1.00  0.00     0.015 A 
HETATM   21  C3  UNL     1      25.489   1.078  53.554  1.00  0.00     0.019 A 
HETATM   22  C2  UNL     1      25.864  -0.055  54.126  1.00  0.00     0.056 A 
HETATM   23  C1  UNL     1      26.642  -0.816  53.144  1.00  0.00     0.172 A 
HETATM   24  O1  UNL     1      27.211  -1.940  53.196  1.00  0.00    -0.288 OA
HETATM   25  C16 UNL     1      26.652   0.032  51.957  1.00  0.00     0.070 A 
ENDBRANCH   1  20
TORSDOF 4
ENDMDL
MODEL 5
REMARK VINA RESULT:      -7.6      3.069      5.512
REMARK  4 active torsions:
REMARK  status: ('A' for Active; 'I' for Inactive)
REMARK    1  A    between atoms: C4_5  and  C5_6 
REMARK    2  A    between atoms: C7_10  and  S1_11 
REMARK    3  A    between atoms: S1_11  and  C8_12 
REMARK    4  A    between atoms: C8_12  and  C9_13 
REMARK       I    between atoms: C9_13  and  N3_15 
ROOT
HETATM    1  C5  UNL     1      26.479   2.484  51.523  1.00  0.00     0.159 A 
HETATM    2  N1  UNL     1      27.036   3.111  50.560  1.00  0.00    -0.251 NA
HETATM    3  C6  UNL     1      26.418   4.043  49.670  1.00  0.00     0.274 A 
HETATM    4  N2  UNL     1      25.015   4.216  49.987  1.00  0.00    -0.351 N 
HETATM    5  C7  UNL     1      24.386   3.509  51.072  1.00  0.00     0.166 A 
HETATM    6  N4  UNL     1      25.102   2.700  51.777  1.00  0.00    -0.205 NA
HETATM    7  H5  UNL     1      24.513   4.886  49.367  1.00  0.00     0.163 HD
ENDROOT
BRANCH   5   8
HETATM    8  S1  UNL     1      22.641   3.786  51.391  1.00  0.00    -0.083 SA
BRANCH   8   9
HETATM    9  C8  UNL     1      21.720   3.145  49.966  1.00  0.00     0.187 C 
BRANCH   9  10
HETATM   10  C9  UNL     1      21.707   1.674  49.924  1.00  0.00     0.253 C 
HETATM   11  O2  UNL     1      21.299   0.809  49.097  1.00  0.00    -0.270 OA
HETATM   12  N3  UNL     1      22.283   1.088  51.062  1.00  0.00    -0.218 NA
HETATM   13  C10 UNL     1      21.650   0.446  51.985  1.00  0.00     0.043 A 
HETATM   14  C11 UNL     1      22.501  -0.059  53.057  1.00  0.00     0.051 A 
HETATM   15  C15 UNL     1      20.176   0.261  51.921  1.00  0.00     0.086 A 
HETATM   16  C12 UNL     1      21.940  -0.731  54.051  1.00  0.00     0.035 A 
HETATM   17 CL1  UNL     1      22.940  -1.347  55.348  1.00  0.00    -0.084 Cl
HETATM   18  C13 UNL     1      20.507  -0.988  54.119  1.00  0.00     0.020 A 
HETATM   19  C14 UNL     1      19.774  -0.511  53.124  1.00  0.00    -0.019 A 
ENDBRANCH   9  10
ENDBRANCH   8   9
ENDBRANCH   5   8
BRANCH   1  20
HETATM   20  C4  UNL     1      27.256   1.552  52.354  1.00  0.00     0.015 A 
HETATM   21  C3  UNL     1      28.316   1.884  53.304  1.00  0.00     0.019 A 
HETATM   22  C2  UNL     1      28.788   0.784  53.869  1.00  0.00     0.056 A 
HETATM   23  C1  UNL     1      28.053  -0.355  53.313  1.00  0.00     0.172 A 
HETATM   24  O1  UNL     1      28.124  -1.597  53.521  1.00  0.00    -0.288 OA
HETATM   25  C16 UNL     1      27.116   0.245  52.371  1.00  0.00     0.070 A 
ENDBRANCH   1  20
TORSDOF 4
ENDMDL
MODEL 6
REMARK VINA RESULT:      -7.5      3.007      4.747
REMARK  4 active torsions:
REMARK  status: ('A' for Active; 'I' for Inactive)
REMARK    1  A    between atoms: C4_5  and  C5_6 
REMARK    2  A    between atoms: C7_10  and  S1_11 
REMARK    3  A    between atoms: S1_11  and  C8_12 
REMARK    4  A    between atoms: C8_12  and  C9_13 
REMARK       I    between atoms: C9_13  and  N3_15 
ROOT
HETATM    1  C5  UNL     1      21.998   0.818  52.343  1.00  0.00     0.159 A 
HETATM    2  N1  UNL     1      20.745   0.815  52.096  1.00  0.00    -0.251 NA
HETATM    3  C6  UNL     1      20.071   1.548  51.071  1.00  0.00     0.274 A 
HETATM    4  N2  UNL     1      21.003   2.339  50.294  1.00  0.00    -0.351 N 
HETATM    5  C7  UNL     1      22.416   2.344  50.573  1.00  0.00     0.166 A 
HETATM    6  N4  UNL     1      22.854   1.616  51.545  1.00  0.00    -0.205 NA
HETATM    7  H5  UNL     1      20.565   2.896  49.531  1.00  0.00     0.163 HD
ENDROOT
BRANCH   5   8
HETATM    8  S1  UNL     1      23.497   3.356  49.558  1.00  0.00    -0.083 SA
BRANCH   8   9
HETATM    9  C8  UNL     1      24.836   3.957  50.624  1.00  0.00     0.187 C 
BRANCH   9  10
HETATM   10  C9  UNL     1      26.115   3.282  50.348  1.00  0.00     0.253 C 
HETATM   11  O2  UNL     1      26.735   2.939  49.300  1.00  0.00    -0.270 OA
HETATM   12  N3  UNL     1      26.816   2.938  51.514  1.00  0.00    -0.218 NA
HETATM   13  C10 UNL     1      26.997   1.741  51.963  1.00  0.00     0.043 A 
HETATM   14  C11 UNL     1      27.766   1.674  53.201  1.00  0.00     0.051 A 
HETATM   15  C15 UNL     1      26.448   0.560  51.247  1.00  0.00     0.086 A 
HETATM   16  C12 UNL     1      28.002   0.488  53.739  1.00  0.00     0.035 A 
HETATM   17 CL1  UNL     1      28.923   0.382  55.223  1.00  0.00    -0.084 Cl
HETATM   18  C13 UNL     1      27.526  -0.756  53.146  1.00  0.00     0.020 A 
HETATM   19  C14 UNL     1      26.832  -0.647  52.023  1.00  0.00    -0.019 A 
ENDBRANCH   9  10
ENDBRANCH   8   9
ENDBRANCH   5   8
BRANCH   1  20
HETATM   20  C4  UNL     1      22.543   0.005  53.441  1.00  0.00     0.015 A 
HETATM   21  C3  UNL     1      21.796  -0.831  54.379  1.00  0.00     0.019 A 
HETATM   22  C2  UNL     1      22.622  -1.415  55.233  1.00  0.00     0.056 A 
HETATM   23  C1  UNL     1      23.984  -0.988  54.901  1.00  0.00     0.172 A 
HETATM   24  O1  UNL     1      25.107  -1.259  55.406  1.00  0.00    -0.288 OA
HETATM   25  C16 UNL     1      23.814  -0.097  53.759  1.00  0.00     0.070 A 
ENDBRANCH   1  20
TORSDOF 4
ENDMDL
MODEL 7
REMARK VINA RESULT:      -7.3      3.852      5.892
REMARK  4 active torsions:
REMARK  status: ('A' for Active; 'I' for Inactive)
REMARK    1  A    between atoms: C4_5  and  C5_6 
REMARK    2  A    between atoms: C7_10  and  S1_11 
REMARK    3  A    between atoms: S1_11  and  C8_12 
REMARK    4  A    between atoms: C8_12  and  C9_13 
REMARK       I    between atoms: C9_13  and  N3_15 
ROOT
HETATM    1  C5  UNL     1      24.128   2.415  52.490  1.00  0.00     0.159 A 
HETATM    2  N1  UNL     1      24.129   3.666  52.746  1.00  0.00    -0.251 NA
HETATM    3  C6  UNL     1      23.341   4.674  52.110  1.00  0.00     0.274 A 
HETATM    4  N2  UNL     1      22.490   4.102  51.086  1.00  0.00    -0.351 N 
HETATM    5  C7  UNL     1      22.488   2.692  50.796  1.00  0.00     0.166 A 
HETATM    6  N4  UNL     1      23.271   1.923  51.474  1.00  0.00    -0.205 NA
HETATM    7  H5  UNL     1      21.892   4.794  50.587  1.00  0.00     0.163 HD
ENDROOT
BRANCH   5   8
HETATM    8  S1  UNL     1      21.401   2.073  49.509  1.00  0.00    -0.083 SA
BRANCH   8   9
HETATM    9  C8  UNL     1      19.726   2.660  49.884  1.00  0.00     0.187 C 
BRANCH   9  10
HETATM   10  C9  UNL     1      19.433   2.629  51.325  1.00  0.00     0.253 C 
HETATM   11  O2  UNL     1      19.639   3.415  52.295  1.00  0.00    -0.270 OA
HETATM   12  N3  UNL     1      18.767   1.460  51.725  1.00  0.00    -0.218 NA
HETATM   13  C10 UNL     1      19.269   0.510  52.441  1.00  0.00     0.043 A 
HETATM   14  C11 UNL     1      18.350  -0.591  52.707  1.00  0.00     0.051 A 
HETATM   15  C15 UNL     1      20.671   0.575  52.931  1.00  0.00     0.086 A 
HETATM   16  C12 UNL     1      18.776  -1.613  53.433  1.00  0.00     0.035 A 
HETATM   17 CL1  UNL     1      17.692  -2.945  53.766  1.00  0.00    -0.084 Cl
HETATM   18  C13 UNL     1      20.126  -1.684  53.979  1.00  0.00     0.020 A 
HETATM   19  C14 UNL     1      20.925  -0.662  53.712  1.00  0.00    -0.019 A 
ENDBRANCH   9  10
ENDBRANCH   8   9
ENDBRANCH   5   8
BRANCH   1  20
HETATM   20  C4  UNL     1      25.004   1.500  53.238  1.00  0.00     0.015 A 
HETATM   21  C3  UNL     1      24.777   0.082  53.512  1.00  0.00     0.019 A 
HETATM   22  C2  UNL     1      25.781  -0.417  54.215  1.00  0.00     0.056 A 
HETATM   23  C1  UNL     1      26.744   0.663  54.448  1.00  0.00     0.172 A 
HETATM   24  O1  UNL     1      27.850   0.701  55.054  1.00  0.00    -0.288 OA
HETATM   25  C16 UNL     1      26.153   1.822  53.789  1.00  0.00     0.070 A 
ENDBRANCH   1  20
TORSDOF 4
ENDMDL
MODEL 8
REMARK VINA RESULT:      -7.2      1.900      2.366
REMARK  4 active torsions:
REMARK  status: ('A' for Active; 'I' for Inactive)
REMARK    1  A    between atoms: C4_5  and  C5_6 
REMARK    2  A    between atoms: C7_10  and  S1_11 
REMARK    3  A    between atoms: S1_11  and  C8_12 
REMARK    4  A    between atoms: C8_12  and  C9_13 
REMARK       I    between atoms: C9_13  and  N3_15 
ROOT
HETATM    1  C5  UNL     1      24.291   0.740  52.958  1.00  0.00     0.159 A 
HETATM    2  N1  UNL     1      23.375  -0.137  53.108  1.00  0.00    -0.251 NA
HETATM    3  C6  UNL     1      21.973   0.041  52.901  1.00  0.00     0.274 A 
HETATM    4  N2  UNL     1      21.675   1.395  52.478  1.00  0.00    -0.351 N 
HETATM    5  C7  UNL     1      22.706   2.385  52.310  1.00  0.00     0.166 A 
HETATM    6  N4  UNL     1      23.929   2.046  52.544  1.00  0.00    -0.205 NA
HETATM    7  H5  UNL     1      20.664   1.582  52.313  1.00  0.00     0.163 HD
ENDROOT
BRANCH   5   8
HETATM    8  S1  UNL     1      22.244   4.038  51.784  1.00  0.00    -0.083 SA
BRANCH   8   9
HETATM    9  C8  UNL     1      23.763   4.891  51.278  1.00  0.00     0.187 C 
BRANCH   9  10
HETATM   10  C9  UNL     1      24.072   4.684  49.855  1.00  0.00     0.253 C 
HETATM   11  O2  UNL     1      23.887   3.744  49.029  1.00  0.00    -0.270 OA
HETATM   12  N3  UNL     1      24.723   5.781  49.269  1.00  0.00    -0.218 NA
HETATM   13  C10 UNL     1      25.956   5.816  48.890  1.00  0.00     0.043 A 
HETATM   14  C11 UNL     1      26.370   7.090  48.312  1.00  0.00     0.051 A 
HETATM   15  C15 UNL     1      26.843   4.635  49.049  1.00  0.00     0.086 A 
HETATM   16  C12 UNL     1      27.620   7.222  47.895  1.00  0.00     0.035 A 
HETATM   17 CL1  UNL     1      28.140   8.740  47.197  1.00  0.00    -0.084 Cl
HETATM   18  C13 UNL     1      28.600   6.147  47.988  1.00  0.00     0.020 A 
HETATM   19  C14 UNL     1      28.179   5.009  48.520  1.00  0.00    -0.019 A 
ENDBRANCH   9  10
ENDBRANCH   8   9
ENDBRANCH   5   8
BRANCH   1  20
HETATM   20  C4  UNL     1      25.699   0.399  53.214  1.00  0.00     0.015 A 
HETATM   21  C3  UNL     1      26.759   1.297  53.668  1.00  0.00     0.019 A 
HETATM   22  C2  UNL     1      27.900   0.638  53.787  1.00  0.00     0.056 A 
HETATM   23  C1  UNL     1      27.653  -0.757  53.411  1.00  0.00     0.172 A 
HETATM   24  O1  UNL     1      28.402  -1.770  53.359  1.00  0.00    -0.288 OA
HETATM   25  C16 UNL     1      26.235  -0.791  53.069  1.00  0.00     0.070 A 
ENDBRANCH   1  20
TORSDOF 4
ENDMDL
MODEL 9
REMARK VINA RESULT:      -7.2      2.959      5.625
REMARK  4 active torsions:
REMARK  status: ('A' for Active; 'I' for Inactive)
REMARK    1  A    between atoms: C4_5  and  C5_6 
REMARK    2  A    between atoms: C7_10  and  S1_11 
REMARK    3  A    between atoms: S1_11  and  C8_12 
REMARK    4  A    between atoms: C8_12  and  C9_13 
REMARK       I    between atoms: C9_13  and  N3_15 
ROOT
HETATM    1  C5  UNL     1      23.832   5.998  49.497  1.00  0.00     0.159 A 
HETATM    2  N1  UNL     1      23.900   7.262  49.669  1.00  0.00    -0.251 NA
HETATM    3  C6  UNL     1      22.805   8.167  49.825  1.00  0.00     0.274 A 
HETATM    4  N2  UNL     1      21.537   7.468  49.765  1.00  0.00    -0.351 N 
HETATM    5  C7  UNL     1      21.460   6.044  49.570  1.00  0.00     0.166 A 
HETATM    6  N4  UNL     1      22.559   5.379  49.447  1.00  0.00    -0.205 NA
HETATM    7  H5  UNL     1      20.702   8.081  49.873  1.00  0.00     0.163 HD
ENDROOT
BRANCH   5   8
HETATM    8  S1  UNL     1      19.845   5.263  49.508  1.00  0.00    -0.083 SA
BRANCH   8   9
HETATM    9  C8  UNL     1      20.092   3.483  49.752  1.00  0.00     0.187 C 
BRANCH   9  10
HETATM   10  C9  UNL     1      20.251   3.131  51.172  1.00  0.00     0.253 C 
HETATM   11  O2  UNL     1      19.696   3.494  52.249  1.00  0.00    -0.270 OA
HETATM   12  N3  UNL     1      21.248   2.166  51.390  1.00  0.00    -0.218 NA
HETATM   13  C10 UNL     1      22.389   2.372  51.957  1.00  0.00     0.043 A 
HETATM   14  C11 UNL     1      23.234   1.186  52.052  1.00  0.00     0.051 A 
HETATM   15  C15 UNL     1      22.769   3.719  52.455  1.00  0.00     0.086 A 
HETATM   16  C12 UNL     1      24.425   1.299  52.618  1.00  0.00     0.035 A 
HETATM   17 CL1  UNL     1      25.457  -0.109  52.744  1.00  0.00    -0.084 Cl
HETATM   18  C13 UNL     1      24.929   2.559  53.151  1.00  0.00     0.020 A 
HETATM   19  C14 UNL     1      24.128   3.608  53.042  1.00  0.00    -0.019 A 
ENDBRANCH   9  10
ENDBRANCH   8   9
ENDBRANCH   5   8
BRANCH   1  20
HETATM   20  C4  UNL     1      25.059   5.199  49.351  1.00  0.00     0.015 A 
HETATM   21  C3  UNL     1      25.217   3.767  49.597  1.00  0.00     0.019 A 
HETATM   22  C2  UNL     1      26.466   3.396  49.362  1.00  0.00     0.056 A 
HETATM   23  C1  UNL     1      27.214   4.583  48.940  1.00  0.00     0.172 A 
HETATM   24  O1  UNL     1      28.418   4.756  48.606  1.00  0.00    -0.288 OA
HETATM   25  C16 UNL     1      26.229   5.659  48.970  1.00  0.00     0.070 A 
ENDBRANCH   1  20
TORSDOF 4
ENDMDL
