MODEL 1
REMARK VINA RESULT:      -7.4      0.000      0.000
REMARK  4 active torsions:
REMARK  status: ('A' for Active; 'I' for Inactive)
REMARK    1  A    between atoms: C1_2  and  O2_3 
REMARK    2  A    between atoms: C1_2  and  C2_4 
REMARK    3  A    between atoms: C2_4  and  C3_5 
REMARK    4  A    between atoms: C3_5  and  C4_6 
ROOT
HETATM    1  C4  UNL     1      25.251   0.160  52.902  1.00  0.00     0.089 C 
HETATM    2  N1  UNL     1      26.300  -0.445  52.065  1.00  0.00    -0.377 N 
HETATM    3  C5  UNL     1      27.495  -0.626  52.820  1.00  0.00     0.007 C 
HETATM    4  C6  UNL     1      28.599  -1.339  53.099  1.00  0.00    -0.002 C 
HETATM    5  C7  UNL     1      29.376  -0.659  54.206  1.00  0.00     0.030 C 
HETATM    6  C8  UNL     1      28.301   0.210  54.887  1.00  0.00     0.016 C 
HETATM    7  C9  UNL     1      27.480   0.587  53.715  1.00  0.00     0.053 C 
HETATM    8  C10 UNL     1      26.045   0.904  53.944  1.00  0.00     0.113 C 
HETATM    9  S1  UNL     1      25.871   2.667  53.523  1.00  0.00    -0.040 SA
HETATM   10  N2  UNL     1      24.964   2.389  52.007  1.00  0.00    -0.298 N 
HETATM   11  C11 UNL     1      24.965   3.431  51.055  1.00  0.00     0.101 C 
HETATM   12  C12 UNL     1      24.205   3.581  49.978  1.00  0.00    -0.005 C 
HETATM   13  C13 UNL     1      23.116   3.022  49.147  1.00  0.00     0.055 C 
HETATM   14  C14 UNL     1      22.169   2.156  49.886  1.00  0.00    -0.023 C 
HETATM   15  C15 UNL     1      22.075   1.226  50.856  1.00  0.00    -0.002 C 
HETATM   16  C16 UNL     1      23.215   0.692  51.643  1.00  0.00     0.028 C 
HETATM   17  C17 UNL     1      24.410   1.062  52.150  1.00  0.00     0.052 C 
HETATM   18  H6  UNL     1      26.233  -0.730  51.046  1.00  0.00     0.160 HD
ENDROOT
BRANCH   1  19
HETATM   19  C3  UNL     1      24.471  -0.986  53.463  1.00  0.00     0.049 C 
BRANCH  19  20
HETATM   20  C2  UNL     1      24.155  -0.825  54.959  1.00  0.00     0.112 C 
BRANCH  20  21
HETATM   21  C1  UNL     1      22.660  -1.040  55.010  1.00  0.00     0.139 C 
HETATM   22  O1  UNL     1      22.202  -2.161  55.361  1.00  0.00    -0.650 OA
BRANCH  21  23
HETATM   23  O2  UNL     1      21.648  -0.119  54.706  1.00  0.00    -0.776 OA
HETATM   24  H1  UNL     1      20.692  -0.426  54.540  1.00  0.00     0.167 HD
ENDBRANCH  21  23
ENDBRANCH  20  21
ENDBRANCH  19  20
ENDBRANCH   1  19
TORSDOF 4
ENDMDL
MODEL 2
REMARK VINA RESULT:      -7.3      2.882      6.180
REMARK  4 active torsions:
REMARK  status: ('A' for Active; 'I' for Inactive)
REMARK    1  A    between atoms: C1_2  and  O2_3 
REMARK    2  A    between atoms: C1_2  and  C2_4 
REMARK    3  A    between atoms: C2_4  and  C3_5 
REMARK    4  A    between atoms: C3_5  and  C4_6 
ROOT
HETATM    1  C4  UNL     1      23.924   1.848  52.503  1.00  0.00     0.089 C 
HETATM    2  N1  UNL     1      23.820   1.652  51.048  1.00  0.00    -0.377 N 
HETATM    3  C5  UNL     1      22.470   1.379  50.679  1.00  0.00     0.007 C 
HETATM    4  C6  UNL     1      21.456   1.492  49.805  1.00  0.00    -0.002 C 
HETATM    5  C7  UNL     1      20.235   0.782  50.348  1.00  0.00     0.030 C 
HETATM    6  C8  UNL     1      20.519   0.736  51.863  1.00  0.00     0.016 C 
HETATM    7  C9  UNL     1      21.990   0.566  51.854  1.00  0.00     0.053 C 
HETATM    8  C10 UNL     1      22.753   1.061  53.030  1.00  0.00     0.113 C 
HETATM    9  S1  UNL     1      23.471  -0.426  53.796  1.00  0.00    -0.040 SA
HETATM   10  N2  UNL     1      25.152  -0.080  53.295  1.00  0.00    -0.298 N 
HETATM   11  C11 UNL     1      26.052  -1.167  53.262  1.00  0.00     0.101 C 
HETATM   12  C12 UNL     1      27.375  -1.155  53.156  1.00  0.00    -0.005 C 
HETATM   13  C13 UNL     1      28.596  -0.330  53.031  1.00  0.00     0.055 C 
HETATM   14  C14 UNL     1      28.475   1.031  53.603  1.00  0.00    -0.023 C 
HETATM   15  C15 UNL     1      27.636   2.073  53.760  1.00  0.00    -0.002 C 
HETATM   16  C16 UNL     1      26.239   2.132  53.262  1.00  0.00     0.028 C 
HETATM   17  C17 UNL     1      25.170   1.342  53.031  1.00  0.00     0.052 C 
HETATM   18  H6  UNL     1      24.598   1.698  50.329  1.00  0.00     0.160 HD
ENDROOT
BRANCH   1  19
HETATM   19  C3  UNL     1      23.790   3.322  52.722  1.00  0.00     0.049 C 
BRANCH  19  20
HETATM   20  C2  UNL     1      24.140   4.150  51.475  1.00  0.00     0.112 C 
BRANCH  20  21
HETATM   21  C1  UNL     1      23.573   5.511  51.808  1.00  0.00     0.139 C 
HETATM   22  O1  UNL     1      22.346   5.738  51.626  1.00  0.00    -0.650 OA
BRANCH  21  23
HETATM   23  O2  UNL     1      24.254   6.624  52.320  1.00  0.00    -0.776 OA
HETATM   24  H1  UNL     1      23.981   7.570  52.063  1.00  0.00     0.167 HD
ENDBRANCH  21  23
ENDBRANCH  20  21
ENDBRANCH  19  20
ENDBRANCH   1  19
TORSDOF 4
ENDMDL
MODEL 3
REMARK VINA RESULT:      -7.0      3.135      5.257
REMARK  4 active torsions:
REMARK  status: ('A' for Active; 'I' for Inactive)
REMARK    1  A    between atoms: C1_2  and  O2_3 
REMARK    2  A    between atoms: C1_2  and  C2_4 
REMARK    3  A    between atoms: C2_4  and  C3_5 
REMARK    4  A    between atoms: C3_5  and  C4_6 
ROOT
HETATM    1  C4  UNL     1      23.648   2.656  52.185  1.00  0.00     0.089 C 
HETATM    2  N1  UNL     1      24.188   2.138  50.917  1.00  0.00    -0.377 N 
HETATM    3  C5  UNL     1      24.898   3.162  50.224  1.00  0.00     0.007 C 
HETATM    4  C6  UNL     1      25.914   3.543  49.432  1.00  0.00    -0.002 C 
HETATM    5  C7  UNL     1      25.849   5.039  49.207  1.00  0.00     0.030 C 
HETATM    6  C8  UNL     1      25.012   5.524  50.407  1.00  0.00     0.016 C 
HETATM    7  C9  UNL     1      24.080   4.384  50.561  1.00  0.00     0.053 C 
HETATM    8  C10 UNL     1      23.509   4.131  51.910  1.00  0.00     0.113 C 
HETATM    9  S1  UNL     1      21.720   4.427  51.737  1.00  0.00    -0.040 SA
HETATM   10  N2  UNL     1      21.252   2.706  51.856  1.00  0.00    -0.298 N 
HETATM   11  C11 UNL     1      19.991   2.342  51.336  1.00  0.00     0.101 C 
HETATM   12  C12 UNL     1      19.313   1.213  51.498  1.00  0.00    -0.005 C 
HETATM   13  C13 UNL     1      19.280  -0.130  52.117  1.00  0.00     0.055 C 
HETATM   14  C14 UNL     1      20.075  -0.248  53.360  1.00  0.00    -0.023 C 
HETATM   15  C15 UNL     1      21.217   0.138  53.962  1.00  0.00    -0.002 C 
HETATM   16  C16 UNL     1      22.245   1.024  53.360  1.00  0.00     0.028 C 
HETATM   17  C17 UNL     1      22.371   2.066  52.512  1.00  0.00     0.052 C 
HETATM   18  H6  UNL     1      24.098   1.157  50.526  1.00  0.00     0.160 HD
ENDROOT
BRANCH   1  19
HETATM   19  C3  UNL     1      24.682   2.345  53.220  1.00  0.00     0.049 C 
BRANCH  19  20
HETATM   20  C2  UNL     1      25.754   1.361  52.724  1.00  0.00     0.112 C 
BRANCH  20  21
HETATM   21  C1  UNL     1      27.044   2.063  53.082  1.00  0.00     0.139 C 
HETATM   22  O1  UNL     1      27.455   2.044  54.273  1.00  0.00    -0.650 OA
BRANCH  21  23
HETATM   23  O2  UNL     1      27.900   2.774  52.231  1.00  0.00    -0.776 OA
HETATM   24  H1  UNL     1      28.565   2.291  51.631  1.00  0.00     0.167 HD
ENDBRANCH  21  23
ENDBRANCH  20  21
ENDBRANCH  19  20
ENDBRANCH   1  19
TORSDOF 4
ENDMDL
MODEL 4
REMARK VINA RESULT:      -6.9      2.540      6.037
REMARK  4 active torsions:
REMARK  status: ('A' for Active; 'I' for Inactive)
REMARK    1  A    between atoms: C1_2  and  O2_3 
REMARK    2  A    between atoms: C1_2  and  C2_4 
REMARK    3  A    between atoms: C2_4  and  C3_5 
REMARK    4  A    between atoms: C3_5  and  C4_6 
ROOT
HETATM    1  C4  UNL     1      24.071   3.371  51.216  1.00  0.00     0.089 C 
HETATM    2  N1  UNL     1      24.005   4.582  52.052  1.00  0.00    -0.377 N 
HETATM    3  C5  UNL     1      24.082   5.750  51.240  1.00  0.00     0.007 C 
HETATM    4  C6  UNL     1      23.725   7.022  50.992  1.00  0.00    -0.002 C 
HETATM    5  C7  UNL     1      24.399   7.501  49.724  1.00  0.00     0.030 C 
HETATM    6  C8  UNL     1      24.730   6.181  49.000  1.00  0.00     0.016 C 
HETATM    7  C9  UNL     1      25.034   5.310  50.158  1.00  0.00     0.053 C 
HETATM    8  C10 UNL     1      24.822   3.846  50.001  1.00  0.00     0.113 C 
HETATM    9  S1  UNL     1      26.480   3.105  50.131  1.00  0.00    -0.040 SA
HETATM   10  N2  UNL     1      26.214   2.380  51.743  1.00  0.00    -0.298 N 
HETATM   11  C11 UNL     1      27.359   2.057  52.503  1.00  0.00     0.101 C 
HETATM   12  C12 UNL     1      27.455   1.316  53.599  1.00  0.00    -0.005 C 
HETATM   13  C13 UNL     1      26.740   0.496  54.602  1.00  0.00     0.055 C 
HETATM   14  C14 UNL     1      25.493  -0.126  54.104  1.00  0.00    -0.023 C 
HETATM   15  C15 UNL     1      24.417   0.073  53.316  1.00  0.00    -0.002 C 
HETATM   16  C16 UNL     1      24.143   1.306  52.537  1.00  0.00     0.028 C 
HETATM   17  C17 UNL     1      24.777   2.296  51.874  1.00  0.00     0.052 C 
HETATM   18  H6  UNL     1      23.910   4.638  53.106  1.00  0.00     0.160 HD
ENDROOT
BRANCH   1  19
HETATM   19  C3  UNL     1      22.651   3.004  50.926  1.00  0.00     0.049 C 
BRANCH  19  20
HETATM   20  C2  UNL     1      22.371   2.818  49.426  1.00  0.00     0.112 C 
BRANCH  20  21
HETATM   21  C1  UNL     1      21.818   1.413  49.361  1.00  0.00     0.139 C 
HETATM   22  O1  UNL     1      21.650   0.860  48.240  1.00  0.00    -0.650 OA
BRANCH  21  23
HETATM   23  O2  UNL     1      21.443   0.586  50.428  1.00  0.00    -0.776 OA
HETATM   24  H1  UNL     1      21.979   0.569  51.292  1.00  0.00     0.167 HD
ENDBRANCH  21  23
ENDBRANCH  20  21
ENDBRANCH  19  20
ENDBRANCH   1  19
TORSDOF 4
ENDMDL
MODEL 5
REMARK VINA RESULT:      -6.8      3.833      6.817
REMARK  4 active torsions:
REMARK  status: ('A' for Active; 'I' for Inactive)
REMARK    1  A    between atoms: C1_2  and  O2_3 
REMARK    2  A    between atoms: C1_2  and  C2_4 
REMARK    3  A    between atoms: C2_4  and  C3_5 
REMARK    4  A    between atoms: C3_5  and  C4_6 
ROOT
HETATM    1  C4  UNL     1      23.060   2.402  50.589  1.00  0.00     0.089 C 
HETATM    2  N1  UNL     1      22.459   1.737  49.421  1.00  0.00    -0.377 N 
HETATM    3  C5  UNL     1      22.049   2.703  48.456  1.00  0.00     0.007 C 
HETATM    4  C6  UNL     1      21.879   3.069  47.175  1.00  0.00    -0.002 C 
HETATM    5  C7  UNL     1      21.310   4.471  47.118  1.00  0.00     0.030 C 
HETATM    6  C8  UNL     1      21.700   5.048  48.492  1.00  0.00     0.016 C 
HETATM    7  C9  UNL     1      21.584   3.836  49.335  1.00  0.00     0.053 C 
HETATM    8  C10 UNL     1      22.414   3.763  50.566  1.00  0.00     0.113 C 
HETATM    9  S1  UNL     1      21.226   3.762  51.946  1.00  0.00    -0.040 SA
HETATM   10  N2  UNL     1      21.473   2.045  52.380  1.00  0.00    -0.298 N 
HETATM   11  C11 UNL     1      20.452   1.414  53.121  1.00  0.00     0.101 C 
HETATM   12  C12 UNL     1      20.477   0.250  53.759  1.00  0.00    -0.005 C 
HETATM   13  C13 UNL     1      21.274  -0.943  54.121  1.00  0.00     0.055 C 
HETATM   14  C14 UNL     1      22.735  -0.709  54.166  1.00  0.00    -0.023 C 
HETATM   15  C15 UNL     1      23.752  -0.057  53.569  1.00  0.00    -0.002 C 
HETATM   16  C16 UNL     1      23.621   0.837  52.391  1.00  0.00     0.028 C 
HETATM   17  C17 UNL     1      22.763   1.708  51.820  1.00  0.00     0.052 C 
HETATM   18  H6  UNL     1      22.328   0.698  49.262  1.00  0.00     0.160 HD
ENDROOT
BRANCH   1  19
HETATM   19  C3  UNL     1      24.530   2.443  50.318  1.00  0.00     0.049 C 
BRANCH  19  20
HETATM   20  C2  UNL     1      25.092   3.872  50.252  1.00  0.00     0.112 C 
BRANCH  20  21
HETATM   21  C1  UNL     1      26.586   3.644  50.243  1.00  0.00     0.139 C 
HETATM   22  O1  UNL     1      27.247   3.879  49.196  1.00  0.00    -0.650 OA
BRANCH  21  23
HETATM   23  O2  UNL     1      27.391   3.183  51.293  1.00  0.00    -0.776 OA
HETATM   24  H1  UNL     1      28.389   3.035  51.163  1.00  0.00     0.167 HD
ENDBRANCH  21  23
ENDBRANCH  20  21
ENDBRANCH  19  20
ENDBRANCH   1  19
TORSDOF 4
ENDMDL
MODEL 6
REMARK VINA RESULT:      -6.8      7.599     10.086
REMARK  4 active torsions:
REMARK  status: ('A' for Active; 'I' for Inactive)
REMARK    1  A    between atoms: C1_2  and  O2_3 
REMARK    2  A    between atoms: C1_2  and  C2_4 
REMARK    3  A    between atoms: C2_4  and  C3_5 
REMARK    4  A    between atoms: C3_5  and  C4_6 
ROOT
HETATM    1  C4  UNL     1      28.929   7.568  47.794  1.00  0.00     0.089 C 
HETATM    2  N1  UNL     1      28.499   7.971  46.445  1.00  0.00    -0.377 N 
HETATM    3  C5  UNL     1      29.037   9.248  46.113  1.00  0.00     0.007 C 
HETATM    4  C6  UNL     1      29.539  10.099  45.202  1.00  0.00    -0.002 C 
HETATM    5  C7  UNL     1      29.888  11.411  45.871  1.00  0.00     0.030 C 
HETATM    6  C8  UNL     1      30.040  11.005  47.350  1.00  0.00     0.016 C 
HETATM    7  C9  UNL     1      29.004   9.951  47.446  1.00  0.00     0.053 C 
HETATM    8  C10 UNL     1      29.186   8.889  48.470  1.00  0.00     0.113 C 
HETATM    9  S1  UNL     1      27.810   9.113  49.642  1.00  0.00    -0.040 SA
HETATM   10  N2  UNL     1      26.914   7.652  49.130  1.00  0.00    -0.298 N 
HETATM   11  C11 UNL     1      25.536   7.602  49.431  1.00  0.00     0.101 C 
HETATM   12  C12 UNL     1      24.705   6.569  49.378  1.00  0.00    -0.005 C 
HETATM   13  C13 UNL     1      24.542   5.130  49.080  1.00  0.00     0.055 C 
HETATM   14  C14 UNL     1      25.774   4.327  49.252  1.00  0.00    -0.023 C 
HETATM   15  C15 UNL     1      27.111   4.338  49.086  1.00  0.00    -0.002 C 
HETATM   16  C16 UNL     1      27.896   5.471  48.536  1.00  0.00     0.028 C 
HETATM   17  C17 UNL     1      27.907   6.820  48.489  1.00  0.00     0.052 C 
HETATM   18  H6  UNL     1      27.883   7.431  45.772  1.00  0.00     0.160 HD
ENDROOT
BRANCH   1  19
HETATM   19  C3  UNL     1      30.170   6.757  47.596  1.00  0.00     0.049 C 
BRANCH  19  20
HETATM   20  C2  UNL     1      31.274   7.085  48.613  1.00  0.00     0.112 C 
BRANCH  20  21
HETATM   21  C1  UNL     1      31.510   5.756  49.292  1.00  0.00     0.139 C 
HETATM   22  O1  UNL     1      31.780   4.739  48.597  1.00  0.00    -0.650 OA
BRANCH  21  23
HETATM   23  O2  UNL     1      31.470   5.472  50.664  1.00  0.00    -0.776 OA
HETATM   24  H1  UNL     1      30.642   5.063  51.091  1.00  0.00     0.167 HD
ENDBRANCH  21  23
ENDBRANCH  20  21
ENDBRANCH  19  20
ENDBRANCH   1  19
TORSDOF 4
ENDMDL
MODEL 7
REMARK VINA RESULT:      -6.7      8.828     10.920
REMARK  4 active torsions:
REMARK  status: ('A' for Active; 'I' for Inactive)
REMARK    1  A    between atoms: C1_2  and  O2_3 
REMARK    2  A    between atoms: C1_2  and  C2_4 
REMARK    3  A    between atoms: C2_4  and  C3_5 
REMARK    4  A    between atoms: C3_5  and  C4_6 
ROOT
HETATM    1  C4  UNL     1      30.906   6.498  47.741  1.00  0.00     0.089 C 
HETATM    2  N1  UNL     1      31.629   7.179  48.828  1.00  0.00    -0.377 N 
HETATM    3  C5  UNL     1      31.206   8.536  48.932  1.00  0.00     0.007 C 
HETATM    4  C6  UNL     1      30.935   9.617  49.682  1.00  0.00    -0.002 C 
HETATM    5  C7  UNL     1      30.480  10.753  48.792  1.00  0.00     0.030 C 
HETATM    6  C8  UNL     1      30.000  10.016  47.526  1.00  0.00     0.016 C 
HETATM    7  C9  UNL     1      30.965   8.894  47.487  1.00  0.00     0.053 C 
HETATM    8  C10 UNL     1      30.539   7.634  46.823  1.00  0.00     0.113 C 
HETATM    9  S1  UNL     1      31.632   7.462  45.376  1.00  0.00    -0.040 SA
HETATM   10  N2  UNL     1      32.582   6.103  46.043  1.00  0.00    -0.298 N 
HETATM   11  C11 UNL     1      33.860   5.876  45.488  1.00  0.00     0.101 C 
HETATM   12  C12 UNL     1      34.659   4.826  45.627  1.00  0.00    -0.005 C 
HETATM   13  C13 UNL     1      34.849   3.492  46.238  1.00  0.00     0.055 C 
HETATM   14  C14 UNL     1      33.590   2.769  46.529  1.00  0.00    -0.023 C 
HETATM   15  C15 UNL     1      32.322   2.922  46.958  1.00  0.00    -0.002 C 
HETATM   16  C16 UNL     1      31.702   4.211  47.354  1.00  0.00     0.028 C 
HETATM   17  C17 UNL     1      31.734   5.528  47.063  1.00  0.00     0.052 C 
HETATM   18  H6  UNL     1      32.364   6.771  49.474  1.00  0.00     0.160 HD
ENDROOT
BRANCH   1  19
HETATM   19  C3  UNL     1      29.719   5.856  48.387  1.00  0.00     0.049 C 
BRANCH  19  20
HETATM   20  C2  UNL     1      28.380   6.407  47.872  1.00  0.00     0.112 C 
BRANCH  20  21
HETATM   21  C1  UNL     1      27.365   5.576  48.622  1.00  0.00     0.139 C 
HETATM   22  O1  UNL     1      26.149   5.909  48.602  1.00  0.00    -0.650 OA
BRANCH  21  23
HETATM   23  O2  UNL     1      27.593   4.421  49.382  1.00  0.00    -0.776 OA
HETATM   24  H1  UNL     1      28.398   3.826  49.205  1.00  0.00     0.167 HD
ENDBRANCH  21  23
ENDBRANCH  20  21
ENDBRANCH  19  20
ENDBRANCH   1  19
TORSDOF 4
ENDMDL
MODEL 8
REMARK VINA RESULT:      -6.6      9.493     11.095
REMARK  4 active torsions:
REMARK  status: ('A' for Active; 'I' for Inactive)
REMARK    1  A    between atoms: C1_2  and  O2_3 
REMARK    2  A    between atoms: C1_2  and  C2_4 
REMARK    3  A    between atoms: C2_4  and  C3_5 
REMARK    4  A    between atoms: C3_5  and  C4_6 
ROOT
HETATM    1  C4  UNL     1      31.507   6.619  47.593  1.00  0.00     0.089 C 
HETATM    2  N1  UNL     1      31.540   7.144  46.218  1.00  0.00    -0.377 N 
HETATM    3  C5  UNL     1      32.744   7.873  45.994  1.00  0.00     0.007 C 
HETATM    4  C6  UNL     1      33.741   8.252  45.177  1.00  0.00    -0.002 C 
HETATM    5  C7  UNL     1      34.696   9.157  45.927  1.00  0.00     0.030 C 
HETATM    6  C8  UNL     1      34.419   8.794  47.399  1.00  0.00     0.016 C 
HETATM    7  C9  UNL     1      32.964   8.521  47.338  1.00  0.00     0.053 C 
HETATM    8  C10 UNL     1      32.390   7.584  48.339  1.00  0.00     0.113 C 
HETATM    9  S1  UNL     1      31.263   8.595  49.350  1.00  0.00    -0.040 SA
HETATM   10  N2  UNL     1      29.761   7.886  48.689  1.00  0.00    -0.298 N 
HETATM   11  C11 UNL     1      28.576   8.640  48.826  1.00  0.00     0.101 C 
HETATM   12  C12 UNL     1      27.318   8.263  48.642  1.00  0.00    -0.005 C 
HETATM   13  C13 UNL     1      26.399   7.162  48.278  1.00  0.00     0.055 C 
HETATM   14  C14 UNL     1      26.926   5.808  48.564  1.00  0.00    -0.023 C 
HETATM   15  C15 UNL     1      28.039   5.050  48.554  1.00  0.00    -0.002 C 
HETATM   16  C16 UNL     1      29.387   5.513  48.139  1.00  0.00     0.028 C 
HETATM   17  C17 UNL     1      30.169   6.612  48.139  1.00  0.00     0.052 C 
HETATM   18  H6  UNL     1      30.809   7.025  45.460  1.00  0.00     0.160 HD
ENDROOT
BRANCH   1  19
HETATM   19  C3  UNL     1      32.077   5.239  47.513  1.00  0.00     0.049 C 
BRANCH  19  20
HETATM   20  C2  UNL     1      33.323   5.049  48.393  1.00  0.00     0.112 C 
BRANCH  20  21
HETATM   21  C1  UNL     1      34.343   4.510  47.417  1.00  0.00     0.139 C 
HETATM   22  O1  UNL     1      34.657   3.289  47.453  1.00  0.00    -0.650 OA
BRANCH  21  23
HETATM   23  O2  UNL     1      35.033   5.211  46.418  1.00  0.00    -0.776 OA
HETATM   24  H1  UNL     1      35.487   6.099  46.619  1.00  0.00     0.167 HD
ENDBRANCH  21  23
ENDBRANCH  20  21
ENDBRANCH  19  20
ENDBRANCH   1  19
TORSDOF 4
ENDMDL
MODEL 9
REMARK VINA RESULT:      -6.5      3.950      6.134
REMARK  4 active torsions:
REMARK  status: ('A' for Active; 'I' for Inactive)
REMARK    1  A    between atoms: C1_2  and  O2_3 
REMARK    2  A    between atoms: C1_2  and  C2_4 
REMARK    3  A    between atoms: C2_4  and  C3_5 
REMARK    4  A    between atoms: C3_5  and  C4_6 
ROOT
HETATM    1  C4  UNL     1      23.250   3.528  51.328  1.00  0.00     0.089 C 
HETATM    2  N1  UNL     1      22.102   3.568  52.249  1.00  0.00    -0.377 N 
HETATM    3  C5  UNL     1      21.442   2.304  52.274  1.00  0.00     0.007 C 
HETATM    4  C6  UNL     1      20.768   1.356  52.946  1.00  0.00    -0.002 C 
HETATM    5  C7  UNL     1      20.438   0.210  52.014  1.00  0.00     0.030 C 
HETATM    6  C8  UNL     1      21.481   0.377  50.892  1.00  0.00     0.016 C 
HETATM    7  C9  UNL     1      21.586   1.854  50.842  1.00  0.00     0.053 C 
HETATM    8  C10 UNL     1      22.862   2.444  50.358  1.00  0.00     0.113 C 
HETATM    9  S1  UNL     1      22.434   3.305  48.811  1.00  0.00    -0.040 SA
HETATM   10  N2  UNL     1      22.605   4.952  49.482  1.00  0.00    -0.298 N 
HETATM   11  C11 UNL     1      21.948   5.999  48.800  1.00  0.00     0.101 C 
HETATM   12  C12 UNL     1      22.094   7.310  48.939  1.00  0.00    -0.005 C 
HETATM   13  C13 UNL     1      22.791   8.407  49.646  1.00  0.00     0.055 C 
HETATM   14  C14 UNL     1      24.133   8.048  50.156  1.00  0.00    -0.023 C 
HETATM   15  C15 UNL     1      24.853   7.059  50.721  1.00  0.00    -0.002 C 
HETATM   16  C16 UNL     1      24.335   5.712  51.066  1.00  0.00     0.028 C 
HETATM   17  C17 UNL     1      23.444   4.788  50.649  1.00  0.00     0.052 C 
HETATM   18  H6  UNL     1      21.768   4.385  52.835  1.00  0.00     0.160 HD
ENDROOT
BRANCH   1  19
HETATM   19  C3  UNL     1      24.431   3.168  52.173  1.00  0.00     0.049 C 
BRANCH  19  20
HETATM   20  C2  UNL     1      25.238   1.987  51.609  1.00  0.00     0.112 C 
BRANCH  20  21
HETATM   21  C1  UNL     1      26.626   2.567  51.470  1.00  0.00     0.139 C 
HETATM   22  O1  UNL     1      27.573   2.091  52.153  1.00  0.00    -0.650 OA
BRANCH  21  23
HETATM   23  O2  UNL     1      27.040   3.619  50.642  1.00  0.00    -0.776 OA
HETATM   24  H1  UNL     1      27.854   3.524  50.039  1.00  0.00     0.167 HD
ENDBRANCH  21  23
ENDBRANCH  20  21
ENDBRANCH  19  20
ENDBRANCH   1  19
TORSDOF 4
ENDMDL
