MODEL 1
REMARK VINA RESULT:      -8.2      0.000      0.000
REMARK  5 active torsions:
REMARK  status: ('A' for Active; 'I' for Inactive)
REMARK    1  A    between atoms: C2_2  and  O1_3 
REMARK    2  A    between atoms: O1_3  and  C3_4 
REMARK    3  A    between atoms: C11_14  and  S1_15 
REMARK    4  A    between atoms: S1_15  and  C12_16 
REMARK    5  A    between atoms: C12_16  and  C13_17 
ROOT
HETATM    1  C3  UNL     1      20.656  -0.388  53.436  1.00  0.00     0.078 A 
HETATM    2  C4  UNL     1      21.054  -1.193  54.482  1.00  0.00     0.037 A 
HETATM    3  C5  UNL     1      22.367  -1.368  54.859  1.00  0.00     0.005 A 
HETATM    4  C6  UNL     1      23.298  -0.677  54.114  1.00  0.00     0.038 A 
HETATM    5  C7  UNL     1      22.992   0.158  53.044  1.00  0.00     0.087 A 
HETATM    6  C8  UNL     1      21.643   0.293  52.713  1.00  0.00     0.014 A 
HETATM    7  C9  UNL     1      20.908   1.074  51.655  1.00  0.00     0.093 C 
HETATM    8  C10 UNL     1      21.355   2.488  51.617  1.00  0.00     0.118 C 
HETATM    9  N1  UNL     1      22.449   3.200  51.563  1.00  0.00    -0.164 NA
HETATM   10  N2  UNL     1      23.812   2.856  51.513  1.00  0.00    -0.117 NA
HETATM   11  C11 UNL     1      24.535   1.859  51.901  1.00  0.00     0.230 C 
HETATM   12  O2  UNL     1      24.205   0.666  52.561  1.00  0.00    -0.285 OA
ENDROOT
BRANCH  11  13
HETATM   13  S1  UNL     1      26.285   1.785  51.650  1.00  0.00    -0.078 SA
BRANCH  13  14
HETATM   14  C12 UNL     1      27.239   1.748  53.163  1.00  0.00     0.121 C 
BRANCH  14  15
HETATM   15  C13 UNL     1      28.058   0.517  53.247  1.00  0.00    -0.049 A 
HETATM   16  C14 UNL     1      27.373  -0.641  52.863  1.00  0.00     0.008 A 
HETATM   17  C15 UNL     1      27.932  -1.896  52.869  1.00  0.00     0.001 A 
HETATM   18  C16 UNL     1      29.254  -2.029  53.280  1.00  0.00     0.000 A 
HETATM   19  C17 UNL     1      29.951  -0.908  53.664  1.00  0.00     0.001 A 
HETATM   20  C18 UNL     1      29.357   0.329  53.644  1.00  0.00     0.008 A 
ENDBRANCH  14  15
ENDBRANCH  13  14
ENDBRANCH  11  13
BRANCH   1  21
HETATM   21  O1  UNL     1      19.366  -0.171  53.011  1.00  0.00    -0.351 OA
BRANCH  21  22
HETATM   22  C2  UNL     1      18.323  -1.087  53.213  1.00  0.00     0.171 C 
HETATM   23  C1  UNL     1      17.220  -1.018  52.208  1.00  0.00     0.034 C 
ENDBRANCH  21  22
ENDBRANCH   1  21
TORSDOF 5
ENDMDL
MODEL 2
REMARK VINA RESULT:      -7.6      1.738      2.231
REMARK  5 active torsions:
REMARK  status: ('A' for Active; 'I' for Inactive)
REMARK    1  A    between atoms: C2_2  and  O1_3 
REMARK    2  A    between atoms: O1_3  and  C3_4 
REMARK    3  A    between atoms: C11_14  and  S1_15 
REMARK    4  A    between atoms: S1_15  and  C12_16 
REMARK    5  A    between atoms: C12_16  and  C13_17 
ROOT
HETATM    1  C3  UNL     1      20.002  -0.767  53.310  1.00  0.00     0.078 A 
HETATM    2  C4  UNL     1      20.758  -1.488  54.209  1.00  0.00     0.037 A 
HETATM    3  C5  UNL     1      22.038  -1.145  54.583  1.00  0.00     0.005 A 
HETATM    4  C6  UNL     1      22.546  -0.007  53.994  1.00  0.00     0.038 A 
HETATM    5  C7  UNL     1      21.859   0.783  53.078  1.00  0.00     0.087 A 
HETATM    6  C8  UNL     1      20.566   0.381  52.741  1.00  0.00     0.014 A 
HETATM    7  C9  UNL     1      19.515   0.937  51.816  1.00  0.00     0.093 C 
HETATM    8  C10 UNL     1      19.315   2.391  52.036  1.00  0.00     0.118 C 
HETATM    9  N1  UNL     1      19.997   3.500  52.134  1.00  0.00    -0.164 NA
HETATM   10  N2  UNL     1      21.372   3.787  52.060  1.00  0.00    -0.117 NA
HETATM   11  C11 UNL     1      22.470   3.145  52.287  1.00  0.00     0.230 C 
HETATM   12  O2  UNL     1      22.714   1.835  52.722  1.00  0.00    -0.285 OA
ENDROOT
BRANCH  11  13
HETATM   13  S1  UNL     1      24.069   3.871  52.072  1.00  0.00    -0.078 SA
BRANCH  13  14
HETATM   14  C12 UNL     1      25.272   2.779  51.324  1.00  0.00     0.121 C 
BRANCH  14  15
HETATM   15  C13 UNL     1      25.829   1.836  52.320  1.00  0.00    -0.049 A 
HETATM   16  C14 UNL     1      26.253   0.621  51.770  1.00  0.00     0.008 A 
HETATM   17  C15 UNL     1      26.794  -0.404  52.509  1.00  0.00     0.001 A 
HETATM   18  C16 UNL     1      26.930  -0.229  53.881  1.00  0.00     0.000 A 
HETATM   19  C17 UNL     1      26.522   0.954  54.450  1.00  0.00     0.001 A 
HETATM   20  C18 UNL     1      25.986   1.954  53.678  1.00  0.00     0.008 A 
ENDBRANCH  14  15
ENDBRANCH  13  14
ENDBRANCH  11  13
BRANCH   1  21
HETATM   21  O1  UNL     1      18.721  -1.056  52.895  1.00  0.00    -0.351 OA
BRANCH  21  22
HETATM   22  C2  UNL     1      17.760  -1.655  53.722  1.00  0.00     0.171 C 
HETATM   23  C1  UNL     1      17.515  -3.104  53.457  1.00  0.00     0.034 C 
ENDBRANCH  21  22
ENDBRANCH   1  21
TORSDOF 5
ENDMDL
MODEL 3
REMARK VINA RESULT:      -7.5      4.423      5.776
REMARK  5 active torsions:
REMARK  status: ('A' for Active; 'I' for Inactive)
REMARK    1  A    between atoms: C2_2  and  O1_3 
REMARK    2  A    between atoms: O1_3  and  C3_4 
REMARK    3  A    between atoms: C11_14  and  S1_15 
REMARK    4  A    between atoms: S1_15  and  C12_16 
REMARK    5  A    between atoms: C12_16  and  C13_17 
ROOT
HETATM    1  C3  UNL     1      24.096   0.186  53.246  1.00  0.00     0.078 A 
HETATM    2  C4  UNL     1      25.190  -0.599  53.539  1.00  0.00     0.037 A 
HETATM    3  C5  UNL     1      26.436  -0.418  52.981  1.00  0.00     0.005 A 
HETATM    4  C6  UNL     1      26.541   0.623  52.083  1.00  0.00     0.038 A 
HETATM    5  C7  UNL     1      25.495   1.467  51.727  1.00  0.00     0.087 A 
HETATM    6  C8  UNL     1      24.258   1.230  52.327  1.00  0.00     0.014 A 
HETATM    7  C9  UNL     1      22.909   1.892  52.219  1.00  0.00     0.093 C 
HETATM    8  C10 UNL     1      23.016   3.366  52.354  1.00  0.00     0.118 C 
HETATM    9  N1  UNL     1      23.692   4.377  51.878  1.00  0.00    -0.164 NA
HETATM   10  N2  UNL     1      24.719   4.475  50.922  1.00  0.00    -0.117 NA
HETATM   11  C11 UNL     1      25.651   3.701  50.475  1.00  0.00     0.230 C 
HETATM   12  O2  UNL     1      26.007   2.384  50.798  1.00  0.00    -0.285 OA
ENDROOT
BRANCH  11  13
HETATM   13  S1  UNL     1      26.795   4.199  49.221  1.00  0.00    -0.078 SA
BRANCH  13  14
HETATM   14  C12 UNL     1      26.673   5.925  48.765  1.00  0.00     0.121 C 
BRANCH  14  15
HETATM   15  C13 UNL     1      27.916   6.392  48.108  1.00  0.00    -0.049 A 
HETATM   16  C14 UNL     1      29.032   5.595  48.384  1.00  0.00     0.008 A 
HETATM   17  C15 UNL     1      30.289   5.843  47.889  1.00  0.00     0.001 A 
HETATM   18  C16 UNL     1      30.468   6.949  47.065  1.00  0.00     0.000 A 
HETATM   19  C17 UNL     1      29.390   7.750  46.776  1.00  0.00     0.001 A 
HETATM   20  C18 UNL     1      28.148   7.469  47.290  1.00  0.00     0.008 A 
ENDBRANCH  14  15
ENDBRANCH  13  14
ENDBRANCH  11  13
BRANCH   1  21
HETATM   21  O1  UNL     1      22.829   0.058  53.767  1.00  0.00    -0.351 OA
BRANCH  21  22
HETATM   22  C2  UNL     1      22.454  -0.974  54.639  1.00  0.00     0.171 C 
HETATM   23  C1  UNL     1      21.106  -1.561  54.380  1.00  0.00     0.034 C 
ENDBRANCH  21  22
ENDBRANCH   1  21
TORSDOF 5
ENDMDL
MODEL 4
REMARK VINA RESULT:      -7.5      2.318      6.752
REMARK  5 active torsions:
REMARK  status: ('A' for Active; 'I' for Inactive)
REMARK    1  A    between atoms: C2_2  and  O1_3 
REMARK    2  A    between atoms: O1_3  and  C3_4 
REMARK    3  A    between atoms: C11_14  and  S1_15 
REMARK    4  A    between atoms: S1_15  and  C12_16 
REMARK    5  A    between atoms: C12_16  and  C13_17 
ROOT
HETATM    1  C3  UNL     1      26.290   0.136  52.878  1.00  0.00     0.078 A 
HETATM    2  C4  UNL     1      25.400  -0.799  53.359  1.00  0.00     0.037 A 
HETATM    3  C5  UNL     1      24.063  -0.548  53.570  1.00  0.00     0.005 A 
HETATM    4  C6  UNL     1      23.641   0.729  53.267  1.00  0.00     0.038 A 
HETATM    5  C7  UNL     1      24.465   1.737  52.776  1.00  0.00     0.087 A 
HETATM    6  C8  UNL     1      25.810   1.418  52.585  1.00  0.00     0.014 A 
HETATM    7  C9  UNL     1      27.000   2.197  52.089  1.00  0.00     0.093 C 
HETATM    8  C10 UNL     1      26.692   2.910  50.824  1.00  0.00     0.118 C 
HETATM    9  N1  UNL     1      25.795   3.705  50.307  1.00  0.00    -0.164 NA
HETATM   10  N2  UNL     1      24.613   4.273  50.815  1.00  0.00    -0.117 NA
HETATM   11  C11 UNL     1      23.748   3.964  51.723  1.00  0.00     0.230 C 
HETATM   12  O2  UNL     1      23.662   2.872  52.599  1.00  0.00    -0.285 OA
ENDROOT
BRANCH  11  13
HETATM   13  S1  UNL     1      22.337   4.967  52.089  1.00  0.00    -0.078 SA
BRANCH  13  14
HETATM   14  C12 UNL     1      20.838   4.451  51.260  1.00  0.00     0.121 C 
BRANCH  14  15
HETATM   15  C13 UNL     1      20.736   2.974  51.214  1.00  0.00    -0.049 A 
HETATM   16  C14 UNL     1      20.182   2.413  52.369  1.00  0.00     0.008 A 
HETATM   17  C15 UNL     1      19.999   1.063  52.550  1.00  0.00     0.001 A 
HETATM   18  C16 UNL     1      20.386   0.201  51.530  1.00  0.00     0.000 A 
HETATM   19  C17 UNL     1      20.934   0.725  50.383  1.00  0.00     0.001 A 
HETATM   20  C18 UNL     1      21.100   2.080  50.240  1.00  0.00     0.008 A 
ENDBRANCH  14  15
ENDBRANCH  13  14
ENDBRANCH  11  13
BRANCH   1  21
HETATM   21  O1  UNL     1      27.634  -0.051  52.646  1.00  0.00    -0.351 OA
BRANCH  21  22
HETATM   22  C2  UNL     1      28.415  -0.983  53.345  1.00  0.00     0.171 C 
HETATM   23  C1  UNL     1      29.818  -0.551  53.619  1.00  0.00     0.034 C 
ENDBRANCH  21  22
ENDBRANCH   1  21
TORSDOF 5
ENDMDL
MODEL 5
REMARK VINA RESULT:      -7.4      2.940      5.250
REMARK  5 active torsions:
REMARK  status: ('A' for Active; 'I' for Inactive)
REMARK    1  A    between atoms: C2_2  and  O1_3 
REMARK    2  A    between atoms: O1_3  and  C3_4 
REMARK    3  A    between atoms: C11_14  and  S1_15 
REMARK    4  A    between atoms: S1_15  and  C12_16 
REMARK    5  A    between atoms: C12_16  and  C13_17 
ROOT
HETATM    1  C3  UNL     1      24.522   4.946  50.463  1.00  0.00     0.078 A 
HETATM    2  C4  UNL     1      25.637   4.792  49.667  1.00  0.00     0.037 A 
HETATM    3  C5  UNL     1      26.486   3.710  49.740  1.00  0.00     0.005 A 
HETATM    4  C6  UNL     1      26.157   2.755  50.678  1.00  0.00     0.038 A 
HETATM    5  C7  UNL     1      25.054   2.825  51.522  1.00  0.00     0.087 A 
HETATM    6  C8  UNL     1      24.233   3.947  51.399  1.00  0.00     0.014 A 
HETATM    7  C9  UNL     1      22.978   4.395  52.102  1.00  0.00     0.093 C 
HETATM    8  C10 UNL     1      21.971   3.308  52.159  1.00  0.00     0.118 C 
HETATM    9  N1  UNL     1      21.860   2.050  52.493  1.00  0.00    -0.164 NA
HETATM   10  N2  UNL     1      22.777   1.111  52.999  1.00  0.00    -0.117 NA
HETATM   11  C11 UNL     1      24.056   0.937  52.944  1.00  0.00     0.230 C 
HETATM   12  O2  UNL     1      25.074   1.671  52.318  1.00  0.00    -0.285 OA
ENDROOT
BRANCH  11  13
HETATM   13  S1  UNL     1      24.877  -0.414  53.738  1.00  0.00    -0.078 SA
BRANCH  13  14
HETATM   14  C12 UNL     1      26.087  -1.240  52.711  1.00  0.00     0.121 C 
BRANCH  14  15
HETATM   15  C13 UNL     1      27.460  -0.795  53.042  1.00  0.00    -0.049 A 
HETATM   16  C14 UNL     1      28.392  -1.837  53.096  1.00  0.00     0.008 A 
HETATM   17  C15 UNL     1      29.721  -1.658  53.393  1.00  0.00     0.001 A 
HETATM   18  C16 UNL     1      30.172  -0.370  53.656  1.00  0.00     0.000 A 
HETATM   19  C17 UNL     1      29.279   0.674  53.611  1.00  0.00     0.001 A 
HETATM   20  C18 UNL     1      27.958   0.455  53.310  1.00  0.00     0.008 A 
ENDBRANCH  14  15
ENDBRANCH  13  14
ENDBRANCH  11  13
BRANCH   1  21
HETATM   21  O1  UNL     1      23.636   5.999  50.440  1.00  0.00    -0.351 OA
BRANCH  21  22
HETATM   22  C2  UNL     1      23.429   6.809  49.314  1.00  0.00     0.171 C 
HETATM   23  C1  UNL     1      23.348   8.273  49.597  1.00  0.00     0.034 C 
ENDBRANCH  21  22
ENDBRANCH   1  21
TORSDOF 5
ENDMDL
MODEL 6
REMARK VINA RESULT:      -7.2      2.335      8.110
REMARK  5 active torsions:
REMARK  status: ('A' for Active; 'I' for Inactive)
REMARK    1  A    between atoms: C2_2  and  O1_3 
REMARK    2  A    between atoms: O1_3  and  C3_4 
REMARK    3  A    between atoms: C11_14  and  S1_15 
REMARK    4  A    between atoms: S1_15  and  C12_16 
REMARK    5  A    between atoms: C12_16  and  C13_17 
ROOT
HETATM    1  C3  UNL     1      26.906   0.941  52.961  1.00  0.00     0.078 A 
HETATM    2  C4  UNL     1      27.224   2.099  52.284  1.00  0.00     0.037 A 
HETATM    3  C5  UNL     1      26.342   2.780  51.475  1.00  0.00     0.005 A 
HETATM    4  C6  UNL     1      25.082   2.230  51.370  1.00  0.00     0.038 A 
HETATM    5  C7  UNL     1      24.672   1.068  52.015  1.00  0.00     0.087 A 
HETATM    6  C8  UNL     1      25.612   0.425  52.820  1.00  0.00     0.014 A 
HETATM    7  C9  UNL     1      25.575  -0.822  53.665  1.00  0.00     0.093 C 
HETATM    8  C10 UNL     1      24.382  -0.844  54.545  1.00  0.00     0.118 C 
HETATM    9  N1  UNL     1      23.086  -0.688  54.494  1.00  0.00    -0.164 NA
HETATM   10  N2  UNL     1      22.199  -0.398  53.442  1.00  0.00    -0.117 NA
HETATM   11  C11 UNL     1      22.272   0.209  52.304  1.00  0.00     0.230 C 
HETATM   12  O2  UNL     1      23.335   0.849  51.652  1.00  0.00    -0.285 OA
ENDROOT
BRANCH  11  13
HETATM   13  S1  UNL     1      20.888   0.377  51.214  1.00  0.00    -0.078 SA
BRANCH  13  14
HETATM   14  C12 UNL     1      19.434   1.081  51.982  1.00  0.00     0.121 C 
BRANCH  14  15
HETATM   15  C13 UNL     1      18.356   0.073  52.108  1.00  0.00    -0.049 A 
HETATM   16  C14 UNL     1      18.598  -0.888  53.096  1.00  0.00     0.008 A 
HETATM   17  C15 UNL     1      17.739  -1.922  53.381  1.00  0.00     0.001 A 
HETATM   18  C16 UNL     1      16.561  -2.024  52.650  1.00  0.00     0.000 A 
HETATM   19  C17 UNL     1      16.297  -1.094  51.673  1.00  0.00     0.001 A 
HETATM   20  C18 UNL     1      17.181  -0.075  51.417  1.00  0.00     0.008 A 
ENDBRANCH  14  15
ENDBRANCH  13  14
ENDBRANCH  11  13
BRANCH   1  21
HETATM   21  O1  UNL     1      27.739   0.215  53.782  1.00  0.00    -0.351 OA
BRANCH  21  22
HETATM   22  C2  UNL     1      29.135   0.216  53.660  1.00  0.00     0.171 C 
HETATM   23  C1  UNL     1      29.759  -1.136  53.536  1.00  0.00     0.034 C 
ENDBRANCH  21  22
ENDBRANCH   1  21
TORSDOF 5
ENDMDL
MODEL 7
REMARK VINA RESULT:      -7.2      3.944      5.674
REMARK  5 active torsions:
REMARK  status: ('A' for Active; 'I' for Inactive)
REMARK    1  A    between atoms: C2_2  and  O1_3 
REMARK    2  A    between atoms: O1_3  and  C3_4 
REMARK    3  A    between atoms: C11_14  and  S1_15 
REMARK    4  A    between atoms: S1_15  and  C12_16 
REMARK    5  A    between atoms: C12_16  and  C13_17 
ROOT
HETATM    1  C3  UNL     1      23.559   0.979  52.747  1.00  0.00     0.078 A 
HETATM    2  C4  UNL     1      24.913   0.724  52.768  1.00  0.00     0.037 A 
HETATM    3  C5  UNL     1      25.828   1.369  51.966  1.00  0.00     0.005 A 
HETATM    4  C6  UNL     1      25.307   2.316  51.111  1.00  0.00     0.038 A 
HETATM    5  C7  UNL     1      23.957   2.641  51.020  1.00  0.00     0.087 A 
HETATM    6  C8  UNL     1      23.082   1.951  51.859  1.00  0.00     0.014 A 
HETATM    7  C9  UNL     1      21.591   1.999  52.068  1.00  0.00     0.093 C 
HETATM    8  C10 UNL     1      21.112   3.393  52.239  1.00  0.00     0.118 C 
HETATM    9  N1  UNL     1      21.199   4.566  51.672  1.00  0.00    -0.164 NA
HETATM   10  N2  UNL     1      21.869   5.028  50.525  1.00  0.00    -0.117 NA
HETATM   11  C11 UNL     1      22.919   4.679  49.858  1.00  0.00     0.230 C 
HETATM   12  O2  UNL     1      23.842   3.640  50.043  1.00  0.00    -0.285 OA
ENDROOT
BRANCH  11  13
HETATM   13  S1  UNL     1      23.467   5.537  48.411  1.00  0.00    -0.078 SA
BRANCH  13  14
HETATM   14  C12 UNL     1      24.650   6.839  48.738  1.00  0.00     0.121 C 
BRANCH  14  15
HETATM   15  C13 UNL     1      26.039   6.349  48.584  1.00  0.00    -0.049 A 
HETATM   16  C14 UNL     1      26.905   7.283  48.005  1.00  0.00     0.008 A 
HETATM   17  C15 UNL     1      28.235   7.042  47.759  1.00  0.00     0.001 A 
HETATM   18  C16 UNL     1      28.756   5.799  48.103  1.00  0.00     0.000 A 
HETATM   19  C17 UNL     1      27.928   4.861  48.672  1.00  0.00     0.001 A 
HETATM   20  C18 UNL     1      26.604   5.140  48.902  1.00  0.00     0.008 A 
ENDBRANCH  14  15
ENDBRANCH  13  14
ENDBRANCH  11  13
BRANCH   1  21
HETATM   21  O1  UNL     1      22.596   0.371  53.520  1.00  0.00    -0.351 OA
BRANCH  21  22
HETATM   22  C2  UNL     1      22.690  -0.954  53.968  1.00  0.00     0.171 C 
HETATM   23  C1  UNL     1      21.465  -1.481  54.641  1.00  0.00     0.034 C 
ENDBRANCH  21  22
ENDBRANCH   1  21
TORSDOF 5
ENDMDL
MODEL 8
REMARK VINA RESULT:      -7.2      2.651      6.990
REMARK  5 active torsions:
REMARK  status: ('A' for Active; 'I' for Inactive)
REMARK    1  A    between atoms: C2_2  and  O1_3 
REMARK    2  A    between atoms: O1_3  and  C3_4 
REMARK    3  A    between atoms: C11_14  and  S1_15 
REMARK    4  A    between atoms: S1_15  and  C12_16 
REMARK    5  A    between atoms: C12_16  and  C13_17 
ROOT
HETATM    1  C3  UNL     1      26.927   0.555  53.250  1.00  0.00     0.078 A 
HETATM    2  C4  UNL     1      27.507   1.658  52.661  1.00  0.00     0.037 A 
HETATM    3  C5  UNL     1      26.849   2.494  51.786  1.00  0.00     0.005 A 
HETATM    4  C6  UNL     1      25.538   2.165  51.518  1.00  0.00     0.038 A 
HETATM    5  C7  UNL     1      24.870   1.074  52.065  1.00  0.00     0.087 A 
HETATM    6  C8  UNL     1      25.592   0.265  52.944  1.00  0.00     0.014 A 
HETATM    7  C9  UNL     1      25.253  -0.975  53.728  1.00  0.00     0.093 C 
HETATM    8  C10 UNL     1      23.976  -0.816  54.468  1.00  0.00     0.118 C 
HETATM    9  N1  UNL     1      22.739  -0.445  54.278  1.00  0.00    -0.164 NA
HETATM   10  N2  UNL     1      22.041   0.011  53.145  1.00  0.00    -0.117 NA
HETATM   11  C11 UNL     1      22.345   0.622  52.048  1.00  0.00     0.230 C 
HETATM   12  O2  UNL     1      23.568   1.089  51.546  1.00  0.00    -0.285 OA
ENDROOT
BRANCH  11  13
HETATM   13  S1  UNL     1      21.145   1.042  50.818  1.00  0.00    -0.078 SA
BRANCH  13  14
HETATM   14  C12 UNL     1      20.572   2.735  50.902  1.00  0.00     0.121 C 
BRANCH  14  15
HETATM   15  C13 UNL     1      21.710   3.678  51.004  1.00  0.00    -0.049 A 
HETATM   16  C14 UNL     1      22.377   3.887  49.792  1.00  0.00     0.008 A 
HETATM   17  C15 UNL     1      23.465   4.714  49.652  1.00  0.00     0.001 A 
HETATM   18  C16 UNL     1      23.934   5.384  50.776  1.00  0.00     0.000 A 
HETATM   19  C17 UNL     1      23.299   5.198  51.980  1.00  0.00     0.001 A 
HETATM   20  C18 UNL     1      22.214   4.363  52.080  1.00  0.00     0.008 A 
ENDBRANCH  14  15
ENDBRANCH  13  14
ENDBRANCH  11  13
BRANCH   1  21
HETATM   21  O1  UNL     1      27.527  -0.317  54.129  1.00  0.00    -0.351 OA
BRANCH  21  22
HETATM   22  C2  UNL     1      28.863  -0.200  54.541  1.00  0.00     0.171 C 
HETATM   23  C1  UNL     1      29.840  -1.001  53.745  1.00  0.00     0.034 C 
ENDBRANCH  21  22
ENDBRANCH   1  21
TORSDOF 5
ENDMDL
MODEL 9
REMARK VINA RESULT:      -7.2      4.487      7.230
REMARK  5 active torsions:
REMARK  status: ('A' for Active; 'I' for Inactive)
REMARK    1  A    between atoms: C2_2  and  O1_3 
REMARK    2  A    between atoms: O1_3  and  C3_4 
REMARK    3  A    between atoms: C11_14  and  S1_15 
REMARK    4  A    between atoms: S1_15  and  C12_16 
REMARK    5  A    between atoms: C12_16  and  C13_17 
ROOT
HETATM    1  C3  UNL     1      26.309   6.848  49.053  1.00  0.00     0.078 A 
HETATM    2  C4  UNL     1      27.263   6.079  48.421  1.00  0.00     0.037 A 
HETATM    3  C5  UNL     1      27.449   4.736  48.661  1.00  0.00     0.005 A 
HETATM    4  C6  UNL     1      26.606   4.176  49.597  1.00  0.00     0.038 A 
HETATM    5  C7  UNL     1      25.615   4.871  50.284  1.00  0.00     0.087 A 
HETATM    6  C8  UNL     1      25.479   6.229  49.995  1.00  0.00     0.014 A 
HETATM    7  C9  UNL     1      24.559   7.310  50.502  1.00  0.00     0.093 C 
HETATM    8  C10 UNL     1      23.143   6.869  50.483  1.00  0.00     0.118 C 
HETATM    9  N1  UNL     1      22.391   5.872  50.866  1.00  0.00    -0.164 NA
HETATM   10  N2  UNL     1      22.668   4.668  51.537  1.00  0.00    -0.117 NA
HETATM   11  C11 UNL     1      23.688   3.885  51.660  1.00  0.00     0.230 C 
HETATM   12  O2  UNL     1      24.986   3.951  51.135  1.00  0.00    -0.285 OA
ENDROOT
BRANCH  11  13
HETATM   13  S1  UNL     1      23.651   2.403  52.626  1.00  0.00    -0.078 SA
BRANCH  13  14
HETATM   14  C12 UNL     1      24.554   1.037  51.904  1.00  0.00     0.121 C 
BRANCH  14  15
HETATM   15  C13 UNL     1      25.910   0.926  52.489  1.00  0.00    -0.049 A 
HETATM   16  C14 UNL     1      26.434  -0.370  52.451  1.00  0.00     0.008 A 
HETATM   17  C15 UNL     1      27.672  -0.708  52.943  1.00  0.00     0.001 A 
HETATM   18  C16 UNL     1      28.451   0.292  53.514  1.00  0.00     0.000 A 
HETATM   19  C17 UNL     1      27.962   1.575  53.565  1.00  0.00     0.001 A 
HETATM   20  C18 UNL     1      26.720   1.873  53.062  1.00  0.00     0.008 A 
ENDBRANCH  14  15
ENDBRANCH  13  14
ENDBRANCH  11  13
BRANCH   1  21
HETATM   21  O1  UNL     1      26.074   8.190  48.858  1.00  0.00    -0.351 OA
BRANCH  21  22
HETATM   22  C2  UNL     1      27.096   9.141  48.731  1.00  0.00     0.171 C 
HETATM   23  C1  UNL     1      27.846   9.433  49.989  1.00  0.00     0.034 C 
ENDBRANCH  21  22
ENDBRANCH   1  21
TORSDOF 5
ENDMDL
