MODEL 1
REMARK VINA RESULT:      -8.3      0.000      0.000
REMARK  0 active torsions:
REMARK  status: ('A' for Active; 'I' for Inactive)
ROOT
HETATM    1  F1  UNL     1      27.051   1.325  51.428  1.00  0.00    -0.203 F 
HETATM    2  C1  UNL     1      26.299   2.424  51.464  1.00  0.00     0.153 C 
HETATM    3  C2  UNL     1      26.680   3.237  50.420  1.00  0.00     0.133 C 
HETATM    4  N1  UNL     1      26.037   4.478  50.251  1.00  0.00    -0.347 N 
HETATM    5  C3  UNL     1      25.152   5.546  49.945  1.00  0.00     0.139 A 
HETATM    6  N2  UNL     1      25.703   6.710  50.188  1.00  0.00    -0.224 NA
HETATM    7  C4  UNL     1      24.921   7.842  50.289  1.00  0.00     0.235 A 
HETATM    8  N3  UNL     1      23.689   7.337  50.087  1.00  0.00    -0.241 NA
HETATM    9  C5  UNL     1      23.258   6.088  49.842  1.00  0.00     0.072 A 
HETATM   10  C6  UNL     1      23.987   4.927  49.718  1.00  0.00     0.040 A 
HETATM   11  C7  UNL     1      23.636   3.615  49.344  1.00  0.00     0.212 C 
HETATM   12  O1  UNL     1      22.260   3.536  48.990  1.00  0.00    -0.386 OA
HETATM   13  C8  UNL     1      21.885   2.286  48.648  1.00  0.00     0.168 C 
HETATM   14  C9  UNL     1      20.414   2.141  48.365  1.00  0.00     0.031 C 
HETATM   15  C10 UNL     1      19.494   2.397  49.499  1.00  0.00    -0.004 C 
HETATM   16  C11 UNL     1      18.707   1.134  49.830  1.00  0.00     0.031 C 
HETATM   17  C12 UNL     1      17.471   1.555  50.585  1.00  0.00     0.168 C 
HETATM   18  O2  UNL     1      17.795   2.552  51.501  1.00  0.00    -0.391 OA
HETATM   19  C13 UNL     1      19.149   2.453  51.899  1.00  0.00     0.172 C 
HETATM   20  C14 UNL     1      20.072   2.919  50.779  1.00  0.00     0.020 C 
HETATM   21  C15 UNL     1      20.165   4.435  50.845  1.00  0.00     0.071 C 
HETATM   22  C16 UNL     1      21.584   4.911  50.912  1.00  0.00     0.049 C 
HETATM   23  C17 UNL     1      21.840   5.604  49.773  1.00  0.00     0.064 C 
HETATM   24  O3  UNL     1      22.425   4.707  51.875  1.00  0.00    -0.352 OA
HETATM   25  C18 UNL     1      23.275   4.512  52.870  1.00  0.00     0.204 C 
HETATM   26  C19 UNL     1      24.334   3.441  52.662  1.00  0.00     0.026 C 
HETATM   27  C20 UNL     1      25.251   2.434  52.549  1.00  0.00     0.072 C 
HETATM   28 CL1  UNL     1      25.465   0.971  53.575  1.00  0.00    -0.081 Cl
HETATM   29  H2  UNL     1      26.975   4.737  50.743  1.00  0.00     0.167 HD
ENDROOT
TORSDOF 0
ENDMDL
MODEL 2
REMARK VINA RESULT:      -7.9      8.541     11.632
REMARK  0 active torsions:
REMARK  status: ('A' for Active; 'I' for Inactive)
ROOT
HETATM    1  F1  UNL     1      27.400   8.179  50.056  1.00  0.00    -0.203 F 
HETATM    2  C1  UNL     1      28.111   8.593  49.008  1.00  0.00     0.153 C 
HETATM    3  C2  UNL     1      28.683   9.803  49.331  1.00  0.00     0.133 C 
HETATM    4  N1  UNL     1      29.478  10.459  48.373  1.00  0.00    -0.347 N 
HETATM    5  C3  UNL     1      30.509  10.906  47.503  1.00  0.00     0.139 A 
HETATM    6  N2  UNL     1      30.156  11.990  46.859  1.00  0.00    -0.224 NA
HETATM    7  C4  UNL     1      30.851  12.389  45.736  1.00  0.00     0.235 A 
HETATM    8  N3  UNL     1      31.783  11.422  45.638  1.00  0.00    -0.241 NA
HETATM    9  C5  UNL     1      32.036  10.337  46.390  1.00  0.00     0.072 A 
HETATM   10  C6  UNL     1      31.389   9.897  47.523  1.00  0.00     0.040 A 
HETATM   11  C7  UNL     1      31.661   8.857  48.434  1.00  0.00     0.212 C 
HETATM   12  O1  UNL     1      32.874   8.191  48.101  1.00  0.00    -0.386 OA
HETATM   13  C8  UNL     1      33.152   7.173  48.942  1.00  0.00     0.168 C 
HETATM   14  C9  UNL     1      34.373   6.379  48.563  1.00  0.00     0.031 C 
HETATM   15  C10 UNL     1      34.317   5.654  47.271  1.00  0.00    -0.004 C 
HETATM   16  C11 UNL     1      34.436   4.153  47.508  1.00  0.00     0.031 C 
HETATM   17  C12 UNL     1      34.890   3.525  46.214  1.00  0.00     0.168 C 
HETATM   18  O2  UNL     1      34.219   4.109  45.144  1.00  0.00    -0.391 OA
HETATM   19  C13 UNL     1      32.961   4.613  45.551  1.00  0.00     0.172 C 
HETATM   20  C14 UNL     1      33.133   5.879  46.381  1.00  0.00     0.020 C 
HETATM   21  C15 UNL     1      33.291   7.051  45.425  1.00  0.00     0.071 C 
HETATM   22  C16 UNL     1      32.310   8.148  45.709  1.00  0.00     0.049 C 
HETATM   23  C17 UNL     1      33.015   9.235  46.113  1.00  0.00     0.064 C 
HETATM   24  O3  UNL     1      31.022   8.085  45.595  1.00  0.00    -0.352 OA
HETATM   25  C18 UNL     1      29.708   8.021  45.458  1.00  0.00     0.204 C 
HETATM   26  C19 UNL     1      28.897   7.858  46.734  1.00  0.00     0.026 C 
HETATM   27  C20 UNL     1      28.136   7.631  47.846  1.00  0.00     0.072 C 
HETATM   28 CL1  UNL     1      27.032   6.256  48.208  1.00  0.00    -0.081 Cl
HETATM   29  H2  UNL     1      28.520  10.974  48.310  1.00  0.00     0.167 HD
ENDROOT
TORSDOF 0
ENDMDL
MODEL 3
REMARK VINA RESULT:      -7.5      3.407      5.267
REMARK  0 active torsions:
REMARK  status: ('A' for Active; 'I' for Inactive)
ROOT
HETATM    1  F1  UNL     1      18.558   0.141  51.803  1.00  0.00    -0.203 F 
HETATM    2  C1  UNL     1      19.646   0.901  51.927  1.00  0.00     0.153 C 
HETATM    3  C2  UNL     1      20.746   0.073  51.956  1.00  0.00     0.133 C 
HETATM    4  N1  UNL     1      22.025   0.641  52.098  1.00  0.00    -0.347 N 
HETATM    5  C3  UNL     1      23.283   1.278  51.920  1.00  0.00     0.139 A 
HETATM    6  N2  UNL     1      24.016   1.201  53.003  1.00  0.00    -0.224 NA
HETATM    7  C4  UNL     1      25.107   2.030  53.164  1.00  0.00     0.235 A 
HETATM    8  N3  UNL     1      25.070   2.749  52.026  1.00  0.00    -0.241 NA
HETATM    9  C5  UNL     1      24.237   2.722  50.972  1.00  0.00     0.072 A 
HETATM   10  C6  UNL     1      23.145   1.913  50.749  1.00  0.00     0.040 A 
HETATM   11  C7  UNL     1      22.303   1.732  49.635  1.00  0.00     0.212 C 
HETATM   12  O1  UNL     1      22.732   2.529  48.536  1.00  0.00    -0.386 OA
HETATM   13  C8  UNL     1      21.931   2.396  47.458  1.00  0.00     0.168 C 
HETATM   14  C9  UNL     1      22.293   3.300  46.309  1.00  0.00     0.031 C 
HETATM   15  C10 UNL     1      22.178   4.758  46.553  1.00  0.00    -0.004 C 
HETATM   16  C11 UNL     1      21.139   5.364  45.616  1.00  0.00     0.031 C 
HETATM   17  C12 UNL     1      21.421   6.842  45.524  1.00  0.00     0.168 C 
HETATM   18  O2  UNL     1      21.743   7.341  46.782  1.00  0.00    -0.391 OA
HETATM   19  C13 UNL     1      21.149   6.562  47.802  1.00  0.00     0.172 C 
HETATM   20  C14 UNL     1      21.864   5.223  47.941  1.00  0.00     0.020 C 
HETATM   21  C15 UNL     1      23.088   5.432  48.818  1.00  0.00     0.071 C 
HETATM   22  C16 UNL     1      23.123   4.482  49.976  1.00  0.00     0.049 C 
HETATM   23  C17 UNL     1      24.196   3.668  49.809  1.00  0.00     0.064 C 
HETATM   24  O3  UNL     1      22.286   4.434  50.963  1.00  0.00    -0.352 OA
HETATM   25  C18 UNL     1      21.441   4.402  51.980  1.00  0.00     0.204 C 
HETATM   26  C19 UNL     1      20.389   3.304  51.957  1.00  0.00     0.026 C 
HETATM   27  C20 UNL     1      19.377   2.386  51.935  1.00  0.00     0.072 C 
HETATM   28 CL1  UNL     1      17.598   2.653  51.928  1.00  0.00    -0.081 Cl
HETATM   29  H2  UNL     1      21.785   0.292  53.102  1.00  0.00     0.167 HD
ENDROOT
TORSDOF 0
ENDMDL
MODEL 4
REMARK VINA RESULT:      -7.5      8.401     10.140
REMARK  0 active torsions:
REMARK  status: ('A' for Active; 'I' for Inactive)
ROOT
HETATM    1  F1  UNL     1      34.405  10.715  47.432  1.00  0.00    -0.203 F 
HETATM    2  C1  UNL     1      33.639   9.652  47.188  1.00  0.00     0.153 C 
HETATM    3  C2  UNL     1      33.936   8.687  48.123  1.00  0.00     0.133 C 
HETATM    4  N1  UNL     1      33.264   7.451  48.067  1.00  0.00    -0.347 N 
HETATM    5  C3  UNL     1      32.343   6.373  48.156  1.00  0.00     0.139 A 
HETATM    6  N2  UNL     1      32.890   5.244  47.780  1.00  0.00    -0.224 NA
HETATM    7  C4  UNL     1      32.099   4.159  47.465  1.00  0.00     0.235 A 
HETATM    8  N3  UNL     1      30.864   4.660  47.661  1.00  0.00    -0.241 NA
HETATM    9  C5  UNL     1      30.437   5.872  48.058  1.00  0.00     0.072 A 
HETATM   10  C6  UNL     1      31.176   6.983  48.397  1.00  0.00     0.040 A 
HETATM   11  C7  UNL     1      30.822   8.235  48.936  1.00  0.00     0.212 C 
HETATM   12  O1  UNL     1      29.426   8.297  49.210  1.00  0.00    -0.386 OA
HETATM   13  C8  UNL     1      29.051   9.494  49.708  1.00  0.00     0.168 C 
HETATM   14  C9  UNL     1      27.566   9.634  49.914  1.00  0.00     0.031 C 
HETATM   15  C10 UNL     1      26.719   9.569  48.698  1.00  0.00    -0.004 C 
HETATM   16  C11 UNL     1      25.977  10.887  48.508  1.00  0.00     0.031 C 
HETATM   17  C12 UNL     1      24.788  10.612  47.621  1.00  0.00     0.168 C 
HETATM   18  O2  UNL     1      25.155   9.751  46.592  1.00  0.00    -0.391 OA
HETATM   19  C13 UNL     1      26.534   9.872  46.300  1.00  0.00     0.172 C 
HETATM   20  C14 UNL     1      27.373   9.225  47.395  1.00  0.00     0.020 C 
HETATM   21  C15 UNL     1      27.446   7.733  47.114  1.00  0.00     0.071 C 
HETATM   22  C16 UNL     1      28.858   7.234  47.068  1.00  0.00     0.049 C 
HETATM   23  C17 UNL     1      29.026   6.377  48.107  1.00  0.00     0.064 C 
HETATM   24  O3  UNL     1      29.765   7.555  46.201  1.00  0.00    -0.352 OA
HETATM   25  C18 UNL     1      30.682   7.870  45.301  1.00  0.00     0.204 C 
HETATM   26  C19 UNL     1      31.743   8.871  45.731  1.00  0.00     0.026 C 
HETATM   27  C20 UNL     1      32.666   9.828  46.049  1.00  0.00     0.072 C 
HETATM   28 CL1  UNL     1      32.972  11.418  45.264  1.00  0.00    -0.081 Cl
HETATM   29  H2  UNL     1      34.228   7.242  47.603  1.00  0.00     0.167 HD
ENDROOT
TORSDOF 0
ENDMDL
MODEL 5
REMARK VINA RESULT:      -7.4      3.104      5.029
REMARK  0 active torsions:
REMARK  status: ('A' for Active; 'I' for Inactive)
ROOT
HETATM    1  F1  UNL     1      22.944   5.397  48.186  1.00  0.00    -0.203 F 
HETATM    2  C1  UNL     1      22.825   4.289  48.917  1.00  0.00     0.153 C 
HETATM    3  C2  UNL     1      23.291   4.560  50.184  1.00  0.00     0.133 C 
HETATM    4  N1  UNL     1      23.284   3.535  51.148  1.00  0.00    -0.347 N 
HETATM    5  C3  UNL     1      22.959   2.576  52.144  1.00  0.00     0.139 A 
HETATM    6  N2  UNL     1      24.029   1.968  52.593  1.00  0.00    -0.224 NA
HETATM    7  C4  UNL     1      23.914   0.787  53.296  1.00  0.00     0.235 A 
HETATM    8  N3  UNL     1      22.580   0.603  53.299  1.00  0.00    -0.241 NA
HETATM    9  C5  UNL     1      21.571   1.328  52.785  1.00  0.00     0.072 A 
HETATM   10  C6  UNL     1      21.622   2.514  52.089  1.00  0.00     0.040 A 
HETATM   11  C7  UNL     1      20.623   3.394  51.629  1.00  0.00     0.212 C 
HETATM   12  O1  UNL     1      19.330   2.951  52.027  1.00  0.00    -0.386 OA
HETATM   13  C8  UNL     1      18.347   3.762  51.583  1.00  0.00     0.168 C 
HETATM   14  C9  UNL     1      16.958   3.272  51.895  1.00  0.00     0.031 C 
HETATM   15  C10 UNL     1      16.553   1.989  51.272  1.00  0.00    -0.004 C 
HETATM   16  C11 UNL     1      15.366   2.212  50.342  1.00  0.00     0.031 C 
HETATM   17  C12 UNL     1      14.682   0.881  50.155  1.00  0.00     0.168 C 
HETATM   18  O2  UNL     1      15.634  -0.122  50.002  1.00  0.00    -0.391 OA
HETATM   19  C13 UNL     1      16.835   0.398  49.464  1.00  0.00     0.172 C 
HETATM   20  C14 UNL     1      17.584   1.211  50.514  1.00  0.00     0.020 C 
HETATM   21  C15 UNL     1      18.388   0.247  51.371  1.00  0.00     0.071 C 
HETATM   22  C16 UNL     1      19.838   0.620  51.435  1.00  0.00     0.049 C 
HETATM   23  C17 UNL     1      20.119   0.960  52.718  1.00  0.00     0.064 C 
HETATM   24  O3  UNL     1      20.681   0.624  50.452  1.00  0.00    -0.352 OA
HETATM   25  C18 UNL     1      21.542   0.608  49.448  1.00  0.00     0.204 C 
HETATM   26  C19 UNL     1      21.898   1.951  48.833  1.00  0.00     0.026 C 
HETATM   27  C20 UNL     1      22.183   3.128  48.198  1.00  0.00     0.072 C 
HETATM   28 CL1  UNL     1      21.917   3.586  46.479  1.00  0.00    -0.081 Cl
HETATM   29  H2  UNL     1      24.319   3.560  50.805  1.00  0.00     0.167 HD
ENDROOT
TORSDOF 0
ENDMDL
MODEL 6
REMARK VINA RESULT:      -7.4      8.369     11.104
REMARK  0 active torsions:
REMARK  status: ('A' for Active; 'I' for Inactive)
ROOT
HETATM    1  F1  UNL     1      25.255   8.282  46.499  1.00  0.00    -0.203 F 
HETATM    2  C1  UNL     1      26.420   8.917  46.622  1.00  0.00     0.153 C 
HETATM    3  C2  UNL     1      26.529   9.363  47.920  1.00  0.00     0.133 C 
HETATM    4  N1  UNL     1      27.676  10.085  48.300  1.00  0.00    -0.347 N 
HETATM    5  C3  UNL     1      28.971  10.514  48.699  1.00  0.00     0.139 A 
HETATM    6  N2  UNL     1      28.994  11.799  48.950  1.00  0.00    -0.224 NA
HETATM    7  C4  UNL     1      30.195  12.473  49.016  1.00  0.00     0.235 A 
HETATM    8  N3  UNL     1      31.074  11.483  48.768  1.00  0.00    -0.241 NA
HETATM    9  C5  UNL     1      30.906  10.173  48.520  1.00  0.00     0.072 A 
HETATM   10  C6  UNL     1      29.740   9.445  48.455  1.00  0.00     0.040 A 
HETATM   11  C7  UNL     1      29.481   8.066  48.327  1.00  0.00     0.212 C 
HETATM   12  O1  UNL     1      30.693   7.319  48.314  1.00  0.00    -0.386 OA
HETATM   13  C8  UNL     1      30.482   5.994  48.170  1.00  0.00     0.168 C 
HETATM   14  C9  UNL     1      31.742   5.180  48.048  1.00  0.00     0.031 C 
HETATM   15  C10 UNL     1      32.592   5.449  46.863  1.00  0.00    -0.004 C 
HETATM   16  C11 UNL     1      32.691   4.198  45.997  1.00  0.00     0.031 C 
HETATM   17  C12 UNL     1      33.923   4.339  45.139  1.00  0.00     0.168 C 
HETATM   18  O2  UNL     1      34.022   5.643  44.665  1.00  0.00    -0.391 OA
HETATM   19  C13 UNL     1      32.747   6.248  44.579  1.00  0.00     0.172 C 
HETATM   20  C14 UNL     1      32.222   6.591  45.968  1.00  0.00     0.020 C 
HETATM   21  C15 UNL     1      32.824   7.924  46.383  1.00  0.00     0.071 C 
HETATM   22  C16 UNL     1      31.777   8.916  46.791  1.00  0.00     0.049 C 
HETATM   23  C17 UNL     1      31.949   9.176  48.112  1.00  0.00     0.064 C 
HETATM   24  O3  UNL     1      30.866   9.437  46.033  1.00  0.00    -0.352 OA
HETATM   25  C18 UNL     1      29.950   9.982  45.249  1.00  0.00     0.204 C 
HETATM   26  C19 UNL     1      28.538   9.430  45.365  1.00  0.00     0.026 C 
HETATM   27  C20 UNL     1      27.275   8.909  45.379  1.00  0.00     0.072 C 
HETATM   28 CL1  UNL     1      26.343   8.149  44.040  1.00  0.00    -0.081 Cl
HETATM   29  H2  UNL     1      26.926  10.859  48.139  1.00  0.00     0.167 HD
ENDROOT
TORSDOF 0
ENDMDL
MODEL 7
REMARK VINA RESULT:      -7.3      8.652     11.424
REMARK  0 active torsions:
REMARK  status: ('A' for Active; 'I' for Inactive)
ROOT
HETATM    1  F1  UNL     1      35.350   8.316  47.730  1.00  0.00    -0.203 F 
HETATM    2  C1  UNL     1      34.069   8.026  47.507  1.00  0.00     0.153 C 
HETATM    3  C2  UNL     1      33.577   7.380  48.619  1.00  0.00     0.133 C 
HETATM    4  N1  UNL     1      32.236   6.953  48.623  1.00  0.00    -0.347 N 
HETATM    5  C3  UNL     1      30.822   6.838  48.695  1.00  0.00     0.139 A 
HETATM    6  N2  UNL     1      30.437   5.588  48.610  1.00  0.00    -0.224 NA
HETATM    7  C4  UNL     1      29.125   5.283  48.317  1.00  0.00     0.235 A 
HETATM    8  N3  UNL     1      28.584   6.510  48.189  1.00  0.00    -0.241 NA
HETATM    9  C5  UNL     1      29.111   7.741  48.306  1.00  0.00     0.072 A 
HETATM   10  C6  UNL     1      30.403   8.107  48.607  1.00  0.00     0.040 A 
HETATM   11  C7  UNL     1      31.006   9.352  48.870  1.00  0.00     0.212 C 
HETATM   12  O1  UNL     1      30.041  10.399  48.854  1.00  0.00    -0.386 OA
HETATM   13  C8  UNL     1      30.590  11.611  49.080  1.00  0.00     0.168 C 
HETATM   14  C9  UNL     1      29.619  12.756  48.970  1.00  0.00     0.031 C 
HETATM   15  C10 UNL     1      29.009  12.980  47.637  1.00  0.00    -0.004 C 
HETATM   16  C11 UNL     1      29.403  14.354  47.107  1.00  0.00     0.031 C 
HETATM   17  C12 UNL     1      28.390  14.742  46.058  1.00  0.00     0.168 C 
HETATM   18  O2  UNL     1      28.087  13.640  45.264  1.00  0.00    -0.391 OA
HETATM   19  C13 UNL     1      29.167  12.728  45.231  1.00  0.00     0.172 C 
HETATM   20  C14 UNL     1      29.279  11.981  46.555  1.00  0.00     0.020 C 
HETATM   21  C15 UNL     1      28.300  10.819  46.525  1.00  0.00     0.071 C 
HETATM   22  C16 UNL     1      28.965   9.511  46.831  1.00  0.00     0.049 C 
HETATM   23  C17 UNL     1      28.452   9.053  48.001  1.00  0.00     0.064 C 
HETATM   24  O3  UNL     1      29.866   8.915  46.118  1.00  0.00    -0.352 OA
HETATM   25  C18 UNL     1      30.773   8.300  45.376  1.00  0.00     0.204 C 
HETATM   26  C19 UNL     1      32.216   8.394  45.846  1.00  0.00     0.026 C 
HETATM   27  C20 UNL     1      33.533   8.522  46.187  1.00  0.00     0.072 C 
HETATM   28 CL1  UNL     1      34.888   9.237  45.243  1.00  0.00    -0.081 Cl
HETATM   29  H2  UNL     1      32.795   6.046  48.393  1.00  0.00     0.167 HD
ENDROOT
TORSDOF 0
ENDMDL
MODEL 8
REMARK VINA RESULT:      -7.2      3.314      6.155
REMARK  0 active torsions:
REMARK  status: ('A' for Active; 'I' for Inactive)
ROOT
HETATM    1  F1  UNL     1      21.024   1.115  53.807  1.00  0.00    -0.203 F 
HETATM    2  C1  UNL     1      20.919   1.461  52.525  1.00  0.00     0.153 C 
HETATM    3  C2  UNL     1      19.673   2.015  52.332  1.00  0.00     0.133 C 
HETATM    4  N1  UNL     1      19.311   2.451  51.044  1.00  0.00    -0.347 N 
HETATM    5  C3  UNL     1      19.129   3.153  49.823  1.00  0.00     0.139 A 
HETATM    6  N2  UNL     1      18.257   2.553  49.050  1.00  0.00    -0.224 NA
HETATM    7  C4  UNL     1      18.187   2.863  47.708  1.00  0.00     0.235 A 
HETATM    8  N3  UNL     1      19.154   3.794  47.596  1.00  0.00    -0.241 NA
HETATM    9  C5  UNL     1      19.996   4.329  48.497  1.00  0.00     0.072 A 
HETATM   10  C6  UNL     1      20.104   4.071  49.845  1.00  0.00     0.040 A 
HETATM   11  C7  UNL     1      20.859   4.666  50.873  1.00  0.00     0.212 C 
HETATM   12  O1  UNL     1      21.604   5.776  50.383  1.00  0.00    -0.386 OA
HETATM   13  C8  UNL     1      22.357   6.356  51.340  1.00  0.00     0.168 C 
HETATM   14  C9  UNL     1      23.238   7.469  50.838  1.00  0.00     0.031 C 
HETATM   15  C10 UNL     1      24.286   7.094  49.859  1.00  0.00    -0.004 C 
HETATM   16  C11 UNL     1      25.667   7.383  50.436  1.00  0.00     0.031 C 
HETATM   17  C12 UNL     1      26.629   7.488  49.279  1.00  0.00     0.168 C 
HETATM   18  O2  UNL     1      26.350   6.496  48.343  1.00  0.00    -0.391 OA
HETATM   19  C13 UNL     1      25.742   5.377  48.957  1.00  0.00     0.172 C 
HETATM   20  C14 UNL     1      24.299   5.691  49.335  1.00  0.00     0.020 C 
HETATM   21  C15 UNL     1      23.434   5.482  48.102  1.00  0.00     0.071 C 
HETATM   22  C16 UNL     1      22.290   4.550  48.366  1.00  0.00     0.049 C 
HETATM   23  C17 UNL     1      21.142   5.262  48.241  1.00  0.00     0.064 C 
HETATM   24  O3  UNL     1      22.368   3.292  48.661  1.00  0.00    -0.352 OA
HETATM   25  C18 UNL     1      22.453   2.002  48.942  1.00  0.00     0.204 C 
HETATM   26  C19 UNL     1      22.253   1.607  50.397  1.00  0.00     0.026 C 
HETATM   27  C20 UNL     1      22.161   1.218  51.704  1.00  0.00     0.072 C 
HETATM   28 CL1  UNL     1      23.373   0.367  52.725  1.00  0.00    -0.081 Cl
HETATM   29  H2  UNL     1      18.822   1.481  51.136  1.00  0.00     0.167 HD
ENDROOT
TORSDOF 0
ENDMDL
MODEL 9
REMARK VINA RESULT:      -7.1      3.443      5.418
REMARK  0 active torsions:
REMARK  status: ('A' for Active; 'I' for Inactive)
ROOT
HETATM    1  F1  UNL     1      24.444   4.534  51.298  1.00  0.00    -0.203 F 
HETATM    2  C1  UNL     1      23.752   3.398  51.379  1.00  0.00     0.153 C 
HETATM    3  C2  UNL     1      23.646   3.056  52.709  1.00  0.00     0.133 C 
HETATM    4  N1  UNL     1      22.965   1.875  53.058  1.00  0.00    -0.347 N 
HETATM    5  C3  UNL     1      22.011   0.867  53.362  1.00  0.00     0.139 A 
HETATM    6  N2  UNL     1      22.588  -0.222  53.806  1.00  0.00    -0.224 NA
HETATM    7  C4  UNL     1      21.895  -1.414  53.833  1.00  0.00     0.235 A 
HETATM    8  N3  UNL     1      20.702  -1.044  53.331  1.00  0.00    -0.241 NA
HETATM    9  C5  UNL     1      20.234   0.142  52.903  1.00  0.00     0.072 A 
HETATM   10  C6  UNL     1      20.870   1.362  52.864  1.00  0.00     0.040 A 
HETATM   11  C7  UNL     1      20.424   2.661  52.555  1.00  0.00     0.212 C 
HETATM   12  O1  UNL     1      19.027   2.669  52.281  1.00  0.00    -0.386 OA
HETATM   13  C8  UNL     1      18.571   3.897  51.958  1.00  0.00     0.168 C 
HETATM   14  C9  UNL     1      17.118   3.928  51.561  1.00  0.00     0.031 C 
HETATM   15  C10 UNL     1      16.749   3.173  50.341  1.00  0.00    -0.004 C 
HETATM   16  C11 UNL     1      16.198   4.125  49.284  1.00  0.00     0.031 C 
HETATM   17  C12 UNL     1      15.381   3.304  48.318  1.00  0.00     0.168 C 
HETATM   18  O2  UNL     1      16.035   2.107  48.045  1.00  0.00    -0.391 OA
HETATM   19  C13 UNL     1      17.433   2.245  48.207  1.00  0.00     0.172 C 
HETATM   20  C14 UNL     1      17.796   2.326  49.685  1.00  0.00     0.020 C 
HETATM   21  C15 UNL     1      17.876   0.908  50.229  1.00  0.00     0.071 C 
HETATM   22  C16 UNL     1      19.184   0.636  50.908  1.00  0.00     0.049 C 
HETATM   23  C17 UNL     1      18.927   0.422  52.223  1.00  0.00     0.064 C 
HETATM   24  O3  UNL     1      20.354   0.609  50.354  1.00  0.00    -0.352 OA
HETATM   25  C18 UNL     1      21.544   0.562  49.779  1.00  0.00     0.204 C 
HETATM   26  C19 UNL     1      22.443   1.772  49.975  1.00  0.00     0.026 C 
HETATM   27  C20 UNL     1      23.251   2.871  50.057  1.00  0.00     0.072 C 
HETATM   28 CL1  UNL     1      23.904   3.905  48.736  1.00  0.00    -0.081 Cl
HETATM   29  H2  UNL     1      24.017   1.592  53.109  1.00  0.00     0.167 HD
ENDROOT
TORSDOF 0
ENDMDL
