MODEL 1
REMARK VINA RESULT:      -8.2      0.000      0.000
REMARK  5 active torsions:
REMARK  status: ('A' for Active; 'I' for Inactive)
REMARK    1  A    between atoms: O1_2  and  C2_3 
REMARK    2  A    between atoms: C5_6  and  N1_7 
REMARK    3  A    between atoms: C14_18  and  O2_19 
REMARK    4  A    between atoms: O2_19  and  C15_20 
REMARK    5  A    between atoms: C15_20  and  C16_21 
ROOT
HETATM    1  C2  UNL     1      24.371   3.881  50.881  1.00  0.00     0.101 A 
HETATM    2  C3  UNL     1      24.619   4.997  50.216  1.00  0.00     0.048 A 
HETATM    3  C4  UNL     1      25.866   5.120  49.460  1.00  0.00    -0.034 A 
HETATM    4  C5  UNL     1      26.084   6.248  48.806  1.00  0.00     0.124 C 
HETATM    5  C12 UNL     1      26.862   4.037  49.415  1.00  0.00     0.070 A 
HETATM    6  C13 UNL     1      26.410   2.873  50.217  1.00  0.00     0.017 A 
HETATM    7  C14 UNL     1      25.287   2.747  50.904  1.00  0.00     0.098 A 
ENDROOT
BRANCH   4   8
HETATM    8  N1  UNL     1      27.180   6.633  48.011  1.00  0.00    -0.262 NA
HETATM    9  C6  UNL     1      27.947   7.648  48.243  1.00  0.00     0.076 A 
HETATM   10  C7  UNL     1      29.023   7.807  47.230  1.00  0.00     0.091 A 
HETATM   11  C11 UNL     1      27.706   8.495  49.403  1.00  0.00     0.142 A 
HETATM   12  C8  UNL     1      29.820   8.996  47.617  1.00  0.00    -0.002 A 
HETATM   13  C9  UNL     1      29.652   9.807  48.661  1.00  0.00     0.010 A 
HETATM   14 BR1  UNL     1      30.756  11.329  49.063  1.00  0.00    -0.051 Br
HETATM   15  C10 UNL     1      28.539   9.504  49.557  1.00  0.00     0.063 A 
HETATM   16  F1  UNL     1      26.705   8.269  50.263  1.00  0.00    -0.204 F 
ENDBRANCH   4   8
BRANCH   1  17
HETATM   17  O1  UNL     1      23.192   3.746  51.603  1.00  0.00    -0.353 OA
HETATM   18  C1  UNL     1      22.648   4.770  52.398  1.00  0.00     0.210 C 
ENDBRANCH   1  17
BRANCH   7  19
HETATM   19  O2  UNL     1      25.002   1.586  51.611  1.00  0.00    -0.348 OA
BRANCH  19  20
HETATM   20  C15 UNL     1      25.153   1.563  53.019  1.00  0.00     0.180 C 
BRANCH  20  21
HETATM   21  C16 UNL     1      25.878   0.298  53.447  1.00  0.00     0.013 C 
HETATM   22  C17 UNL     1      26.672   0.610  54.677  1.00  0.00     0.037 C 
HETATM   23  C18 UNL     1      28.156   0.434  54.476  1.00  0.00     0.272 C 
HETATM   24  N2  UNL     1      28.498  -0.854  53.942  1.00  0.00     0.084 N 
HETATM   25  C19 UNL     1      29.921  -0.804  53.574  1.00  0.00     0.309 C 
HETATM   26  C20 UNL     1      27.694  -1.250  52.804  1.00  0.00     0.272 C 
HETATM   27  C21 UNL     1      26.841  -0.085  52.351  1.00  0.00     0.037 C 
ENDBRANCH  20  21
ENDBRANCH  19  20
ENDBRANCH   7  19
TORSDOF 5
ENDMDL
MODEL 2
REMARK VINA RESULT:      -8.2      7.457     10.738
REMARK  5 active torsions:
REMARK  status: ('A' for Active; 'I' for Inactive)
REMARK    1  A    between atoms: O1_2  and  C2_3 
REMARK    2  A    between atoms: C5_6  and  N1_7 
REMARK    3  A    between atoms: C14_18  and  O2_19 
REMARK    4  A    between atoms: O2_19  and  C15_20 
REMARK    5  A    between atoms: C15_20  and  C16_21 
ROOT
HETATM    1  C2  UNL     1      21.852   2.005  52.671  1.00  0.00     0.101 A 
HETATM    2  C3  UNL     1      20.637   1.498  52.796  1.00  0.00     0.048 A 
HETATM    3  C4  UNL     1      20.481   0.085  53.145  1.00  0.00    -0.034 A 
HETATM    4  C5  UNL     1      19.254  -0.392  53.262  1.00  0.00     0.124 C 
HETATM    5  C12 UNL     1      21.640  -0.797  53.362  1.00  0.00     0.070 A 
HETATM    6  C13 UNL     1      22.911  -0.053  53.179  1.00  0.00     0.017 A 
HETATM    7  C14 UNL     1      23.066   1.222  52.865  1.00  0.00     0.098 A 
ENDROOT
BRANCH   4   8
HETATM    8  N1  UNL     1      18.818  -1.691  53.583  1.00  0.00    -0.262 NA
HETATM    9  C6  UNL     1      17.675  -2.197  53.247  1.00  0.00     0.076 A 
HETATM   10  C7  UNL     1      17.493  -3.591  53.728  1.00  0.00     0.091 A 
HETATM   11  C11 UNL     1      16.727  -1.406  52.474  1.00  0.00     0.142 A 
HETATM   12  C8  UNL     1      16.155  -4.041  53.273  1.00  0.00    -0.002 A 
HETATM   13  C9  UNL     1      15.246  -3.370  52.567  1.00  0.00     0.010 A 
HETATM   14 BR1  UNL     1      13.534  -4.063  52.033  1.00  0.00    -0.051 Br
HETATM   15  C10 UNL     1      15.592  -2.005  52.178  1.00  0.00     0.063 A 
HETATM   16  F1  UNL     1      16.984  -0.151  52.086  1.00  0.00    -0.204 F 
ENDBRANCH   4   8
BRANCH   1  17
HETATM   17  O1  UNL     1      22.018   3.344  52.341  1.00  0.00    -0.353 OA
HETATM   18  C1  UNL     1      21.918   3.838  51.029  1.00  0.00     0.210 C 
ENDBRANCH   1  17
BRANCH   7  19
HETATM   19  O2  UNL     1      24.331   1.780  52.728  1.00  0.00    -0.348 OA
BRANCH  19  20
HETATM   20  C15 UNL     1      24.995   1.721  51.479  1.00  0.00     0.180 C 
BRANCH  20  21
HETATM   21  C16 UNL     1      26.472   1.425  51.685  1.00  0.00     0.013 C 
HETATM   22  C17 UNL     1      26.626  -0.048  51.902  1.00  0.00     0.037 C 
HETATM   23  C18 UNL     1      27.191  -0.384  53.259  1.00  0.00     0.272 C 
HETATM   24  N2  UNL     1      28.408   0.321  53.547  1.00  0.00     0.084 N 
HETATM   25  C19 UNL     1      28.714   0.091  54.967  1.00  0.00     0.309 C 
HETATM   26  C20 UNL     1      28.346   1.740  53.265  1.00  0.00     0.272 C 
HETATM   27  C21 UNL     1      26.922   2.134  52.938  1.00  0.00     0.037 C 
ENDBRANCH  20  21
ENDBRANCH  19  20
ENDBRANCH   7  19
TORSDOF 5
ENDMDL
MODEL 3
REMARK VINA RESULT:      -8.2      3.050      3.901
REMARK  5 active torsions:
REMARK  status: ('A' for Active; 'I' for Inactive)
REMARK    1  A    between atoms: O1_2  and  C2_3 
REMARK    2  A    between atoms: C5_6  and  N1_7 
REMARK    3  A    between atoms: C14_18  and  O2_19 
REMARK    4  A    between atoms: O2_19  and  C15_20 
REMARK    5  A    between atoms: C15_20  and  C16_21 
ROOT
HETATM    1  C2  UNL     1      24.574   5.405  49.744  1.00  0.00     0.101 A 
HETATM    2  C3  UNL     1      25.665   5.938  49.218  1.00  0.00     0.048 A 
HETATM    3  C4  UNL     1      26.837   5.093  48.985  1.00  0.00    -0.034 A 
HETATM    4  C5  UNL     1      27.911   5.655  48.457  1.00  0.00     0.124 C 
HETATM    5  C12 UNL     1      26.844   3.659  49.320  1.00  0.00     0.070 A 
HETATM    6  C13 UNL     1      25.540   3.246  49.897  1.00  0.00     0.017 A 
HETATM    7  C14 UNL     1      24.474   3.998  50.112  1.00  0.00     0.098 A 
ENDROOT
BRANCH   4   8
HETATM    8  N1  UNL     1      29.157   5.090  48.132  1.00  0.00    -0.262 NA
HETATM    9  C6  UNL     1      30.289   5.718  48.157  1.00  0.00     0.076 A 
HETATM   10  C7  UNL     1      31.437   4.861  47.761  1.00  0.00     0.091 A 
HETATM   11  C11 UNL     1      30.336   7.120  48.547  1.00  0.00     0.142 A 
HETATM   12  C8  UNL     1      32.657   5.700  47.837  1.00  0.00    -0.002 A 
HETATM   13  C9  UNL     1      32.767   6.982  48.185  1.00  0.00     0.010 A 
HETATM   14 BR1  UNL     1      34.415   7.971  48.247  1.00  0.00    -0.051 Br
HETATM   15  C10 UNL     1      31.531   7.673  48.545  1.00  0.00     0.063 A 
HETATM   16  F1  UNL     1      29.240   7.809  48.888  1.00  0.00    -0.204 F 
ENDBRANCH   4   8
BRANCH   1  17
HETATM   17  O1  UNL     1      23.453   6.192  49.971  1.00  0.00    -0.353 OA
HETATM   18  C1  UNL     1      23.486   7.401  50.686  1.00  0.00     0.210 C 
ENDBRANCH   1  17
BRANCH   7  19
HETATM   19  O2  UNL     1      23.316   3.463  50.663  1.00  0.00    -0.348 OA
BRANCH  19  20
HETATM   20  C15 UNL     1      23.223   2.068  50.887  1.00  0.00     0.180 C 
BRANCH  20  21
HETATM   21  C16 UNL     1      22.793   1.795  52.320  1.00  0.00     0.013 C 
HETATM   22  C17 UNL     1      23.849   0.958  52.971  1.00  0.00     0.037 C 
HETATM   23  C18 UNL     1      23.339  -0.392  53.409  1.00  0.00     0.272 C 
HETATM   24  N2  UNL     1      22.159  -0.306  54.222  1.00  0.00     0.084 N 
HETATM   25  C19 UNL     1      21.639  -1.673  54.372  1.00  0.00     0.309 C 
HETATM   26  C20 UNL     1      21.137   0.569  53.685  1.00  0.00     0.272 C 
HETATM   27  C21 UNL     1      21.515   0.995  52.282  1.00  0.00     0.037 C 
ENDBRANCH  20  21
ENDBRANCH  19  20
ENDBRANCH   7  19
TORSDOF 5
ENDMDL
MODEL 4
REMARK VINA RESULT:      -7.7      4.513      9.443
REMARK  5 active torsions:
REMARK  status: ('A' for Active; 'I' for Inactive)
REMARK    1  A    between atoms: O1_2  and  C2_3 
REMARK    2  A    between atoms: C5_6  and  N1_7 
REMARK    3  A    between atoms: C14_18  and  O2_19 
REMARK    4  A    between atoms: O2_19  and  C15_20 
REMARK    5  A    between atoms: C15_20  and  C16_21 
ROOT
HETATM    1  C2  UNL     1      28.272   5.851  48.332  1.00  0.00     0.101 A 
HETATM    2  C3  UNL     1      27.674   4.725  48.685  1.00  0.00     0.048 A 
HETATM    3  C4  UNL     1      26.331   4.776  49.264  1.00  0.00    -0.034 A 
HETATM    4  C5  UNL     1      25.760   3.634  49.606  1.00  0.00     0.124 C 
HETATM    5  C12 UNL     1      25.618   6.048  49.471  1.00  0.00     0.070 A 
HETATM    6  C13 UNL     1      26.444   7.194  49.018  1.00  0.00     0.017 A 
HETATM    7  C14 UNL     1      27.657   7.163  48.493  1.00  0.00     0.098 A 
ENDROOT
BRANCH   4   8
HETATM    8  N1  UNL     1      24.496   3.391  50.176  1.00  0.00    -0.262 NA
HETATM    9  C6  UNL     1      24.241   2.485  51.063  1.00  0.00     0.076 A 
HETATM   10  C7  UNL     1      22.814   2.463  51.478  1.00  0.00     0.091 A 
HETATM   11  C11 UNL     1      25.307   1.619  51.548  1.00  0.00     0.142 A 
HETATM   12  C8  UNL     1      22.667   1.389  52.489  1.00  0.00    -0.002 A 
HETATM   13  C9  UNL     1      23.597   0.567  52.973  1.00  0.00     0.010 A 
HETATM   14 BR1  UNL     1      23.286  -0.797  54.292  1.00  0.00    -0.051 Br
HETATM   15  C10 UNL     1      24.952   0.728  52.451  1.00  0.00     0.063 A 
HETATM   16  F1  UNL     1      26.568   1.716  51.111  1.00  0.00    -0.204 F 
ENDBRANCH   4   8
BRANCH   1  17
HETATM   17  O1  UNL     1      29.546   5.821  47.780  1.00  0.00    -0.353 OA
HETATM   18  C1  UNL     1      30.720   5.711  48.544  1.00  0.00     0.210 C 
ENDBRANCH   1  17
BRANCH   7  19
HETATM   19  O2  UNL     1      28.307   8.331  48.113  1.00  0.00    -0.348 OA
BRANCH  19  20
HETATM   20  C15 UNL     1      28.823   9.202  49.103  1.00  0.00     0.180 C 
BRANCH  20  21
HETATM   21  C16 UNL     1      30.317   9.397  48.902  1.00  0.00     0.013 C 
HETATM   22  C17 UNL     1      30.653  10.815  49.242  1.00  0.00     0.037 C 
HETATM   23  C18 UNL     1      31.207  11.584  48.069  1.00  0.00     0.272 C 
HETATM   24  N2  UNL     1      32.312  10.918  47.437  1.00  0.00     0.084 N 
HETATM   25  C19 UNL     1      32.593  11.640  46.188  1.00  0.00     0.309 C 
HETATM   26  C20 UNL     1      32.077   9.514  47.170  1.00  0.00     0.272 C 
HETATM   27  C21 UNL     1      30.627   9.178  47.441  1.00  0.00     0.037 C 
ENDBRANCH  20  21
ENDBRANCH  19  20
ENDBRANCH   7  19
TORSDOF 5
ENDMDL
MODEL 5
REMARK VINA RESULT:      -7.6      4.394      9.148
REMARK  5 active torsions:
REMARK  status: ('A' for Active; 'I' for Inactive)
REMARK    1  A    between atoms: O1_2  and  C2_3 
REMARK    2  A    between atoms: C5_6  and  N1_7 
REMARK    3  A    between atoms: C14_18  and  O2_19 
REMARK    4  A    between atoms: O2_19  and  C15_20 
REMARK    5  A    between atoms: C15_20  and  C16_21 
ROOT
HETATM    1  C2  UNL     1      25.555   6.437  48.991  1.00  0.00     0.101 A 
HETATM    2  C3  UNL     1      24.960   5.591  49.816  1.00  0.00     0.048 A 
HETATM    3  C4  UNL     1      25.614   4.321  50.138  1.00  0.00    -0.034 A 
HETATM    4  C5  UNL     1      24.994   3.498  50.965  1.00  0.00     0.124 C 
HETATM    5  C12 UNL     1      26.920   3.950  49.569  1.00  0.00     0.070 A 
HETATM    6  C13 UNL     1      27.427   5.019  48.672  1.00  0.00     0.017 A 
HETATM    7  C14 UNL     1      26.848   6.169  48.373  1.00  0.00     0.098 A 
ENDROOT
BRANCH   4   8
HETATM    8  N1  UNL     1      25.384   2.232  51.440  1.00  0.00    -0.262 NA
HETATM    9  C6  UNL     1      24.648   1.447  52.157  1.00  0.00     0.076 A 
HETATM   10  C7  UNL     1      25.329   0.174  52.511  1.00  0.00     0.091 A 
HETATM   11  C11 UNL     1      23.300   1.851  52.531  1.00  0.00     0.142 A 
HETATM   12  C8  UNL     1      24.378  -0.622  53.323  1.00  0.00    -0.002 A 
HETATM   13  C9  UNL     1      23.138  -0.311  53.697  1.00  0.00     0.010 A 
HETATM   14 BR1  UNL     1      21.992  -1.433  54.758  1.00  0.00    -0.051 Br
HETATM   15  C10 UNL     1      22.626   0.985  53.260  1.00  0.00     0.063 A 
HETATM   16  F1  UNL     1      22.772   3.024  52.162  1.00  0.00    -0.204 F 
ENDBRANCH   4   8
BRANCH   1  17
HETATM   17  O1  UNL     1      24.950   7.646  48.676  1.00  0.00    -0.353 OA
HETATM   18  C1  UNL     1      24.427   8.526  49.638  1.00  0.00     0.210 C 
ENDBRANCH   1  17
BRANCH   7  19
HETATM   19  O2  UNL     1      27.451   7.075  47.510  1.00  0.00    -0.348 OA
BRANCH  19  20
HETATM   20  C15 UNL     1      28.847   7.302  47.591  1.00  0.00     0.180 C 
BRANCH  20  21
HETATM   21  C16 UNL     1      29.147   8.340  48.661  1.00  0.00     0.013 C 
HETATM   22  C17 UNL     1      28.193   9.480  48.486  1.00  0.00     0.037 C 
HETATM   23  C18 UNL     1      28.886  10.779  48.165  1.00  0.00     0.272 C 
HETATM   24  N2  UNL     1      29.926  11.103  49.101  1.00  0.00     0.084 N 
HETATM   25  C19 UNL     1      30.667  12.245  48.545  1.00  0.00     0.309 C 
HETATM   26  C20 UNL     1      30.827  10.003  49.381  1.00  0.00     0.272 C 
HETATM   27  C21 UNL     1      30.545   8.858  48.433  1.00  0.00     0.037 C 
ENDBRANCH  20  21
ENDBRANCH  19  20
ENDBRANCH   7  19
TORSDOF 5
ENDMDL
MODEL 6
REMARK VINA RESULT:      -7.5      4.552      8.796
REMARK  5 active torsions:
REMARK  status: ('A' for Active; 'I' for Inactive)
REMARK    1  A    between atoms: O1_2  and  C2_3 
REMARK    2  A    between atoms: C5_6  and  N1_7 
REMARK    3  A    between atoms: C14_18  and  O2_19 
REMARK    4  A    between atoms: O2_19  and  C15_20 
REMARK    5  A    between atoms: C15_20  and  C16_21 
ROOT
HETATM    1  C2  UNL     1      25.559   6.253  49.013  1.00  0.00     0.101 A 
HETATM    2  C3  UNL     1      24.869   5.481  49.838  1.00  0.00     0.048 A 
HETATM    3  C4  UNL     1      25.440   4.207  50.276  1.00  0.00    -0.034 A 
HETATM    4  C5  UNL     1      24.727   3.459  51.100  1.00  0.00     0.124 C 
HETATM    5  C12 UNL     1      26.766   3.751  49.827  1.00  0.00     0.070 A 
HETATM    6  C13 UNL     1      27.383   4.744  48.913  1.00  0.00     0.017 A 
HETATM    7  C14 UNL     1      26.879   5.898  48.509  1.00  0.00     0.098 A 
ENDROOT
BRANCH   4   8
HETATM    8  N1  UNL     1      25.025   2.209  51.671  1.00  0.00    -0.262 NA
HETATM    9  C6  UNL     1      24.168   1.431  52.250  1.00  0.00     0.076 A 
HETATM   10  C7  UNL     1      24.776   0.174  52.760  1.00  0.00     0.091 A 
HETATM   11  C11 UNL     1      22.771   1.828  52.345  1.00  0.00     0.142 A 
HETATM   12  C8  UNL     1      23.691  -0.615  53.390  1.00  0.00    -0.002 A 
HETATM   13  C9  UNL     1      22.399  -0.309  53.508  1.00  0.00     0.010 A 
HETATM   14 BR1  UNL     1      21.076  -1.420  54.352  1.00  0.00    -0.051 Br
HETATM   15  C10 UNL     1      21.973   0.971  52.949  1.00  0.00     0.063 A 
HETATM   16  F1  UNL     1      22.317   2.987  51.852  1.00  0.00    -0.204 F 
ENDBRANCH   4   8
BRANCH   1  17
HETATM   17  O1  UNL     1      25.032   7.465  48.588  1.00  0.00    -0.353 OA
HETATM   18  C1  UNL     1      24.159   7.590  47.493  1.00  0.00     0.210 C 
ENDBRANCH   1  17
BRANCH   7  19
HETATM   19  O2  UNL     1      27.583   6.727  47.644  1.00  0.00    -0.348 OA
BRANCH  19  20
HETATM   20  C15 UNL     1      28.626   7.543  48.145  1.00  0.00     0.180 C 
BRANCH  20  21
HETATM   21  C16 UNL     1      29.923   7.244  47.410  1.00  0.00     0.013 C 
HETATM   22  C17 UNL     1      30.592   6.094  48.096  1.00  0.00     0.037 C 
HETATM   23  C18 UNL     1      31.937   6.457  48.672  1.00  0.00     0.272 C 
HETATM   24  N2  UNL     1      32.807   7.075  47.711  1.00  0.00     0.084 N 
HETATM   25  C19 UNL     1      33.969   7.589  48.450  1.00  0.00     0.309 C 
HETATM   26  C20 UNL     1      32.181   8.136  46.949  1.00  0.00     0.272 C 
HETATM   27  C21 UNL     1      30.821   8.450  47.533  1.00  0.00     0.037 C 
ENDBRANCH  20  21
ENDBRANCH  19  20
ENDBRANCH   7  19
TORSDOF 5
ENDMDL
MODEL 7
REMARK VINA RESULT:      -7.4      4.655      9.137
REMARK  5 active torsions:
REMARK  status: ('A' for Active; 'I' for Inactive)
REMARK    1  A    between atoms: O1_2  and  C2_3 
REMARK    2  A    between atoms: C5_6  and  N1_7 
REMARK    3  A    between atoms: C14_18  and  O2_19 
REMARK    4  A    between atoms: O2_19  and  C15_20 
REMARK    5  A    between atoms: C15_20  and  C16_21 
ROOT
HETATM    1  C2  UNL     1      26.782   5.983  48.730  1.00  0.00     0.101 A 
HETATM    2  C3  UNL     1      26.468   4.779  49.181  1.00  0.00     0.048 A 
HETATM    3  C4  UNL     1      25.058   4.415  49.332  1.00  0.00    -0.034 A 
HETATM    4  C5  UNL     1      24.777   3.205  49.784  1.00  0.00     0.124 C 
HETATM    5  C12 UNL     1      23.971   5.349  48.999  1.00  0.00     0.070 A 
HETATM    6  C13 UNL     1      24.516   6.641  48.513  1.00  0.00     0.017 A 
HETATM    7  C14 UNL     1      25.785   6.983  48.371  1.00  0.00     0.098 A 
ENDROOT
BRANCH   4   8
HETATM    8  N1  UNL     1      23.530   2.598  50.024  1.00  0.00    -0.262 NA
HETATM    9  C6  UNL     1      23.269   1.796  51.005  1.00  0.00     0.076 A 
HETATM   10  C7  UNL     1      21.864   1.311  51.000  1.00  0.00     0.091 A 
HETATM   11  C11 UNL     1      24.308   1.460  51.968  1.00  0.00     0.142 A 
HETATM   12  C8  UNL     1      21.706   0.412  52.168  1.00  0.00    -0.002 A 
HETATM   13  C9  UNL     1      22.613   0.065  53.082  1.00  0.00     0.010 A 
HETATM   14 BR1  UNL     1      22.289  -1.118  54.563  1.00  0.00    -0.051 Br
HETATM   15  C10 UNL     1      23.949   0.636  52.932  1.00  0.00     0.063 A 
HETATM   16  F1  UNL     1      25.551   1.950  51.887  1.00  0.00    -0.204 F 
ENDBRANCH   4   8
BRANCH   1  17
HETATM   17  O1  UNL     1      28.114   6.345  48.579  1.00  0.00    -0.353 OA
HETATM   18  C1  UNL     1      29.126   5.444  48.207  1.00  0.00     0.210 C 
ENDBRANCH   1  17
BRANCH   7  19
HETATM   19  O2  UNL     1      26.142   8.241  47.899  1.00  0.00    -0.348 OA
BRANCH  19  20
HETATM   20  C15 UNL     1      26.183   9.341  48.789  1.00  0.00     0.180 C 
BRANCH  20  21
HETATM   21  C16 UNL     1      27.510  10.072  48.657  1.00  0.00     0.013 C 
HETATM   22  C17 UNL     1      27.978   9.936  47.242  1.00  0.00     0.037 C 
HETATM   23  C18 UNL     1      29.287   9.199  47.126  1.00  0.00     0.272 C 
HETATM   24  N2  UNL     1      30.313   9.746  47.970  1.00  0.00     0.084 N 
HETATM   25  C19 UNL     1      31.441   8.805  47.944  1.00  0.00     0.309 C 
HETATM   26  C20 UNL     1      29.886   9.988  49.333  1.00  0.00     0.272 C 
HETATM   27  C21 UNL     1      28.514   9.388  49.552  1.00  0.00     0.037 C 
ENDBRANCH  20  21
ENDBRANCH  19  20
ENDBRANCH   7  19
TORSDOF 5
ENDMDL
MODEL 8
REMARK VINA RESULT:      -7.3      4.859      9.069
REMARK  5 active torsions:
REMARK  status: ('A' for Active; 'I' for Inactive)
REMARK    1  A    between atoms: O1_2  and  C2_3 
REMARK    2  A    between atoms: C5_6  and  N1_7 
REMARK    3  A    between atoms: C14_18  and  O2_19 
REMARK    4  A    between atoms: O2_19  and  C15_20 
REMARK    5  A    between atoms: C15_20  and  C16_21 
ROOT
HETATM    1  C2  UNL     1      25.551   5.726  49.653  1.00  0.00     0.101 A 
HETATM    2  C3  UNL     1      24.682   5.229  50.518  1.00  0.00     0.048 A 
HETATM    3  C4  UNL     1      24.788   3.825  50.915  1.00  0.00    -0.034 A 
HETATM    4  C5  UNL     1      23.904   3.358  51.781  1.00  0.00     0.124 C 
HETATM    5  C12 UNL     1      25.836   2.939  50.381  1.00  0.00     0.070 A 
HETATM    6  C13 UNL     1      26.710   3.672  49.432  1.00  0.00     0.017 A 
HETATM    7  C14 UNL     1      26.627   4.939  49.064  1.00  0.00     0.098 A 
ENDROOT
BRANCH   4   8
HETATM    8  N1  UNL     1      23.772   2.069  52.329  1.00  0.00    -0.262 NA
HETATM    9  C6  UNL     1      22.653   1.439  52.487  1.00  0.00     0.076 A 
HETATM   10  C7  UNL     1      22.825   0.092  53.093  1.00  0.00     0.091 A 
HETATM   11  C11 UNL     1      21.401   2.063  52.084  1.00  0.00     0.142 A 
HETATM   12  C8  UNL     1      21.476  -0.511  53.213  1.00  0.00    -0.002 A 
HETATM   13  C9  UNL     1      20.298   0.005  52.864  1.00  0.00     0.010 A 
HETATM   14 BR1  UNL     1      18.603  -0.878  53.070  1.00  0.00    -0.051 Br
HETATM   15  C10 UNL     1      20.314   1.345  52.283  1.00  0.00     0.063 A 
HETATM   16  F1  UNL     1      21.348   3.287  51.545  1.00  0.00    -0.204 F 
ENDBRANCH   4   8
BRANCH   1  17
HETATM   17  O1  UNL     1      25.466   7.057  49.266  1.00  0.00    -0.353 OA
HETATM   18  C1  UNL     1      24.402   7.579  48.510  1.00  0.00     0.210 C 
ENDBRANCH   1  17
BRANCH   7  19
HETATM   19  O2  UNL     1      27.527   5.486  48.158  1.00  0.00    -0.348 OA
BRANCH  19  20
HETATM   20  C15 UNL     1      28.917   5.415  48.418  1.00  0.00     0.180 C 
BRANCH  20  21
HETATM   21  C16 UNL     1      29.628   6.603  47.789  1.00  0.00     0.013 C 
HETATM   22  C17 UNL     1      30.927   6.801  48.506  1.00  0.00     0.037 C 
HETATM   23  C18 UNL     1      31.015   8.137  49.200  1.00  0.00     0.272 C 
HETATM   24  N2  UNL     1      30.722   9.239  48.328  1.00  0.00     0.084 N 
HETATM   25  C19 UNL     1      30.606  10.438  49.172  1.00  0.00     0.309 C 
HETATM   26  C20 UNL     1      29.522   9.059  47.536  1.00  0.00     0.272 C 
HETATM   27  C21 UNL     1      28.778   7.829  48.009  1.00  0.00     0.037 C 
ENDBRANCH  20  21
ENDBRANCH  19  20
ENDBRANCH   7  19
TORSDOF 5
ENDMDL
MODEL 9
REMARK VINA RESULT:      -7.2      2.768      3.879
REMARK  5 active torsions:
REMARK  status: ('A' for Active; 'I' for Inactive)
REMARK    1  A    between atoms: O1_2  and  C2_3 
REMARK    2  A    between atoms: C5_6  and  N1_7 
REMARK    3  A    between atoms: C14_18  and  O2_19 
REMARK    4  A    between atoms: O2_19  and  C15_20 
REMARK    5  A    between atoms: C15_20  and  C16_21 
ROOT
HETATM    1  C2  UNL     1      23.307   5.609  49.188  1.00  0.00     0.101 A 
HETATM    2  C3  UNL     1      24.322   5.985  48.428  1.00  0.00     0.048 A 
HETATM    3  C4  UNL     1      25.380   6.817  49.003  1.00  0.00    -0.034 A 
HETATM    4  C5  UNL     1      26.381   7.177  48.217  1.00  0.00     0.124 C 
HETATM    5  C12 UNL     1      25.353   7.252  50.409  1.00  0.00     0.070 A 
HETATM    6  C13 UNL     1      24.145   6.734  51.098  1.00  0.00     0.017 A 
HETATM    7  C14 UNL     1      23.182   5.983  50.591  1.00  0.00     0.098 A 
ENDROOT
BRANCH   4   8
HETATM    8  N1  UNL     1      27.514   7.961  48.501  1.00  0.00    -0.262 NA
HETATM    9  C6  UNL     1      28.729   7.520  48.558  1.00  0.00     0.076 A 
HETATM   10  C7  UNL     1      29.718   8.582  48.880  1.00  0.00     0.091 A 
HETATM   11  C11 UNL     1      29.005   6.111  48.315  1.00  0.00     0.142 A 
HETATM   12  C8  UNL     1      31.055   7.942  48.909  1.00  0.00    -0.002 A 
HETATM   13  C9  UNL     1      31.373   6.665  48.697  1.00  0.00     0.010 A 
HETATM   14 BR1  UNL     1      33.156   5.947  48.763  1.00  0.00    -0.051 Br
HETATM   15  C10 UNL     1      30.272   5.756  48.393  1.00  0.00     0.063 A 
HETATM   16  F1  UNL     1      28.041   5.227  48.032  1.00  0.00    -0.204 F 
ENDBRANCH   4   8
BRANCH   1  17
HETATM   17  O1  UNL     1      22.295   4.819  48.659  1.00  0.00    -0.353 OA
HETATM   18  C1  UNL     1      21.223   5.332  47.909  1.00  0.00     0.210 C 
ENDBRANCH   1  17
BRANCH   7  19
HETATM   19  O2  UNL     1      22.105   5.573  51.368  1.00  0.00    -0.348 OA
BRANCH  19  20
HETATM   20  C15 UNL     1      22.260   4.495  52.273  1.00  0.00     0.180 C 
BRANCH  20  21
HETATM   21  C16 UNL     1      23.389   3.585  51.815  1.00  0.00     0.013 C 
HETATM   22  C17 UNL     1      22.783   2.328  51.273  1.00  0.00     0.037 C 
HETATM   23  C18 UNL     1      23.185   1.101  52.051  1.00  0.00     0.272 C 
HETATM   24  N2  UNL     1      24.608   0.977  52.203  1.00  0.00     0.084 N 
HETATM   25  C19 UNL     1      24.846  -0.105  53.168  1.00  0.00     0.309 C 
HETATM   26  C20 UNL     1      25.261   2.196  52.636  1.00  0.00     0.272 C 
HETATM   27  C21 UNL     1      24.220   3.224  53.021  1.00  0.00     0.037 C 
ENDBRANCH  20  21
ENDBRANCH  19  20
ENDBRANCH   7  19
TORSDOF 5
ENDMDL
