MODEL 1
REMARK VINA RESULT:      -7.2      0.000      0.000
REMARK  5 active torsions:
REMARK  status: ('A' for Active; 'I' for Inactive)
REMARK    1  A    between atoms: C2_2  and  O1_3 
REMARK    2  A    between atoms: O1_3  and  C3_4 
REMARK    3  A    between atoms: C8_11  and  N2_12 
REMARK    4  A    between atoms: N2_12  and  C9_13 
REMARK    5  A    between atoms: C12_17  and  N3_18 
REMARK       I    between atoms: N3_18  and  C13_19 
ROOT
HETATM    1  N3  UNL     1      25.948   2.831  53.284  1.00  0.00    -0.312 N 
HETATM    2  C13 UNL     1      26.924   1.789  53.146  1.00  0.00     0.327 C 
HETATM    3  O3  UNL     1      26.603   0.890  52.312  1.00  0.00    -0.256 OA
HETATM    4  C14 UNL     1      28.170   1.765  53.892  1.00  0.00     0.162 C 
HETATM    5  N4  UNL     1      29.141   1.742  54.496  1.00  0.00    -0.186 NA
HETATM    6  H11 UNL     1      26.188   3.591  53.970  1.00  0.00     0.170 HD
ENDROOT
BRANCH   1   7
HETATM    7  C12 UNL     1      24.848   2.539  52.405  1.00  0.00     0.070 A 
HETATM    8  C3  UNL     1      24.753   2.937  51.070  1.00  0.00     0.097 A 
HETATM    9  C4  UNL     1      23.633   2.581  50.347  1.00  0.00     0.071 A 
HETATM   10  C5  UNL     1      22.636   1.845  50.955  1.00  0.00     0.071 A 
HETATM   11  N1  UNL     1      21.580   1.546  50.167  1.00  0.00    -0.258 NA
HETATM   12  C10 UNL     1      22.720   1.449  52.267  1.00  0.00     0.024 A 
HETATM   13  C6  UNL     1      20.530   0.829  50.628  1.00  0.00     0.143 A 
HETATM   14  C7  UNL     1      20.584   0.412  51.957  1.00  0.00     0.079 A 
HETATM   15 CL1  UNL     1      19.227  -0.520  52.578  1.00  0.00    -0.080 Cl
HETATM   16  C8  UNL     1      21.667   0.717  52.770  1.00  0.00     0.070 A 
HETATM   17  C11 UNL     1      23.832   1.796  53.000  1.00  0.00     0.048 A 
BRANCH   8  18
HETATM   18  O1  UNL     1      25.864   3.658  50.689  1.00  0.00    -0.349 OA
BRANCH  18  19
HETATM   19  C2  UNL     1      26.569   3.376  49.498  1.00  0.00     0.171 C 
HETATM   20  C1  UNL     1      27.239   4.599  48.906  1.00  0.00     0.034 C 
ENDBRANCH  18  19
ENDBRANCH   8  18
BRANCH  16  21
HETATM   21  N2  UNL     1      21.708   0.285  54.124  1.00  0.00    -0.332 N 
HETATM   22  H8  UNL     1      21.384   1.174  54.586  1.00  0.00     0.168 HD
BRANCH  21  23
HETATM   23  C9  UNL     1      22.032  -0.878  54.863  1.00  0.00     0.353 C 
HETATM   24  O2  UNL     1      21.319  -1.894  54.987  1.00  0.00    -0.283 OA
ENDBRANCH  21  23
ENDBRANCH  16  21
ENDBRANCH   1   7
TORSDOF 5
ENDMDL
MODEL 2
REMARK VINA RESULT:      -7.0      2.924      5.521
REMARK  5 active torsions:
REMARK  status: ('A' for Active; 'I' for Inactive)
REMARK    1  A    between atoms: C2_2  and  O1_3 
REMARK    2  A    between atoms: O1_3  and  C3_4 
REMARK    3  A    between atoms: C8_11  and  N2_12 
REMARK    4  A    between atoms: N2_12  and  C9_13 
REMARK    5  A    between atoms: C12_17  and  N3_18 
REMARK       I    between atoms: N3_18  and  C13_19 
ROOT
HETATM    1  N3  UNL     1      26.130   0.404  52.540  1.00  0.00    -0.312 N 
HETATM    2  C13 UNL     1      26.838   0.758  53.735  1.00  0.00     0.327 C 
HETATM    3  O3  UNL     1      26.349   1.753  54.348  1.00  0.00    -0.256 OA
HETATM    4  C14 UNL     1      28.011   0.041  54.203  1.00  0.00     0.162 C 
HETATM    5  N4  UNL     1      28.946  -0.516  54.557  1.00  0.00    -0.186 NA
HETATM    6  H11 UNL     1      26.514  -0.419  52.009  1.00  0.00     0.170 HD
ENDROOT
BRANCH   1   7
HETATM    7  C12 UNL     1      25.030   1.318  52.379  1.00  0.00     0.070 A 
HETATM    8  C3  UNL     1      23.733   1.111  52.851  1.00  0.00     0.097 A 
HETATM    9  C4  UNL     1      22.778   2.080  52.621  1.00  0.00     0.071 A 
HETATM   10  C5  UNL     1      23.124   3.226  51.933  1.00  0.00     0.071 A 
HETATM   11  N1  UNL     1      22.121   4.116  51.758  1.00  0.00    -0.258 NA
HETATM   12  C10 UNL     1      24.396   3.438  51.465  1.00  0.00     0.024 A 
HETATM   13  C6  UNL     1      22.314   5.283  51.103  1.00  0.00     0.143 A 
HETATM   14  C7  UNL     1      23.597   5.529  50.614  1.00  0.00     0.079 A 
HETATM   15 CL1  UNL     1      23.869   7.041  49.758  1.00  0.00    -0.080 Cl
HETATM   16  C8  UNL     1      24.629   4.618  50.792  1.00  0.00     0.070 A 
HETATM   17  C11 UNL     1      25.359   2.481  51.687  1.00  0.00     0.048 A 
BRANCH   8  18
HETATM   18  O1  UNL     1      23.631  -0.099  53.503  1.00  0.00    -0.349 OA
BRANCH  18  19
HETATM   19  C2  UNL     1      22.552  -0.983  53.280  1.00  0.00     0.171 C 
HETATM   20  C1  UNL     1      21.871  -1.418  54.561  1.00  0.00     0.034 C 
ENDBRANCH  18  19
ENDBRANCH   8  18
BRANCH  16  21
HETATM   21  N2  UNL     1      25.932   4.883  50.288  1.00  0.00    -0.332 N 
HETATM   22  H8  UNL     1      26.395   5.179  51.186  1.00  0.00     0.168 HD
BRANCH  21  23
HETATM   23  C9  UNL     1      26.626   4.842  49.055  1.00  0.00     0.353 C 
HETATM   24  O2  UNL     1      27.812   4.493  48.889  1.00  0.00    -0.283 OA
ENDBRANCH  21  23
ENDBRANCH  16  21
ENDBRANCH   1   7
TORSDOF 5
ENDMDL
MODEL 3
REMARK VINA RESULT:      -6.7      3.118      5.704
REMARK  5 active torsions:
REMARK  status: ('A' for Active; 'I' for Inactive)
REMARK    1  A    between atoms: C2_2  and  O1_3 
REMARK    2  A    between atoms: O1_3  and  C3_4 
REMARK    3  A    between atoms: C8_11  and  N2_12 
REMARK    4  A    between atoms: N2_12  and  C9_13 
REMARK    5  A    between atoms: C12_17  and  N3_18 
REMARK       I    between atoms: N3_18  and  C13_19 
ROOT
HETATM    1  N3  UNL     1      23.269   4.317  51.164  1.00  0.00    -0.312 N 
HETATM    2  C13 UNL     1      23.891   4.247  49.874  1.00  0.00     0.327 C 
HETATM    3  O3  UNL     1      24.411   3.121  49.614  1.00  0.00    -0.256 OA
HETATM    4  C14 UNL     1      23.923   5.365  48.948  1.00  0.00     0.162 C 
HETATM    5  N4  UNL     1      23.961   6.255  48.230  1.00  0.00    -0.186 NA
HETATM    6  H11 UNL     1      22.829   5.241  51.408  1.00  0.00     0.170 HD
ENDROOT
BRANCH   1   7
HETATM    7  C12 UNL     1      23.424   3.041  51.810  1.00  0.00     0.070 A 
HETATM    8  C3  UNL     1      22.468   2.024  51.831  1.00  0.00     0.097 A 
HETATM    9  C4  UNL     1      22.759   0.849  52.493  1.00  0.00     0.071 A 
HETATM   10  C5  UNL     1      23.982   0.706  53.118  1.00  0.00     0.071 A 
HETATM   11  N1  UNL     1      24.173  -0.479  53.740  1.00  0.00    -0.258 NA
HETATM   12  C10 UNL     1      24.928   1.699  53.104  1.00  0.00     0.024 A 
HETATM   13  C6  UNL     1      25.324  -0.760  54.393  1.00  0.00     0.143 A 
HETATM   14  C7  UNL     1      26.306   0.229  54.397  1.00  0.00     0.079 A 
HETATM   15 CL1  UNL     1      27.810  -0.115  55.242  1.00  0.00    -0.080 Cl
HETATM   16  C8  UNL     1      26.113   1.447  53.760  1.00  0.00     0.070 A 
HETATM   17  C11 UNL     1      24.652   2.876  52.447  1.00  0.00     0.048 A 
BRANCH   8  18
HETATM   18  O1  UNL     1      21.333   2.398  51.143  1.00  0.00    -0.349 OA
BRANCH  18  19
HETATM   19  C2  UNL     1      20.684   1.529  50.238  1.00  0.00     0.171 C 
HETATM   20  C1  UNL     1      21.533   1.194  49.030  1.00  0.00     0.034 C 
ENDBRANCH  18  19
ENDBRANCH   8  18
BRANCH  16  21
HETATM   21  N2  UNL     1      27.124   2.447  53.773  1.00  0.00    -0.332 N 
HETATM   22  H8  UNL     1      26.519   3.284  53.982  1.00  0.00     0.168 HD
BRANCH  21  23
HETATM   23  C9  UNL     1      28.525   2.549  53.599  1.00  0.00     0.353 C 
HETATM   24  O2  UNL     1      29.383   2.534  54.504  1.00  0.00    -0.283 OA
ENDBRANCH  21  23
ENDBRANCH  16  21
ENDBRANCH   1   7
TORSDOF 5
ENDMDL
MODEL 4
REMARK VINA RESULT:      -6.6      3.256      5.341
REMARK  5 active torsions:
REMARK  status: ('A' for Active; 'I' for Inactive)
REMARK    1  A    between atoms: C2_2  and  O1_3 
REMARK    2  A    between atoms: O1_3  and  C3_4 
REMARK    3  A    between atoms: C8_11  and  N2_12 
REMARK    4  A    between atoms: N2_12  and  C9_13 
REMARK    5  A    between atoms: C12_17  and  N3_18 
REMARK       I    between atoms: N3_18  and  C13_19 
ROOT
HETATM    1  N3  UNL     1      24.500   0.141  54.182  1.00  0.00    -0.312 N 
HETATM    2  C13 UNL     1      23.298  -0.453  53.672  1.00  0.00     0.327 C 
HETATM    3  O3  UNL     1      23.080  -0.204  52.448  1.00  0.00    -0.256 OA
HETATM    4  C14 UNL     1      22.410  -1.266  54.483  1.00  0.00     0.162 C 
HETATM    5  N4  UNL     1      21.705  -1.891  55.131  1.00  0.00    -0.186 NA
HETATM    6  H11 UNL     1      24.707  -0.048  55.195  1.00  0.00     0.170 HD
ENDROOT
BRANCH   1   7
HETATM    7  C12 UNL     1      25.129   0.874  53.115  1.00  0.00     0.070 A 
HETATM    8  C3  UNL     1      26.284   0.481  52.437  1.00  0.00     0.097 A 
HETATM    9  C4  UNL     1      26.774   1.290  51.432  1.00  0.00     0.071 A 
HETATM   10  C5  UNL     1      26.116   2.463  51.121  1.00  0.00     0.071 A 
HETATM   11  N1  UNL     1      26.671   3.186  50.124  1.00  0.00    -0.258 NA
HETATM   12  C10 UNL     1      24.980   2.857  51.782  1.00  0.00     0.024 A 
HETATM   13  C6  UNL     1      26.134   4.357  49.712  1.00  0.00     0.143 A 
HETATM   14  C7  UNL     1      24.979   4.787  50.363  1.00  0.00     0.079 A 
HETATM   15 CL1  UNL     1      24.265   6.308  49.844  1.00  0.00    -0.080 Cl
HETATM   16  C8  UNL     1      24.406   4.046  51.388  1.00  0.00     0.070 A 
HETATM   17  C11 UNL     1      24.480   2.061  52.786  1.00  0.00     0.048 A 
BRANCH   8  18
HETATM   18  O1  UNL     1      26.759  -0.719  52.922  1.00  0.00    -0.349 OA
BRANCH  18  19
HETATM   19  C2  UNL     1      28.120  -0.911  53.248  1.00  0.00     0.171 C 
HETATM   20  C1  UNL     1      28.550  -0.127  54.470  1.00  0.00     0.034 C 
ENDBRANCH  18  19
ENDBRANCH   8  18
BRANCH  16  21
HETATM   21  N2  UNL     1      23.228   4.498  52.045  1.00  0.00    -0.332 N 
HETATM   22  H8  UNL     1      23.677   5.007  52.849  1.00  0.00     0.168 HD
BRANCH  21  23
HETATM   23  C9  UNL     1      21.824   4.427  51.883  1.00  0.00     0.353 C 
HETATM   24  O2  UNL     1      21.078   3.519  52.303  1.00  0.00    -0.283 OA
ENDBRANCH  21  23
ENDBRANCH  16  21
ENDBRANCH   1   7
TORSDOF 5
ENDMDL
MODEL 5
REMARK VINA RESULT:      -6.6      2.536      3.488
REMARK  5 active torsions:
REMARK  status: ('A' for Active; 'I' for Inactive)
REMARK    1  A    between atoms: C2_2  and  O1_3 
REMARK    2  A    between atoms: O1_3  and  C3_4 
REMARK    3  A    between atoms: C8_11  and  N2_12 
REMARK    4  A    between atoms: N2_12  and  C9_13 
REMARK    5  A    between atoms: C12_17  and  N3_18 
REMARK       I    between atoms: N3_18  and  C13_19 
ROOT
HETATM    1  N3  UNL     1      25.283   4.316  51.234  1.00  0.00    -0.312 N 
HETATM    2  C13 UNL     1      25.608   3.875  49.909  1.00  0.00     0.327 C 
HETATM    3  O3  UNL     1      24.740   3.109  49.393  1.00  0.00    -0.256 OA
HETATM    4  C14 UNL     1      26.823   4.270  49.218  1.00  0.00     0.162 C 
HETATM    5  N4  UNL     1      27.790   4.570  48.686  1.00  0.00    -0.186 NA
HETATM    6  H11 UNL     1      25.986   4.953  51.688  1.00  0.00     0.170 HD
ENDROOT
BRANCH   1   7
HETATM    7  C12 UNL     1      24.019   3.736  51.606  1.00  0.00     0.070 A 
HETATM    8  C3  UNL     1      22.776   4.356  51.470  1.00  0.00     0.097 A 
HETATM    9  C4  UNL     1      21.645   3.675  51.871  1.00  0.00     0.071 A 
HETATM   10  C5  UNL     1      21.766   2.403  52.394  1.00  0.00     0.071 A 
HETATM   11  N1  UNL     1      20.604   1.818  52.758  1.00  0.00    -0.258 NA
HETATM   12  C10 UNL     1      22.984   1.786  52.531  1.00  0.00     0.024 A 
HETATM   13  C6  UNL     1      20.570   0.573  53.285  1.00  0.00     0.143 A 
HETATM   14  C7  UNL     1      21.791  -0.082  53.437  1.00  0.00     0.079 A 
HETATM   15 CL1  UNL     1      21.769  -1.703  54.122  1.00  0.00    -0.080 Cl
HETATM   16  C8  UNL     1      22.987   0.516  53.065  1.00  0.00     0.070 A 
HETATM   17  C11 UNL     1      24.120   2.453  52.135  1.00  0.00     0.048 A 
BRANCH   8  18
HETATM   18  O1  UNL     1      22.908   5.617  50.927  1.00  0.00    -0.349 OA
BRANCH  18  19
HETATM   19  C2  UNL     1      22.146   6.037  49.814  1.00  0.00     0.171 C 
HETATM   20  C1  UNL     1      22.927   6.003  48.518  1.00  0.00     0.034 C 
ENDBRANCH  18  19
ENDBRANCH   8  18
BRANCH  16  21
HETATM   21  N2  UNL     1      24.225  -0.165  53.228  1.00  0.00    -0.332 N 
HETATM   22  H8  UNL     1      24.346  -0.516  52.242  1.00  0.00     0.168 HD
BRANCH  21  23
HETATM   23  C9  UNL     1      25.171  -0.429  54.247  1.00  0.00     0.353 C 
HETATM   24  O2  UNL     1      26.120  -1.236  54.180  1.00  0.00    -0.283 OA
ENDBRANCH  21  23
ENDBRANCH  16  21
ENDBRANCH   1   7
TORSDOF 5
ENDMDL
MODEL 6
REMARK VINA RESULT:      -6.5      2.451      5.251
REMARK  5 active torsions:
REMARK  status: ('A' for Active; 'I' for Inactive)
REMARK    1  A    between atoms: C2_2  and  O1_3 
REMARK    2  A    between atoms: O1_3  and  C3_4 
REMARK    3  A    between atoms: C8_11  and  N2_12 
REMARK    4  A    between atoms: N2_12  and  C9_13 
REMARK    5  A    between atoms: C12_17  and  N3_18 
REMARK       I    between atoms: N3_18  and  C13_19 
ROOT
HETATM    1  N3  UNL     1      25.634   0.865  53.846  1.00  0.00    -0.312 N 
HETATM    2  C13 UNL     1      26.642   0.071  53.207  1.00  0.00     0.327 C 
HETATM    3  O3  UNL     1      26.370  -0.240  52.008  1.00  0.00    -0.256 OA
HETATM    4  C14 UNL     1      27.866  -0.341  53.871  1.00  0.00     0.162 C 
HETATM    5  N4  UNL     1      28.819  -0.679  54.405  1.00  0.00    -0.186 NA
HETATM    6  H11 UNL     1      25.833   1.138  54.842  1.00  0.00     0.170 HD
ENDROOT
BRANCH   1   7
HETATM    7  C12 UNL     1      24.567   1.085  52.905  1.00  0.00     0.070 A 
HETATM    8  C3  UNL     1      23.378   0.357  52.849  1.00  0.00     0.097 A 
HETATM    9  C4  UNL     1      22.442   0.682  51.888  1.00  0.00     0.071 A 
HETATM   10  C5  UNL     1      22.702   1.714  51.008  1.00  0.00     0.071 A 
HETATM   11  N1  UNL     1      21.727   1.957  50.105  1.00  0.00    -0.258 NA
HETATM   12  C10 UNL     1      23.868   2.435  51.056  1.00  0.00     0.024 A 
HETATM   13  C6  UNL     1      21.843   2.939  49.181  1.00  0.00     0.143 A 
HETATM   14  C7  UNL     1      23.017   3.690  49.202  1.00  0.00     0.079 A 
HETATM   15 CL1  UNL     1      23.189   4.971  48.009  1.00  0.00    -0.080 Cl
HETATM   16  C8  UNL     1      24.021   3.443  50.129  1.00  0.00     0.070 A 
HETATM   17  C11 UNL     1      24.810   2.122  52.009  1.00  0.00     0.048 A 
BRANCH   8  18
HETATM   18  O1  UNL     1      23.347  -0.618  53.824  1.00  0.00    -0.349 OA
BRANCH  18  19
HETATM   19  C2  UNL     1      22.296  -0.707  54.763  1.00  0.00     0.171 C 
HETATM   20  C1  UNL     1      21.222  -1.693  54.353  1.00  0.00     0.034 C 
ENDBRANCH  18  19
ENDBRANCH   8  18
BRANCH  16  21
HETATM   21  N2  UNL     1      25.213   4.218  50.138  1.00  0.00    -0.332 N 
HETATM   22  H8  UNL     1      24.942   4.921  50.873  1.00  0.00     0.168 HD
BRANCH  21  23
HETATM   23  C9  UNL     1      26.470   4.248  49.488  1.00  0.00     0.353 C 
HETATM   24  O2  UNL     1      26.861   5.114  48.680  1.00  0.00    -0.283 OA
ENDBRANCH  21  23
ENDBRANCH  16  21
ENDBRANCH   1   7
TORSDOF 5
ENDMDL
MODEL 7
REMARK VINA RESULT:      -6.4      2.240      4.133
REMARK  5 active torsions:
REMARK  status: ('A' for Active; 'I' for Inactive)
REMARK    1  A    between atoms: C2_2  and  O1_3 
REMARK    2  A    between atoms: O1_3  and  C3_4 
REMARK    3  A    between atoms: C8_11  and  N2_12 
REMARK    4  A    between atoms: N2_12  and  C9_13 
REMARK    5  A    between atoms: C12_17  and  N3_18 
REMARK       I    between atoms: N3_18  and  C13_19 
ROOT
HETATM    1  N3  UNL     1      26.732   3.307  51.439  1.00  0.00    -0.312 N 
HETATM    2  C13 UNL     1      26.499   3.365  50.026  1.00  0.00     0.327 C 
HETATM    3  O3  UNL     1      25.708   2.473  49.597  1.00  0.00    -0.256 OA
HETATM    4  C14 UNL     1      27.113   4.358  49.161  1.00  0.00     0.162 C 
HETATM    5  N4  UNL     1      27.614   5.130  48.482  1.00  0.00    -0.186 NA
HETATM    6  H11 UNL     1      27.386   4.036  51.823  1.00  0.00     0.170 HD
ENDROOT
BRANCH   1   7
HETATM    7  C12 UNL     1      25.973   2.210  51.978  1.00  0.00     0.070 A 
HETATM    8  C3  UNL     1      26.513   1.063  52.562  1.00  0.00     0.097 A 
HETATM    9  C4  UNL     1      25.656   0.091  53.037  1.00  0.00     0.071 A 
HETATM   10  C5  UNL     1      24.292   0.272  52.924  1.00  0.00     0.071 A 
HETATM   11  N1  UNL     1      23.537  -0.734  53.417  1.00  0.00    -0.258 NA
HETATM   12  C10 UNL     1      23.752   1.395  52.351  1.00  0.00     0.024 A 
HETATM   13  C6  UNL     1      22.186  -0.694  53.375  1.00  0.00     0.143 A 
HETATM   14  C7  UNL     1      21.605   0.435  52.799  1.00  0.00     0.079 A 
HETATM   15 CL1  UNL     1      19.848   0.507  52.733  1.00  0.00    -0.080 Cl
HETATM   16  C8  UNL     1      22.378   1.470  52.291  1.00  0.00     0.070 A 
HETATM   17  C11 UNL     1      24.594   2.373  51.873  1.00  0.00     0.048 A 
BRANCH   8  18
HETATM   18  O1  UNL     1      27.891   1.109  52.561  1.00  0.00    -0.349 OA
BRANCH  18  19
HETATM   19  C2  UNL     1      28.656   0.714  53.681  1.00  0.00     0.171 C 
HETATM   20  C1  UNL     1      29.404  -0.583  53.456  1.00  0.00     0.034 C 
ENDBRANCH  18  19
ENDBRANCH   8  18
BRANCH  16  21
HETATM   21  N2  UNL     1      21.771   2.615  51.705  1.00  0.00    -0.332 N 
HETATM   22  H8  UNL     1      21.736   2.284  50.706  1.00  0.00     0.168 HD
BRANCH  21  23
HETATM   23  C9  UNL     1      21.285   3.884  52.100  1.00  0.00     0.353 C 
HETATM   24  O2  UNL     1      21.973   4.906  52.300  1.00  0.00    -0.283 OA
ENDBRANCH  21  23
ENDBRANCH  16  21
ENDBRANCH   1   7
TORSDOF 5
ENDMDL
MODEL 8
REMARK VINA RESULT:      -6.4      3.269      5.450
REMARK  5 active torsions:
REMARK  status: ('A' for Active; 'I' for Inactive)
REMARK    1  A    between atoms: C2_2  and  O1_3 
REMARK    2  A    between atoms: O1_3  and  C3_4 
REMARK    3  A    between atoms: C8_11  and  N2_12 
REMARK    4  A    between atoms: N2_12  and  C9_13 
REMARK    5  A    between atoms: C12_17  and  N3_18 
REMARK       I    between atoms: N3_18  and  C13_19 
ROOT
HETATM    1  N3  UNL     1      24.530   4.819  50.105  1.00  0.00    -0.312 N 
HETATM    2  C13 UNL     1      24.040   5.881  50.934  1.00  0.00     0.327 C 
HETATM    3  O3  UNL     1      23.492   5.486  52.007  1.00  0.00    -0.256 OA
HETATM    4  C14 UNL     1      24.159   7.284  50.580  1.00  0.00     0.162 C 
HETATM    5  N4  UNL     1      24.239   8.387  50.286  1.00  0.00    -0.186 NA
HETATM    6  H11 UNL     1      24.989   5.118  49.207  1.00  0.00     0.170 HD
ENDROOT
BRANCH   1   7
HETATM    7  C12 UNL     1      24.245   3.568  50.756  1.00  0.00     0.070 A 
HETATM    8  C3  UNL     1      23.162   2.736  50.469  1.00  0.00     0.097 A 
HETATM    9  C4  UNL     1      23.017   1.562  51.179  1.00  0.00     0.071 A 
HETATM   10  C5  UNL     1      23.941   1.237  52.152  1.00  0.00     0.071 A 
HETATM   11  N1  UNL     1      23.714   0.069  52.792  1.00  0.00    -0.258 NA
HETATM   12  C10 UNL     1      25.008   2.049  52.442  1.00  0.00     0.024 A 
HETATM   13  C6  UNL     1      24.536  -0.377  53.769  1.00  0.00     0.143 A 
HETATM   14  C7  UNL     1      25.632   0.425  54.088  1.00  0.00     0.079 A 
HETATM   15 CL1  UNL     1      26.714  -0.136  55.356  1.00  0.00    -0.080 Cl
HETATM   16  C8  UNL     1      25.867   1.626  53.432  1.00  0.00     0.070 A 
HETATM   17  C11 UNL     1      25.166   3.223  51.742  1.00  0.00     0.048 A 
BRANCH   8  18
HETATM   18  O1  UNL     1      22.382   3.269  49.465  1.00  0.00    -0.349 OA
BRANCH  18  19
HETATM   19  C2  UNL     1      21.012   3.561  49.653  1.00  0.00     0.171 C 
HETATM   20  C1  UNL     1      20.721   5.047  49.655  1.00  0.00     0.034 C 
ENDBRANCH  18  19
ENDBRANCH   8  18
BRANCH  16  21
HETATM   21  N2  UNL     1      26.989   2.433  53.769  1.00  0.00    -0.332 N 
HETATM   22  H8  UNL     1      26.485   3.198  54.289  1.00  0.00     0.168 HD
BRANCH  21  23
HETATM   23  C9  UNL     1      28.393   2.435  53.592  1.00  0.00     0.353 C 
HETATM   24  O2  UNL     1      29.250   2.446  54.499  1.00  0.00    -0.283 OA
ENDBRANCH  21  23
ENDBRANCH  16  21
ENDBRANCH   1   7
TORSDOF 5
ENDMDL
MODEL 9
REMARK VINA RESULT:      -6.4      2.493      4.007
REMARK  5 active torsions:
REMARK  status: ('A' for Active; 'I' for Inactive)
REMARK    1  A    between atoms: C2_2  and  O1_3 
REMARK    2  A    between atoms: O1_3  and  C3_4 
REMARK    3  A    between atoms: C8_11  and  N2_12 
REMARK    4  A    between atoms: N2_12  and  C9_13 
REMARK    5  A    between atoms: C12_17  and  N3_18 
REMARK       I    between atoms: N3_18  and  C13_19 
ROOT
HETATM    1  N3  UNL     1      24.498   3.282  50.764  1.00  0.00    -0.312 N 
HETATM    2  C13 UNL     1      24.161   4.526  51.393  1.00  0.00     0.327 C 
HETATM    3  O3  UNL     1      23.673   4.399  52.556  1.00  0.00    -0.256 OA
HETATM    4  C14 UNL     1      24.361   5.816  50.757  1.00  0.00     0.162 C 
HETATM    5  N4  UNL     1      24.502   6.828  50.244  1.00  0.00    -0.186 NA
HETATM    6  H11 UNL     1      24.905   3.357  49.797  1.00  0.00     0.170 HD
ENDROOT
BRANCH   1   7
HETATM    7  C12 UNL     1      24.170   2.214  51.670  1.00  0.00     0.070 A 
HETATM    8  C3  UNL     1      25.075   1.558  52.507  1.00  0.00     0.097 A 
HETATM    9  C4  UNL     1      24.613   0.548  53.325  1.00  0.00     0.071 A 
HETATM   10  C5  UNL     1      23.275   0.209  53.300  1.00  0.00     0.071 A 
HETATM   11  N1  UNL     1      22.919  -0.791  54.136  1.00  0.00    -0.258 NA
HETATM   12  C10 UNL     1      22.379   0.849  52.482  1.00  0.00     0.024 A 
HETATM   13  C6  UNL     1      21.642  -1.227  54.218  1.00  0.00     0.143 A 
HETATM   14  C7  UNL     1      20.706  -0.598  53.399  1.00  0.00     0.079 A 
HETATM   15 CL1  UNL     1      19.038  -1.152  53.489  1.00  0.00    -0.080 Cl
HETATM   16  C8  UNL     1      21.067   0.429  52.539  1.00  0.00     0.070 A 
HETATM   17  C11 UNL     1      22.824   1.858  51.660  1.00  0.00     0.048 A 
BRANCH   8  18
HETATM   18  O1  UNL     1      26.347   2.067  52.356  1.00  0.00    -0.349 OA
BRANCH  18  19
HETATM   19  C2  UNL     1      27.485   1.410  52.875  1.00  0.00     0.171 C 
HETATM   20  C1  UNL     1      28.470   2.360  53.523  1.00  0.00     0.034 C 
ENDBRANCH  18  19
ENDBRANCH   8  18
BRANCH  16  21
HETATM   21  N2  UNL     1      20.101   1.061  51.709  1.00  0.00    -0.332 N 
HETATM   22  H8  UNL     1      20.078   0.357  50.925  1.00  0.00     0.168 HD
BRANCH  21  23
HETATM   23  C9  UNL     1      19.298   2.226  51.703  1.00  0.00     0.353 C 
HETATM   24  O2  UNL     1      19.455   3.232  52.426  1.00  0.00    -0.283 OA
ENDBRANCH  21  23
ENDBRANCH  16  21
ENDBRANCH   1   7
TORSDOF 5
ENDMDL
