MODEL 1
REMARK VINA RESULT:      -7.6      0.000      0.000
REMARK  9 active torsions:
REMARK  status: ('A' for Active; 'I' for Inactive)
REMARK    1  A    between atoms: C3_3  and  C4_4 
REMARK    2  A    between atoms: C5_6  and  C6_7 
REMARK    3  A    between atoms: C7_8  and  C8_9 
REMARK    4  A    between atoms: C8_9  and  N1_10 
REMARK    5  A    between atoms: C11_13  and  N2_14 
REMARK       I    between atoms: N2_14  and  C12_15 
REMARK    6  A    between atoms: C12_15  and  C13_17 
REMARK    7  A    between atoms: C14_18  and  C15_19 
REMARK    8  A    between atoms: C15_19  and  C16_20 
REMARK    9  A    between atoms: C16_20  and  N3_21 
ROOT
HETATM    1  N1  UNL     1      25.285  -0.607  53.142  1.00  0.00    -0.269 NA
HETATM    2  C9  UNL     1      25.711   0.439  52.562  1.00  0.00     0.127 A 
HETATM    3  C10 UNL     1      26.620   1.032  51.615  1.00  0.00     0.098 A 
HETATM    4  C11 UNL     1      26.219   2.286  51.761  1.00  0.00     0.113 A 
HETATM    5  N4  UNL     1      25.272   1.797  52.724  1.00  0.00    -0.327 N 
HETATM    6  H25 UNL     1      24.596   2.434  53.234  1.00  0.00     0.169 HD
ENDROOT
BRANCH   4   7
HETATM    7  N2  UNL     1      26.739   3.420  51.078  1.00  0.00    -0.302 N 
HETATM    8  C12 UNL     1      26.069   3.901  49.926  1.00  0.00     0.302 C 
HETATM    9  O1  UNL     1      25.023   3.387  49.448  1.00  0.00    -0.258 OA
HETATM   10  H12 UNL     1      27.615   3.888  51.439  1.00  0.00     0.171 HD
BRANCH   8  11
HETATM   11  C13 UNL     1      26.583   5.050  49.222  1.00  0.00    -0.005 C 
HETATM   12  C14 UNL     1      27.004   6.020  48.622  1.00  0.00    -0.095 C 
BRANCH  12  13
HETATM   13  C15 UNL     1      27.498   7.202  47.914  1.00  0.00     0.124 C 
BRANCH  13  14
HETATM   14  C16 UNL     1      28.833   6.872  47.317  1.00  0.00     0.284 C 
BRANCH  14  15
HETATM   15  N3  UNL     1      29.852   6.646  48.322  1.00  0.00     0.093 N 
HETATM   16  C17 UNL     1      30.690   7.819  48.475  1.00  0.00     0.298 C 
HETATM   17  C18 UNL     1      31.629   7.627  49.620  1.00  0.00     0.198 C 
HETATM   18  O2  UNL     1      31.915   6.316  49.898  1.00  0.00    -0.388 OA
HETATM   19  C19 UNL     1      31.953   5.476  48.790  1.00  0.00     0.198 C 
HETATM   20  C20 UNL     1      30.637   5.465  48.044  1.00  0.00     0.298 C 
ENDBRANCH  14  15
ENDBRANCH  13  14
ENDBRANCH  12  13
ENDBRANCH   8  11
ENDBRANCH   4   7
BRANCH   1  21
HETATM   21  C8  UNL     1      24.242  -0.694  54.122  1.00  0.00     0.178 C 
BRANCH  21  22
HETATM   22  C7  UNL     1      22.900  -0.439  53.558  1.00  0.00    -0.005 C 
HETATM   23  C6  UNL     1      21.847   0.101  54.149  1.00  0.00     0.001 C 
BRANCH  23  24
HETATM   24  C5  UNL     1      20.606   0.259  53.390  1.00  0.00     0.042 C 
HETATM   25  C4  UNL     1      19.723  -0.730  53.396  1.00  0.00     0.116 C 
HETATM   26  F1  UNL     1      19.952  -1.861  54.080  1.00  0.00    -0.206 F 
BRANCH  25  27
HETATM   27  C3  UNL     1      18.474  -0.619  52.655  1.00  0.00     0.038 C 
HETATM   28  C2  UNL     1      18.426  -0.218  51.402  1.00  0.00    -0.028 C 
HETATM   29  C1  UNL     1      17.219  -0.078  50.579  1.00  0.00     0.036 C 
ENDBRANCH  25  27
ENDBRANCH  23  24
ENDBRANCH  21  22
ENDBRANCH   1  21
TORSDOF 9
ENDMDL
MODEL 2
REMARK VINA RESULT:      -7.4      2.792      4.811
REMARK  9 active torsions:
REMARK  status: ('A' for Active; 'I' for Inactive)
REMARK    1  A    between atoms: C3_3  and  C4_4 
REMARK    2  A    between atoms: C5_6  and  C6_7 
REMARK    3  A    between atoms: C7_8  and  C8_9 
REMARK    4  A    between atoms: C8_9  and  N1_10 
REMARK    5  A    between atoms: C11_13  and  N2_14 
REMARK       I    between atoms: N2_14  and  C12_15 
REMARK    6  A    between atoms: C12_15  and  C13_17 
REMARK    7  A    between atoms: C14_18  and  C15_19 
REMARK    8  A    between atoms: C15_19  and  C16_20 
REMARK    9  A    between atoms: C16_20  and  N3_21 
ROOT
HETATM    1  N1  UNL     1      22.326   1.261  50.936  1.00  0.00    -0.269 NA
HETATM    2  C9  UNL     1      23.079   2.137  50.405  1.00  0.00     0.127 A 
HETATM    3  C10 UNL     1      23.423   2.918  49.246  1.00  0.00     0.098 A 
HETATM    4  C11 UNL     1      24.436   3.579  49.784  1.00  0.00     0.113 A 
HETATM    5  N4  UNL     1      24.177   2.851  50.995  1.00  0.00    -0.327 N 
HETATM    6  H25 UNL     1      24.749   2.986  51.876  1.00  0.00     0.169 HD
ENDROOT
BRANCH   4   7
HETATM    7  N2  UNL     1      25.245   4.553  49.135  1.00  0.00    -0.302 N 
HETATM    8  C12 UNL     1      26.654   4.481  49.267  1.00  0.00     0.302 C 
HETATM    9  O1  UNL     1      27.260   3.599  49.932  1.00  0.00    -0.258 OA
HETATM   10  H12 UNL     1      24.786   5.313  48.564  1.00  0.00     0.171 HD
BRANCH   8  11
HETATM   11  C13 UNL     1      27.488   5.460  48.616  1.00  0.00    -0.005 C 
HETATM   12  C14 UNL     1      28.190   6.279  48.053  1.00  0.00    -0.095 C 
BRANCH  12  13
HETATM   13  C15 UNL     1      29.015   7.275  47.368  1.00  0.00     0.124 C 
BRANCH  13  14
HETATM   14  C16 UNL     1      29.806   8.024  48.399  1.00  0.00     0.284 C 
BRANCH  14  15
HETATM   15  N3  UNL     1      31.219   7.709  48.354  1.00  0.00     0.093 N 
HETATM   16  C17 UNL     1      31.620   7.340  47.010  1.00  0.00     0.298 C 
HETATM   17  C18 UNL     1      33.101   7.172  46.948  1.00  0.00     0.198 C 
HETATM   18  O2  UNL     1      33.679   6.840  48.146  1.00  0.00    -0.388 OA
HETATM   19  C19 UNL     1      32.900   6.036  48.970  1.00  0.00     0.198 C 
HETATM   20  C20 UNL     1      31.579   6.690  49.313  1.00  0.00     0.298 C 
ENDBRANCH  14  15
ENDBRANCH  13  14
ENDBRANCH  12  13
ENDBRANCH   8  11
ENDBRANCH   4   7
BRANCH   1  21
HETATM   21  C8  UNL     1      22.388   0.759  52.277  1.00  0.00     0.178 C 
BRANCH  21  22
HETATM   22  C7  UNL     1      23.744   0.316  52.663  1.00  0.00    -0.005 C 
HETATM   23  C6  UNL     1      24.148  -0.190  53.817  1.00  0.00     0.001 C 
BRANCH  23  24
HETATM   24  C5  UNL     1      25.554  -0.563  53.979  1.00  0.00     0.042 C 
HETATM   25  C4  UNL     1      26.428   0.372  54.322  1.00  0.00     0.116 C 
HETATM   26  F1  UNL     1      26.044   1.642  54.519  1.00  0.00    -0.206 F 
BRANCH  25  27
HETATM   27  C3  UNL     1      27.837   0.049  54.495  1.00  0.00     0.038 C 
HETATM   28  C2  UNL     1      28.532  -0.602  53.586  1.00  0.00    -0.028 C 
HETATM   29  C1  UNL     1      29.950  -0.969  53.673  1.00  0.00     0.036 C 
ENDBRANCH  25  27
ENDBRANCH  23  24
ENDBRANCH  21  22
ENDBRANCH   1  21
TORSDOF 9
ENDMDL
MODEL 3
REMARK VINA RESULT:      -7.4      3.600      5.369
REMARK  9 active torsions:
REMARK  status: ('A' for Active; 'I' for Inactive)
REMARK    1  A    between atoms: C3_3  and  C4_4 
REMARK    2  A    between atoms: C5_6  and  C6_7 
REMARK    3  A    between atoms: C7_8  and  C8_9 
REMARK    4  A    between atoms: C8_9  and  N1_10 
REMARK    5  A    between atoms: C11_13  and  N2_14 
REMARK       I    between atoms: N2_14  and  C12_15 
REMARK    6  A    between atoms: C12_15  and  C13_17 
REMARK    7  A    between atoms: C14_18  and  C15_19 
REMARK    8  A    between atoms: C15_19  and  C16_20 
REMARK    9  A    between atoms: C16_20  and  N3_21 
ROOT
HETATM    1  N1  UNL     1      23.503   3.388  51.119  1.00  0.00    -0.269 NA
HETATM    2  C9  UNL     1      24.487   3.814  50.436  1.00  0.00     0.127 A 
HETATM    3  C10 UNL     1      25.012   4.205  49.154  1.00  0.00     0.098 A 
HETATM    4  C11 UNL     1      26.234   4.513  49.560  1.00  0.00     0.113 A 
HETATM    5  N4  UNL     1      25.811   4.147  50.883  1.00  0.00    -0.327 N 
HETATM    6  H25 UNL     1      26.454   4.199  51.723  1.00  0.00     0.169 HD
ENDROOT
BRANCH   4   7
HETATM    7  N2  UNL     1      27.297   4.988  48.743  1.00  0.00    -0.302 N 
HETATM    8  C12 UNL     1      27.494   6.385  48.608  1.00  0.00     0.302 C 
HETATM    9  O1  UNL     1      26.782   7.259  49.169  1.00  0.00    -0.258 OA
HETATM   10  H12 UNL     1      27.924   4.295  48.251  1.00  0.00     0.171 HD
BRANCH   8  11
HETATM   11  C13 UNL     1      28.567   6.883  47.783  1.00  0.00    -0.005 C 
HETATM   12  C14 UNL     1      29.468   7.296  47.077  1.00  0.00    -0.095 C 
BRANCH  12  13
HETATM   13  C15 UNL     1      30.536   7.809  46.218  1.00  0.00     0.124 C 
BRANCH  13  14
HETATM   14  C16 UNL     1      31.848   7.312  46.747  1.00  0.00     0.284 C 
BRANCH  14  15
HETATM   15  N3  UNL     1      32.020   5.886  46.559  1.00  0.00     0.093 N 
HETATM   16  C17 UNL     1      32.510   5.264  47.774  1.00  0.00     0.298 C 
HETATM   17  C18 UNL     1      32.531   3.780  47.614  1.00  0.00     0.198 C 
HETATM   18  O2  UNL     1      32.650   3.358  46.315  1.00  0.00    -0.388 OA
HETATM   19  C19 UNL     1      33.422   4.178  45.500  1.00  0.00     0.198 C 
HETATM   20  C20 UNL     1      32.870   5.585  45.430  1.00  0.00     0.298 C 
ENDBRANCH  14  15
ENDBRANCH  13  14
ENDBRANCH  12  13
ENDBRANCH   8  11
ENDBRANCH   4   7
BRANCH   1  21
HETATM   21  C8  UNL     1      23.471   3.128  52.528  1.00  0.00     0.178 C 
BRANCH  21  22
HETATM   22  C7  UNL     1      24.423   2.077  52.941  1.00  0.00    -0.005 C 
HETATM   23  C6  UNL     1      24.355   0.773  52.726  1.00  0.00     0.001 C 
BRANCH  23  24
HETATM   24  C5  UNL     1      25.423  -0.090  53.232  1.00  0.00     0.042 C 
HETATM   25  C4  UNL     1      26.543  -0.199  52.532  1.00  0.00     0.116 C 
HETATM   26  F1  UNL     1      26.707   0.463  51.377  1.00  0.00    -0.206 F 
BRANCH  25  27
HETATM   27  C3  UNL     1      27.633  -1.046  52.994  1.00  0.00     0.038 C 
HETATM   28  C2  UNL     1      28.807  -0.564  53.342  1.00  0.00    -0.028 C 
HETATM   29  C1  UNL     1      29.960  -1.337  53.819  1.00  0.00     0.036 C 
ENDBRANCH  25  27
ENDBRANCH  23  24
ENDBRANCH  21  22
ENDBRANCH   1  21
TORSDOF 9
ENDMDL
MODEL 4
REMARK VINA RESULT:      -7.4      3.604      5.401
REMARK  9 active torsions:
REMARK  status: ('A' for Active; 'I' for Inactive)
REMARK    1  A    between atoms: C3_3  and  C4_4 
REMARK    2  A    between atoms: C5_6  and  C6_7 
REMARK    3  A    between atoms: C7_8  and  C8_9 
REMARK    4  A    between atoms: C8_9  and  N1_10 
REMARK    5  A    between atoms: C11_13  and  N2_14 
REMARK       I    between atoms: N2_14  and  C12_15 
REMARK    6  A    between atoms: C12_15  and  C13_17 
REMARK    7  A    between atoms: C14_18  and  C15_19 
REMARK    8  A    between atoms: C15_19  and  C16_20 
REMARK    9  A    between atoms: C16_20  and  N3_21 
ROOT
HETATM    1  N1  UNL     1      23.105   4.030  50.731  1.00  0.00    -0.269 NA
HETATM    2  C9  UNL     1      24.123   4.619  50.251  1.00  0.00     0.127 A 
HETATM    3  C10 UNL     1      24.796   5.162  49.100  1.00  0.00     0.098 A 
HETATM    4  C11 UNL     1      25.885   5.582  49.726  1.00  0.00     0.113 A 
HETATM    5  N4  UNL     1      25.302   5.073  50.936  1.00  0.00    -0.327 N 
HETATM    6  H25 UNL     1      25.787   5.138  51.875  1.00  0.00     0.169 HD
ENDROOT
BRANCH   4   7
HETATM    7  N2  UNL     1      26.997   6.239  49.130  1.00  0.00    -0.302 N 
HETATM    8  C12 UNL     1      28.051   5.461  48.589  1.00  0.00     0.302 C 
HETATM    9  O1  UNL     1      28.079   4.201  48.597  1.00  0.00    -0.258 OA
HETATM   10  H12 UNL     1      27.022   7.294  49.097  1.00  0.00     0.171 HD
BRANCH   8  11
HETATM   11  C13 UNL     1      29.186   6.111  47.981  1.00  0.00    -0.005 C 
HETATM   12  C14 UNL     1      30.135   6.662  47.457  1.00  0.00    -0.095 C 
BRANCH  12  13
HETATM   13  C15 UNL     1      31.268   7.347  46.833  1.00  0.00     0.124 C 
BRANCH  13  14
HETATM   14  C16 UNL     1      32.243   6.312  46.359  1.00  0.00     0.284 C 
BRANCH  14  15
HETATM   15  N3  UNL     1      33.528   6.413  47.020  1.00  0.00     0.093 N 
HETATM   16  C17 UNL     1      33.507   5.713  48.290  1.00  0.00     0.298 C 
HETATM   17  C18 UNL     1      34.876   5.691  48.882  1.00  0.00     0.198 C 
HETATM   18  O2  UNL     1      35.680   6.725  48.476  1.00  0.00    -0.388 OA
HETATM   19  C19 UNL     1      35.018   7.926  48.243  1.00  0.00     0.198 C 
HETATM   20  C20 UNL     1      33.952   7.785  47.179  1.00  0.00     0.298 C 
ENDBRANCH  14  15
ENDBRANCH  13  14
ENDBRANCH  12  13
ENDBRANCH   8  11
ENDBRANCH   4   7
BRANCH   1  21
HETATM   21  C8  UNL     1      22.876   3.665  52.099  1.00  0.00     0.178 C 
BRANCH  21  22
HETATM   22  C7  UNL     1      23.761   2.575  52.559  1.00  0.00    -0.005 C 
HETATM   23  C6  UNL     1      23.917   1.367  52.043  1.00  0.00     0.001 C 
BRANCH  23  24
HETATM   24  C5  UNL     1      24.859   0.440  52.670  1.00  0.00     0.042 C 
HETATM   25  C4  UNL     1      26.120   0.435  52.261  1.00  0.00     0.116 C 
HETATM   26  F1  UNL     1      26.537   1.261  51.289  1.00  0.00    -0.206 F 
BRANCH  25  27
HETATM   27  C3  UNL     1      27.094  -0.470  52.854  1.00  0.00     0.038 C 
HETATM   28  C2  UNL     1      28.323  -0.098  53.143  1.00  0.00    -0.028 C 
HETATM   29  C1  UNL     1      29.369  -0.936  53.741  1.00  0.00     0.036 C 
ENDBRANCH  25  27
ENDBRANCH  23  24
ENDBRANCH  21  22
ENDBRANCH   1  21
TORSDOF 9
ENDMDL
MODEL 5
REMARK VINA RESULT:      -7.4      2.949      5.094
REMARK  9 active torsions:
REMARK  status: ('A' for Active; 'I' for Inactive)
REMARK    1  A    between atoms: C3_3  and  C4_4 
REMARK    2  A    between atoms: C5_6  and  C6_7 
REMARK    3  A    between atoms: C7_8  and  C8_9 
REMARK    4  A    between atoms: C8_9  and  N1_10 
REMARK    5  A    between atoms: C11_13  and  N2_14 
REMARK       I    between atoms: N2_14  and  C12_15 
REMARK    6  A    between atoms: C12_15  and  C13_17 
REMARK    7  A    between atoms: C14_18  and  C15_19 
REMARK    8  A    between atoms: C15_19  and  C16_20 
REMARK    9  A    between atoms: C16_20  and  N3_21 
ROOT
HETATM    1  N1  UNL     1      21.855   1.119  50.880  1.00  0.00    -0.269 NA
HETATM    2  C9  UNL     1      22.668   1.953  50.371  1.00  0.00     0.127 A 
HETATM    3  C10 UNL     1      23.086   2.713  49.222  1.00  0.00     0.098 A 
HETATM    4  C11 UNL     1      24.117   3.320  49.790  1.00  0.00     0.113 A 
HETATM    5  N4  UNL     1      23.785   2.609  50.993  1.00  0.00    -0.327 N 
HETATM    6  H25 UNL     1      24.337   2.715  51.890  1.00  0.00     0.169 HD
ENDROOT
BRANCH   4   7
HETATM    7  N2  UNL     1      24.995   4.249  49.164  1.00  0.00    -0.302 N 
HETATM    8  C12 UNL     1      26.387   4.155  49.406  1.00  0.00     0.302 C 
HETATM    9  O1  UNL     1      26.921   3.290  50.152  1.00  0.00    -0.258 OA
HETATM   10  H12 UNL     1      24.597   4.994  48.529  1.00  0.00     0.171 HD
BRANCH   8  11
HETATM   11  C13 UNL     1      27.291   5.088  48.780  1.00  0.00    -0.005 C 
HETATM   12  C14 UNL     1      28.059   5.865  48.245  1.00  0.00    -0.095 C 
BRANCH  12  13
HETATM   13  C15 UNL     1      28.972   6.797  47.582  1.00  0.00     0.124 C 
BRANCH  13  14
HETATM   14  C16 UNL     1      29.708   7.570  48.635  1.00  0.00     0.284 C 
BRANCH  14  15
HETATM   15  N3  UNL     1      29.601   9.002  48.452  1.00  0.00     0.093 N 
HETATM   16  C17 UNL     1      29.914   9.370  47.086  1.00  0.00     0.298 C 
HETATM   17  C18 UNL     1      29.647  10.823  46.874  1.00  0.00     0.198 C 
HETATM   18  O2  UNL     1      29.728  11.579  48.015  1.00  0.00    -0.388 OA
HETATM   19  C19 UNL     1      30.676  11.151  48.937  1.00  0.00     0.198 C 
HETATM   20  C20 UNL     1      30.415   9.733  49.397  1.00  0.00     0.298 C 
ENDBRANCH  14  15
ENDBRANCH  13  14
ENDBRANCH  12  13
ENDBRANCH   8  11
ENDBRANCH   4   7
BRANCH   1  21
HETATM   21  C8  UNL     1      21.851   0.617  52.222  1.00  0.00     0.178 C 
BRANCH  21  22
HETATM   22  C7  UNL     1      23.099  -0.093  52.574  1.00  0.00    -0.005 C 
HETATM   23  C6  UNL     1      23.999   0.227  53.489  1.00  0.00     0.001 C 
BRANCH  23  24
HETATM   24  C5  UNL     1      25.171  -0.630  53.668  1.00  0.00     0.042 C 
HETATM   25  C4  UNL     1      26.202  -0.482  52.849  1.00  0.00     0.116 C 
HETATM   26  F1  UNL     1      26.184   0.432  51.868  1.00  0.00    -0.206 F 
BRANCH  25  27
HETATM   27  C3  UNL     1      27.390  -1.313  52.987  1.00  0.00     0.038 C 
HETATM   28  C2  UNL     1      28.562  -0.822  53.335  1.00  0.00    -0.028 C 
HETATM   29  C1  UNL     1      29.808  -1.579  53.500  1.00  0.00     0.036 C 
ENDBRANCH  25  27
ENDBRANCH  23  24
ENDBRANCH  21  22
ENDBRANCH   1  21
TORSDOF 9
ENDMDL
MODEL 6
REMARK VINA RESULT:      -7.1      3.718      5.549
REMARK  9 active torsions:
REMARK  status: ('A' for Active; 'I' for Inactive)
REMARK    1  A    between atoms: C3_3  and  C4_4 
REMARK    2  A    between atoms: C5_6  and  C6_7 
REMARK    3  A    between atoms: C7_8  and  C8_9 
REMARK    4  A    between atoms: C8_9  and  N1_10 
REMARK    5  A    between atoms: C11_13  and  N2_14 
REMARK       I    between atoms: N2_14  and  C12_15 
REMARK    6  A    between atoms: C12_15  and  C13_17 
REMARK    7  A    between atoms: C14_18  and  C15_19 
REMARK    8  A    between atoms: C15_19  and  C16_20 
REMARK    9  A    between atoms: C16_20  and  N3_21 
ROOT
HETATM    1  N1  UNL     1      23.142   5.659  50.749  1.00  0.00    -0.269 NA
HETATM    2  C9  UNL     1      24.285   5.976  50.294  1.00  0.00     0.127 A 
HETATM    3  C10 UNL     1      25.380   6.912  50.272  1.00  0.00     0.098 A 
HETATM    4  C11 UNL     1      26.141   6.259  49.407  1.00  0.00     0.113 A 
HETATM    5  N4  UNL     1      25.107   5.263  49.356  1.00  0.00    -0.327 N 
HETATM    6  H25 UNL     1      25.178   4.396  48.751  1.00  0.00     0.169 HD
ENDROOT
BRANCH   4   7
HETATM    7  N2  UNL     1      27.418   6.667  48.934  1.00  0.00    -0.302 N 
HETATM    8  C12 UNL     1      28.333   5.686  48.478  1.00  0.00     0.302 C 
HETATM    9  O1  UNL     1      28.095   4.449  48.459  1.00  0.00    -0.258 OA
HETATM   10  H12 UNL     1      27.667   7.694  48.929  1.00  0.00     0.171 HD
BRANCH   8  11
HETATM   11  C13 UNL     1      29.632   6.084  47.995  1.00  0.00    -0.005 C 
HETATM   12  C14 UNL     1      30.734   6.417  47.601  1.00  0.00    -0.095 C 
BRANCH  12  13
HETATM   13  C15 UNL     1      32.066   6.795  47.126  1.00  0.00     0.124 C 
BRANCH  13  14
HETATM   14  C16 UNL     1      33.077   5.923  47.809  1.00  0.00     0.284 C 
BRANCH  14  15
HETATM   15  N3  UNL     1      33.998   5.304  46.878  1.00  0.00     0.093 N 
HETATM   16  C17 UNL     1      33.380   5.144  45.576  1.00  0.00     0.298 C 
HETATM   17  C18 UNL     1      34.388   4.653  44.591  1.00  0.00     0.198 C 
HETATM   18  O2  UNL     1      35.423   3.950  45.151  1.00  0.00    -0.388 OA
HETATM   19  C19 UNL     1      35.083   3.194  46.267  1.00  0.00     0.198 C 
HETATM   20  C20 UNL     1      34.514   4.050  47.378  1.00  0.00     0.298 C 
ENDBRANCH  14  15
ENDBRANCH  13  14
ENDBRANCH  12  13
ENDBRANCH   8  11
ENDBRANCH   4   7
BRANCH   1  21
HETATM   21  C8  UNL     1      22.374   4.492  50.432  1.00  0.00     0.178 C 
BRANCH  21  22
HETATM   22  C7  UNL     1      23.016   3.240  50.885  1.00  0.00    -0.005 C 
HETATM   23  C6  UNL     1      23.288   2.855  52.121  1.00  0.00     0.001 C 
BRANCH  23  24
HETATM   24  C5  UNL     1      23.936   1.561  52.339  1.00  0.00     0.042 C 
HETATM   25  C4  UNL     1      24.944   1.487  53.196  1.00  0.00     0.116 C 
HETATM   26  F1  UNL     1      25.375   2.572  53.856  1.00  0.00    -0.206 F 
BRANCH  25  27
HETATM   27  C3  UNL     1      25.620   0.221  53.445  1.00  0.00     0.038 C 
HETATM   28  C2  UNL     1      26.273  -0.431  52.506  1.00  0.00    -0.028 C 
HETATM   29  C1  UNL     1      26.982  -1.706  52.664  1.00  0.00     0.036 C 
ENDBRANCH  25  27
ENDBRANCH  23  24
ENDBRANCH  21  22
ENDBRANCH   1  21
TORSDOF 9
ENDMDL
MODEL 7
REMARK VINA RESULT:      -6.9      2.541      4.432
REMARK  9 active torsions:
REMARK  status: ('A' for Active; 'I' for Inactive)
REMARK    1  A    between atoms: C3_3  and  C4_4 
REMARK    2  A    between atoms: C5_6  and  C6_7 
REMARK    3  A    between atoms: C7_8  and  C8_9 
REMARK    4  A    between atoms: C8_9  and  N1_10 
REMARK    5  A    between atoms: C11_13  and  N2_14 
REMARK       I    between atoms: N2_14  and  C12_15 
REMARK    6  A    between atoms: C12_15  and  C13_17 
REMARK    7  A    between atoms: C14_18  and  C15_19 
REMARK    8  A    between atoms: C15_19  and  C16_20 
REMARK    9  A    between atoms: C16_20  and  N3_21 
ROOT
HETATM    1  N1  UNL     1      20.483   3.024  52.668  1.00  0.00    -0.269 NA
HETATM    2  C9  UNL     1      21.366   3.655  52.008  1.00  0.00     0.127 A 
HETATM    3  C10 UNL     1      21.892   4.919  51.561  1.00  0.00     0.098 A 
HETATM    4  C11 UNL     1      22.917   4.439  50.872  1.00  0.00     0.113 A 
HETATM    5  N4  UNL     1      22.476   3.128  51.263  1.00  0.00    -0.327 N 
HETATM    6  H25 UNL     1      22.978   2.245  50.967  1.00  0.00     0.169 HD
ENDROOT
BRANCH   4   7
HETATM    7  N2  UNL     1      23.877   5.201  50.151  1.00  0.00    -0.302 N 
HETATM    8  C12 UNL     1      25.165   4.657  49.928  1.00  0.00     0.302 C 
HETATM    9  O1  UNL     1      25.535   3.521  50.329  1.00  0.00    -0.258 OA
HETATM   10  H12 UNL     1      23.616   6.160  49.792  1.00  0.00     0.171 HD
BRANCH   8  11
HETATM   11  C13 UNL     1      26.150   5.417  49.198  1.00  0.00    -0.005 C 
HETATM   12  C14 UNL     1      26.988   6.060  48.594  1.00  0.00    -0.095 C 
BRANCH  12  13
HETATM   13  C15 UNL     1      28.010   6.816  47.870  1.00  0.00     0.124 C 
BRANCH  13  14
HETATM   14  C16 UNL     1      28.384   8.014  48.690  1.00  0.00     0.284 C 
BRANCH  14  15
HETATM   15  N3  UNL     1      29.815   8.233  48.737  1.00  0.00     0.093 N 
HETATM   16  C17 UNL     1      30.223   9.177  47.715  1.00  0.00     0.298 C 
HETATM   17  C18 UNL     1      31.668   9.511  47.877  1.00  0.00     0.198 C 
HETATM   18  O2  UNL     1      32.404   8.534  48.497  1.00  0.00    -0.388 OA
HETATM   19  C19 UNL     1      31.994   7.232  48.230  1.00  0.00     0.198 C 
HETATM   20  C20 UNL     1      30.557   6.996  48.643  1.00  0.00     0.298 C 
ENDBRANCH  14  15
ENDBRANCH  13  14
ENDBRANCH  12  13
ENDBRANCH   8  11
ENDBRANCH   4   7
BRANCH   1  21
HETATM   21  C8  UNL     1      20.371   1.604  52.834  1.00  0.00     0.178 C 
BRANCH  21  22
HETATM   22  C7  UNL     1      21.632   0.977  53.280  1.00  0.00    -0.005 C 
HETATM   23  C6  UNL     1      22.217  -0.117  52.818  1.00  0.00     0.001 C 
BRANCH  23  24
HETATM   24  C5  UNL     1      23.476  -0.560  53.417  1.00  0.00     0.042 C 
HETATM   25  C4  UNL     1      24.615  -0.082  52.937  1.00  0.00     0.116 C 
HETATM   26  F1  UNL     1      24.627   0.792  51.920  1.00  0.00    -0.206 F 
BRANCH  25  27
HETATM   27  C3  UNL     1      25.893  -0.494  53.500  1.00  0.00     0.038 C 
HETATM   28  C2  UNL     1      26.926  -0.819  52.751  1.00  0.00    -0.028 C 
HETATM   29  C1  UNL     1      28.248  -1.242  53.228  1.00  0.00     0.036 C 
ENDBRANCH  25  27
ENDBRANCH  23  24
ENDBRANCH  21  22
ENDBRANCH   1  21
TORSDOF 9
ENDMDL
MODEL 8
REMARK VINA RESULT:      -6.7      3.944     11.533
REMARK  9 active torsions:
REMARK  status: ('A' for Active; 'I' for Inactive)
REMARK    1  A    between atoms: C3_3  and  C4_4 
REMARK    2  A    between atoms: C5_6  and  C6_7 
REMARK    3  A    between atoms: C7_8  and  C8_9 
REMARK    4  A    between atoms: C8_9  and  N1_10 
REMARK    5  A    between atoms: C11_13  and  N2_14 
REMARK       I    between atoms: N2_14  and  C12_15 
REMARK    6  A    between atoms: C12_15  and  C13_17 
REMARK    7  A    between atoms: C14_18  and  C15_19 
REMARK    8  A    between atoms: C15_19  and  C16_20 
REMARK    9  A    between atoms: C16_20  and  N3_21 
ROOT
HETATM    1  N1  UNL     1      29.427   9.390  47.901  1.00  0.00    -0.269 NA
HETATM    2  C9  UNL     1      28.485   8.575  48.154  1.00  0.00     0.127 A 
HETATM    3  C10 UNL     1      27.237   7.981  47.753  1.00  0.00     0.098 A 
HETATM    4  C11 UNL     1      27.086   7.184  48.799  1.00  0.00     0.113 A 
HETATM    5  N4  UNL     1      28.328   7.712  49.292  1.00  0.00    -0.327 N 
HETATM    6  H25 UNL     1      28.758   7.400  50.208  1.00  0.00     0.169 HD
ENDROOT
BRANCH   4   7
HETATM    7  N2  UNL     1      26.004   6.289  49.027  1.00  0.00    -0.302 N 
HETATM    8  C12 UNL     1      26.273   4.908  49.194  1.00  0.00     0.302 C 
HETATM    9  O1  UNL     1      27.425   4.399  49.155  1.00  0.00    -0.258 OA
HETATM   10  H12 UNL     1      25.018   6.665  49.069  1.00  0.00     0.171 HD
BRANCH   8  11
HETATM   11  C13 UNL     1      25.187   3.987  49.425  1.00  0.00    -0.005 C 
HETATM   12  C14 UNL     1      24.281   3.201  49.626  1.00  0.00    -0.095 C 
BRANCH  12  13
HETATM   13  C15 UNL     1      23.190   2.261  49.890  1.00  0.00     0.124 C 
BRANCH  13  14
HETATM   14  C16 UNL     1      22.856   2.323  51.351  1.00  0.00     0.284 C 
BRANCH  14  15
HETATM   15  N3  UNL     1      22.767   1.011  51.958  1.00  0.00     0.093 N 
HETATM   16  C17 UNL     1      21.586   0.912  52.793  1.00  0.00     0.298 C 
HETATM   17  C18 UNL     1      21.425  -0.489  53.282  1.00  0.00     0.198 C 
HETATM   18  O2  UNL     1      22.596  -1.198  53.351  1.00  0.00    -0.388 OA
HETATM   19  C19 UNL     1      23.718  -0.446  53.683  1.00  0.00     0.198 C 
HETATM   20  C20 UNL     1      23.965   0.669  52.691  1.00  0.00     0.298 C 
ENDBRANCH  14  15
ENDBRANCH  13  14
ENDBRANCH  12  13
ENDBRANCH   8  11
ENDBRANCH   4   7
BRANCH   1  21
HETATM   21  C8  UNL     1      30.585   9.656  48.702  1.00  0.00     0.178 C 
BRANCH  21  22
HETATM   22  C7  UNL     1      31.710   8.744  48.408  1.00  0.00    -0.005 C 
HETATM   23  C6  UNL     1      32.008   7.591  48.984  1.00  0.00     0.001 C 
BRANCH  23  24
HETATM   24  C5  UNL     1      33.183   6.848  48.528  1.00  0.00     0.042 C 
HETATM   25  C4  UNL     1      33.015   5.850  47.671  1.00  0.00     0.116 C 
HETATM   26  F1  UNL     1      31.795   5.517  47.224  1.00  0.00    -0.206 F 
BRANCH  25  27
HETATM   27  C3  UNL     1      34.153   5.082  47.189  1.00  0.00     0.038 C 
HETATM   28  C2  UNL     1      34.140   4.440  46.039  1.00  0.00    -0.028 C 
HETATM   29  C1  UNL     1      35.236   3.645  45.473  1.00  0.00     0.036 C 
ENDBRANCH  25  27
ENDBRANCH  23  24
ENDBRANCH  21  22
ENDBRANCH   1  21
TORSDOF 9
ENDMDL
MODEL 9
REMARK VINA RESULT:      -6.6      3.303      4.908
REMARK  9 active torsions:
REMARK  status: ('A' for Active; 'I' for Inactive)
REMARK    1  A    between atoms: C3_3  and  C4_4 
REMARK    2  A    between atoms: C5_6  and  C6_7 
REMARK    3  A    between atoms: C7_8  and  C8_9 
REMARK    4  A    between atoms: C8_9  and  N1_10 
REMARK    5  A    between atoms: C11_13  and  N2_14 
REMARK       I    between atoms: N2_14  and  C12_15 
REMARK    6  A    between atoms: C12_15  and  C13_17 
REMARK    7  A    between atoms: C14_18  and  C15_19 
REMARK    8  A    between atoms: C15_19  and  C16_20 
REMARK    9  A    between atoms: C16_20  and  N3_21 
ROOT
HETATM    1  N1  UNL     1      23.244   5.568  50.385  1.00  0.00    -0.269 NA
HETATM    2  C9  UNL     1      24.378   5.603  49.813  1.00  0.00     0.127 A 
HETATM    3  C10 UNL     1      25.134   5.753  48.597  1.00  0.00     0.098 A 
HETATM    4  C11 UNL     1      26.339   5.618  49.131  1.00  0.00     0.113 A 
HETATM    5  N4  UNL     1      25.682   5.456  50.398  1.00  0.00    -0.327 N 
HETATM    6  H25 UNL     1      26.214   5.295  51.300  1.00  0.00     0.169 HD
ENDROOT
BRANCH   4   7
HETATM    7  N2  UNL     1      27.578   5.667  48.434  1.00  0.00    -0.302 N 
HETATM    8  C12 UNL     1      28.260   6.904  48.324  1.00  0.00     0.302 C 
HETATM    9  O1  UNL     1      27.843   7.990  48.807  1.00  0.00    -0.258 OA
HETATM   10  H12 UNL     1      27.972   4.783  48.011  1.00  0.00     0.171 HD
BRANCH   8  11
HETATM   11  C13 UNL     1      29.518   6.970  47.621  1.00  0.00    -0.005 C 
HETATM   12  C14 UNL     1      30.585   7.020  47.039  1.00  0.00    -0.095 C 
BRANCH  12  13
HETATM   13  C15 UNL     1      31.867   7.057  46.334  1.00  0.00     0.124 C 
BRANCH  13  14
HETATM   14  C16 UNL     1      32.941   6.613  47.281  1.00  0.00     0.284 C 
BRANCH  14  15
HETATM   15  N3  UNL     1      33.444   5.290  46.972  1.00  0.00     0.093 N 
HETATM   16  C17 UNL     1      34.422   4.870  47.956  1.00  0.00     0.298 C 
HETATM   17  C18 UNL     1      34.811   3.450  47.714  1.00  0.00     0.198 C 
HETATM   18  O2  UNL     1      34.659   3.040  46.415  1.00  0.00    -0.388 OA
HETATM   19  C19 UNL     1      34.896   4.022  45.459  1.00  0.00     0.198 C 
HETATM   20  C20 UNL     1      33.975   5.211  45.630  1.00  0.00     0.298 C 
ENDBRANCH  14  15
ENDBRANCH  13  14
ENDBRANCH  12  13
ENDBRANCH   8  11
ENDBRANCH   4   7
BRANCH   1  21
HETATM   21  C8  UNL     1      22.980   5.368  51.780  1.00  0.00     0.178 C 
BRANCH  21  22
HETATM   22  C7  UNL     1      22.756   3.949  52.125  1.00  0.00    -0.005 C 
HETATM   23  C6  UNL     1      22.857   2.885  51.344  1.00  0.00     0.001 C 
BRANCH  23  24
HETATM   24  C5  UNL     1      22.586   1.561  51.904  1.00  0.00     0.042 C 
HETATM   25  C4  UNL     1      23.370   1.103  52.870  1.00  0.00     0.116 C 
HETATM   26  F1  UNL     1      24.397   1.830  53.334  1.00  0.00    -0.206 F 
BRANCH  25  27
HETATM   27  C3  UNL     1      23.140  -0.209  53.458  1.00  0.00     0.038 C 
HETATM   28  C2  UNL     1      22.075  -0.485  54.182  1.00  0.00    -0.028 C 
HETATM   29  C1  UNL     1      21.760  -1.773  54.810  1.00  0.00     0.036 C 
ENDBRANCH  25  27
ENDBRANCH  23  24
ENDBRANCH  21  22
ENDBRANCH   1  21
TORSDOF 9
ENDMDL
