MODEL 1
REMARK VINA RESULT:      -7.9      0.000      0.000
REMARK  7 active torsions:
REMARK  status: ('A' for Active; 'I' for Inactive)
REMARK    1  A    between atoms: C3_3  and  C4_4 
REMARK    2  A    between atoms: C4_4  and  C5_5 
REMARK    3  A    between atoms: C5_5  and  C6_6 
REMARK    4  A    between atoms: C6_6  and  C8_12 
REMARK    5  A    between atoms: N1_7  and  O1_8 
REMARK    6  A    between atoms: C7_9  and  N2_10 
REMARK    7  A    between atoms: C17_21  and  S2_22 
ROOT
HETATM    1  C6  UNL     1      24.498   0.765  52.982  1.00  0.00     0.068 C 
HETATM    2  N1  UNL     1      23.258   0.742  53.183  1.00  0.00    -0.154 NA
ENDROOT
BRANCH   1   3
HETATM    3  C5  UNL     1      24.278   1.980  52.352  1.00  0.00     0.032 C 
BRANCH   3   4
HETATM    4  C4  UNL     1      24.275   3.069  51.698  1.00  0.00     0.053 C 
BRANCH   4   5
HETATM    5  C3  UNL     1      24.833   4.227  50.749  1.00  0.00     0.034 A 
HETATM    6  C2  UNL     1      23.975   5.535  50.735  1.00  0.00     0.028 A 
HETATM    7  C1  UNL     1      22.964   5.058  51.678  1.00  0.00     0.029 C 
HETATM    8  S2  UNL     1      25.232   5.126  50.022  1.00  0.00    -0.199 SA
HETATM    9  C15 UNL     1      26.250   3.638  50.008  1.00  0.00     0.081 A 
HETATM   10  C16 UNL     1      27.187   4.420  48.948  1.00  0.00     0.048 A 
HETATM   11  C17 UNL     1      26.249   4.770  49.458  1.00  0.00    -0.039 A 
ENDBRANCH   4   5
ENDBRANCH   3   4
ENDBRANCH   1   3
BRANCH   1  12
HETATM   12  C8  UNL     1      25.804   0.180  53.097  1.00  0.00    -0.010 A 
HETATM   13  C9  UNL     1      26.514   1.079  53.834  1.00  0.00     0.014 A 
HETATM   14  C10 UNL     1      27.850   0.722  54.079  1.00  0.00     0.007 A 
HETATM   15  C11 UNL     1      28.369  -0.475  53.583  1.00  0.00    -0.062 A 
HETATM   16  C12 UNL     1      29.776  -0.902  53.806  1.00  0.00     0.048 C 
HETATM   17  C13 UNL     1      27.529  -1.277  52.858  1.00  0.00     0.007 A 
HETATM   18  C14 UNL     1      26.206  -1.005  52.570  1.00  0.00     0.014 A 
ENDBRANCH   1  12
BRANCH   2  19
HETATM   19  O1  UNL     1      22.568  -0.230  53.821  1.00  0.00     0.000 OA
HETATM   20  C7  UNL     1      23.079  -0.985  54.872  1.00  0.00     0.108 A 
HETATM   21  S1  UNL     1      21.597  -1.628  54.563  1.00  0.00    -0.030 SA
BRANCH  20  22
HETATM   22  N2  UNL     1      23.871  -1.548  55.917  1.00  0.00    -0.391 N 
HETATM   23  H6  UNL     1      23.757  -0.916  56.750  1.00  0.00     0.157 HD
HETATM   24  H7  UNL     1      24.406  -2.419  55.749  1.00  0.00     0.157 HD
ENDBRANCH  20  22
ENDBRANCH   2  19
TORSDOF 7
ENDMDL
MODEL 2
REMARK VINA RESULT:      -7.8      2.892      4.244
REMARK  7 active torsions:
REMARK  status: ('A' for Active; 'I' for Inactive)
REMARK    1  A    between atoms: C3_3  and  C4_4 
REMARK    2  A    between atoms: C4_4  and  C5_5 
REMARK    3  A    between atoms: C5_5  and  C6_6 
REMARK    4  A    between atoms: C6_6  and  C8_12 
REMARK    5  A    between atoms: N1_7  and  O1_8 
REMARK    6  A    between atoms: C7_9  and  N2_10 
REMARK    7  A    between atoms: C17_21  and  S2_22 
ROOT
HETATM    1  C6  UNL     1      25.845   1.382  52.057  1.00  0.00     0.068 C 
HETATM    2  N1  UNL     1      27.100   1.448  52.047  1.00  0.00    -0.154 NA
ENDROOT
BRANCH   1   3
HETATM    3  C5  UNL     1      25.879   2.337  51.055  1.00  0.00     0.032 C 
BRANCH   3   4
HETATM    4  C4  UNL     1      25.714   3.262  50.200  1.00  0.00     0.053 C 
BRANCH   4   5
HETATM    5  C3  UNL     1      25.945   4.669  49.479  1.00  0.00     0.034 A 
HETATM    6  C2  UNL     1      24.684   5.594  49.424  1.00  0.00     0.028 A 
HETATM    7  C1  UNL     1      23.791   4.665  50.116  1.00  0.00     0.029 C 
HETATM    8  S2  UNL     1      26.091   5.749  48.923  1.00  0.00    -0.199 SA
HETATM    9  C15 UNL     1      27.568   4.716  48.964  1.00  0.00     0.081 A 
HETATM   10  C16 UNL     1      28.300   5.920  48.171  1.00  0.00     0.048 A 
HETATM   11  C17 UNL     1      27.237   5.849  48.528  1.00  0.00    -0.039 A 
ENDBRANCH   4   5
ENDBRANCH   3   4
ENDBRANCH   1   3
BRANCH   1  12
HETATM   12  C8  UNL     1      24.616   0.844  52.570  1.00  0.00    -0.010 A 
HETATM   13  C9  UNL     1      25.006  -0.016  53.550  1.00  0.00     0.014 A 
HETATM   14  C10 UNL     1      23.957  -0.681  54.208  1.00  0.00     0.007 A 
HETATM   15  C11 UNL     1      22.629  -0.444  53.848  1.00  0.00    -0.062 A 
HETATM   16  C12 UNL     1      21.480  -1.122  54.506  1.00  0.00     0.048 C 
HETATM   17  C13 UNL     1      22.396   0.452  52.841  1.00  0.00     0.007 A 
HETATM   18  C14 UNL     1      23.363   1.148  52.143  1.00  0.00     0.014 A 
ENDBRANCH   1  12
BRANCH   2  19
HETATM   19  O1  UNL     1      27.946   0.741  52.829  1.00  0.00     0.000 OA
HETATM   20  C7  UNL     1      28.832   1.314  53.734  1.00  0.00     0.108 A 
HETATM   21  S1  UNL     1      29.158  -0.297  53.778  1.00  0.00    -0.030 SA
BRANCH  20  22
HETATM   22  N2  UNL     1      29.586   2.194  54.567  1.00  0.00    -0.391 N 
HETATM   23  H6  UNL     1      30.586   2.122  54.248  1.00  0.00     0.157 HD
HETATM   24  H7  UNL     1      29.111   2.741  55.307  1.00  0.00     0.157 HD
ENDBRANCH  20  22
ENDBRANCH   2  19
TORSDOF 7
ENDMDL
MODEL 3
REMARK VINA RESULT:      -7.8      2.605      5.648
REMARK  7 active torsions:
REMARK  status: ('A' for Active; 'I' for Inactive)
REMARK    1  A    between atoms: C3_3  and  C4_4 
REMARK    2  A    between atoms: C4_4  and  C5_5 
REMARK    3  A    between atoms: C5_5  and  C6_6 
REMARK    4  A    between atoms: C6_6  and  C8_12 
REMARK    5  A    between atoms: N1_7  and  O1_8 
REMARK    6  A    between atoms: C7_9  and  N2_10 
REMARK    7  A    between atoms: C17_21  and  S2_22 
ROOT
HETATM    1  C6  UNL     1      25.152   1.312  52.135  1.00  0.00     0.068 C 
HETATM    2  N1  UNL     1      24.404   2.074  51.472  1.00  0.00    -0.154 NA
ENDROOT
BRANCH   1   3
HETATM    3  C5  UNL     1      23.990   0.675  52.538  1.00  0.00     0.032 C 
BRANCH   3   4
HETATM    4  C4  UNL     1      22.948   0.200  53.088  1.00  0.00     0.053 C 
BRANCH   4   5
HETATM    5  C3  UNL     1      21.406  -0.183  53.254  1.00  0.00     0.034 A 
HETATM    6  C2  UNL     1      21.078  -1.059  54.508  1.00  0.00     0.028 A 
HETATM    7  C1  UNL     1      22.454  -1.136  54.998  1.00  0.00     0.029 C 
HETATM    8  S2  UNL     1      20.233  -0.500  53.399  1.00  0.00    -0.199 SA
HETATM    9  C15 UNL     1      20.566   0.508  51.942  1.00  0.00     0.081 A 
HETATM   10  C16 UNL     1      18.982   0.403  51.641  1.00  0.00     0.048 A 
HETATM   11  C17 UNL     1      19.572  -0.036  52.490  1.00  0.00    -0.039 A 
ENDBRANCH   4   5
ENDBRANCH   3   4
ENDBRANCH   1   3
BRANCH   1  12
HETATM   12  C8  UNL     1      26.454   0.896  52.577  1.00  0.00    -0.010 A 
HETATM   13  C9  UNL     1      26.418  -0.463  52.503  1.00  0.00     0.014 A 
HETATM   14  C10 UNL     1      27.601  -1.109  52.899  1.00  0.00     0.007 A 
HETATM   15  C11 UNL     1      28.705  -0.372  53.330  1.00  0.00    -0.062 A 
HETATM   16  C12 UNL     1      29.979  -1.002  53.766  1.00  0.00     0.048 C 
HETATM   17  C13 UNL     1      28.587   0.992  53.349  1.00  0.00     0.007 A 
HETATM   18  C14 UNL     1      27.466   1.708  52.979  1.00  0.00     0.014 A 
ENDBRANCH   1  12
BRANCH   2  19
HETATM   19  O1  UNL     1      24.800   3.105  50.692  1.00  0.00     0.000 OA
HETATM   20  C7  UNL     1      24.559   4.442  50.990  1.00  0.00     0.108 A 
HETATM   21  S1  UNL     1      25.273   4.455  49.509  1.00  0.00    -0.030 SA
BRANCH  20  22
HETATM   22  N2  UNL     1      24.183   5.683  51.585  1.00  0.00    -0.391 N 
HETATM   23  H6  UNL     1      23.413   6.079  50.988  1.00  0.00     0.157 HD
HETATM   24  H7  UNL     1      24.661   6.012  52.444  1.00  0.00     0.157 HD
ENDBRANCH  20  22
ENDBRANCH   2  19
TORSDOF 7
ENDMDL
MODEL 4
REMARK VINA RESULT:      -7.5      2.989      6.429
REMARK  7 active torsions:
REMARK  status: ('A' for Active; 'I' for Inactive)
REMARK    1  A    between atoms: C3_3  and  C4_4 
REMARK    2  A    between atoms: C4_4  and  C5_5 
REMARK    3  A    between atoms: C5_5  and  C6_6 
REMARK    4  A    between atoms: C6_6  and  C8_12 
REMARK    5  A    between atoms: N1_7  and  O1_8 
REMARK    6  A    between atoms: C7_9  and  N2_10 
REMARK    7  A    between atoms: C17_21  and  S2_22 
ROOT
HETATM    1  C6  UNL     1      25.121   3.508  50.653  1.00  0.00     0.068 C 
HETATM    2  N1  UNL     1      24.082   2.862  50.940  1.00  0.00    -0.154 NA
ENDROOT
BRANCH   1   3
HETATM    3  C5  UNL     1      25.772   2.680  51.553  1.00  0.00     0.032 C 
BRANCH   3   4
HETATM    4  C4  UNL     1      26.548   1.992  52.287  1.00  0.00     0.053 C 
BRANCH   4   5
HETATM    5  C3  UNL     1      27.348   0.707  52.797  1.00  0.00     0.034 A 
HETATM    6  C2  UNL     1      28.642   1.021  53.618  1.00  0.00     0.028 A 
HETATM    7  C1  UNL     1      28.518   2.476  53.535  1.00  0.00     0.029 C 
HETATM    8  S2  UNL     1      27.986  -0.260  53.191  1.00  0.00    -0.199 SA
HETATM    9  C15 UNL     1      26.504  -0.669  52.249  1.00  0.00     0.081 A 
HETATM   10  C16 UNL     1      26.908  -2.215  52.490  1.00  0.00     0.048 A 
HETATM   11  C17 UNL     1      27.435  -1.283  52.832  1.00  0.00    -0.039 A 
ENDBRANCH   4   5
ENDBRANCH   3   4
ENDBRANCH   1   3
BRANCH   1  12
HETATM   12  C8  UNL     1      25.800   4.548  49.931  1.00  0.00    -0.010 A 
HETATM   13  C9  UNL     1      26.874   3.926  49.372  1.00  0.00     0.014 A 
HETATM   14  C10 UNL     1      27.709   4.757  48.607  1.00  0.00     0.007 A 
HETATM   15  C11 UNL     1      27.418   6.115  48.458  1.00  0.00    -0.062 A 
HETATM   16  C12 UNL     1      28.267   7.042  47.664  1.00  0.00     0.048 C 
HETATM   17  C13 UNL     1      26.298   6.594  49.081  1.00  0.00     0.007 A 
HETATM   18  C14 UNL     1      25.425   5.851  49.851  1.00  0.00     0.014 A 
ENDBRANCH   1  12
BRANCH   2  19
HETATM   19  O1  UNL     1      22.847   3.065  50.429  1.00  0.00     0.000 OA
HETATM   20  C7  UNL     1      22.220   2.197  49.542  1.00  0.00     0.108 A 
HETATM   21  S1  UNL     1      21.198   3.477  49.683  1.00  0.00    -0.030 SA
BRANCH  20  22
HETATM   22  N2  UNL     1      21.855   1.113  48.688  1.00  0.00    -0.391 N 
HETATM   23  H6  UNL     1      22.095   1.412  47.708  1.00  0.00     0.157 HD
HETATM   24  H7  UNL     1      21.442   0.252  49.091  1.00  0.00     0.157 HD
ENDBRANCH  20  22
ENDBRANCH   2  19
TORSDOF 7
ENDMDL
MODEL 5
REMARK VINA RESULT:      -7.5      2.843      4.610
REMARK  7 active torsions:
REMARK  status: ('A' for Active; 'I' for Inactive)
REMARK    1  A    between atoms: C3_3  and  C4_4 
REMARK    2  A    between atoms: C4_4  and  C5_5 
REMARK    3  A    between atoms: C5_5  and  C6_6 
REMARK    4  A    between atoms: C6_6  and  C8_12 
REMARK    5  A    between atoms: N1_7  and  O1_8 
REMARK    6  A    between atoms: C7_9  and  N2_10 
REMARK    7  A    between atoms: C17_21  and  S2_22 
ROOT
HETATM    1  C6  UNL     1      25.657   1.325  52.477  1.00  0.00     0.068 C 
HETATM    2  N1  UNL     1      26.888   1.545  52.355  1.00  0.00    -0.154 NA
ENDROOT
BRANCH   1   3
HETATM    3  C5  UNL     1      25.475   2.413  51.638  1.00  0.00     0.032 C 
BRANCH   3   4
HETATM    4  C4  UNL     1      25.511   3.378  50.813  1.00  0.00     0.053 C 
BRANCH   4   5
HETATM    5  C3  UNL     1      25.271   4.854  50.252  1.00  0.00     0.034 A 
HETATM    6  C2  UNL     1      26.286   5.312  49.153  1.00  0.00     0.028 A 
HETATM    7  C1  UNL     1      27.060   4.071  49.141  1.00  0.00     0.029 C 
HETATM    8  S2  UNL     1      25.117   5.986  49.812  1.00  0.00    -0.199 SA
HETATM    9  C15 UNL     1      23.927   5.500  51.076  1.00  0.00     0.081 A 
HETATM   10  C16 UNL     1      23.284   6.970  50.882  1.00  0.00     0.048 A 
HETATM   11  C17 UNL     1      24.166   6.508  50.361  1.00  0.00    -0.039 A 
ENDBRANCH   4   5
ENDBRANCH   3   4
ENDBRANCH   1   3
BRANCH   1  12
HETATM   12  C8  UNL     1      24.558   0.574  53.016  1.00  0.00    -0.010 A 
HETATM   13  C9  UNL     1      23.469   1.037  52.343  1.00  0.00     0.014 A 
HETATM   14  C10 UNL     1      22.249   0.444  52.709  1.00  0.00     0.007 A 
HETATM   15  C11 UNL     1      22.205  -0.542  53.696  1.00  0.00    -0.062 A 
HETATM   16  C12 UNL     1      20.943  -1.200  54.127  1.00  0.00     0.048 C 
HETATM   17  C13 UNL     1      23.388  -0.903  54.283  1.00  0.00     0.007 A 
HETATM   18  C14 UNL     1      24.628  -0.374  53.986  1.00  0.00     0.014 A 
ENDBRANCH   1  12
BRANCH   2  19
HETATM   19  O1  UNL     1      27.888   0.840  52.931  1.00  0.00     0.000 OA
HETATM   20  C7  UNL     1      28.847   1.395  53.771  1.00  0.00     0.108 A 
HETATM   21  S1  UNL     1      29.297  -0.176  53.584  1.00  0.00    -0.030 SA
BRANCH  20  22
HETATM   22  N2  UNL     1      29.642   2.248  54.593  1.00  0.00    -0.391 N 
HETATM   23  H6  UNL     1      29.048   3.087  54.814  1.00  0.00     0.157 HD
HETATM   24  H7  UNL     1      30.607   1.968  54.849  1.00  0.00     0.157 HD
ENDBRANCH  20  22
ENDBRANCH   2  19
TORSDOF 7
ENDMDL
MODEL 6
REMARK VINA RESULT:      -7.4      3.032      6.048
REMARK  7 active torsions:
REMARK  status: ('A' for Active; 'I' for Inactive)
REMARK    1  A    between atoms: C3_3  and  C4_4 
REMARK    2  A    between atoms: C4_4  and  C5_5 
REMARK    3  A    between atoms: C5_5  and  C6_6 
REMARK    4  A    between atoms: C6_6  and  C8_12 
REMARK    5  A    between atoms: N1_7  and  O1_8 
REMARK    6  A    between atoms: C7_9  and  N2_10 
REMARK    7  A    between atoms: C17_21  and  S2_22 
ROOT
HETATM    1  C6  UNL     1      25.362   1.012  52.605  1.00  0.00     0.068 C 
HETATM    2  N1  UNL     1      25.795   0.080  53.329  1.00  0.00    -0.154 NA
ENDROOT
BRANCH   1   3
HETATM    3  C5  UNL     1      24.112   0.702  53.115  1.00  0.00     0.032 C 
BRANCH   3   4
HETATM    4  C4  UNL     1      22.993   0.230  53.487  1.00  0.00     0.053 C 
BRANCH   4   5
HETATM    5  C3  UNL     1      21.455  -0.190  53.379  1.00  0.00     0.034 A 
HETATM    6  C2  UNL     1      21.002  -1.290  54.396  1.00  0.00     0.028 A 
HETATM    7  C1  UNL     1      22.308  -1.446  55.036  1.00  0.00     0.029 C 
HETATM    8  S2  UNL     1      20.284  -0.539  53.312  1.00  0.00    -0.199 SA
HETATM    9  C15 UNL     1      20.763   0.729  52.122  1.00  0.00     0.081 A 
HETATM   10  C16 UNL     1      19.233   0.669  51.606  1.00  0.00     0.048 A 
HETATM   11  C17 UNL     1      19.727   0.083  52.428  1.00  0.00    -0.039 A 
ENDBRANCH   4   5
ENDBRANCH   3   4
ENDBRANCH   1   3
BRANCH   1  12
HETATM   12  C8  UNL     1      25.567   2.064  51.649  1.00  0.00    -0.010 A 
HETATM   13  C9  UNL     1      24.406   2.774  51.674  1.00  0.00     0.014 A 
HETATM   14  C10 UNL     1      24.363   3.873  50.800  1.00  0.00     0.007 A 
HETATM   15  C11 UNL     1      25.455   4.175  49.984  1.00  0.00    -0.062 A 
HETATM   16  C12 UNL     1      25.465   5.322  49.037  1.00  0.00     0.048 C 
HETATM   17  C13 UNL     1      26.555   3.366  50.073  1.00  0.00     0.007 A 
HETATM   18  C14 UNL     1      26.682   2.269  50.902  1.00  0.00     0.014 A 
ENDBRANCH   1  12
BRANCH   2  19
HETATM   19  O1  UNL     1      27.081  -0.323  53.430  1.00  0.00     0.000 OA
HETATM   20  C7  UNL     1      28.058   0.364  54.143  1.00  0.00     0.108 A 
HETATM   21  S1  UNL     1      28.851  -0.882  53.421  1.00  0.00    -0.030 SA
BRANCH  20  22
HETATM   22  N2  UNL     1      28.795   1.270  54.963  1.00  0.00    -0.391 N 
HETATM   23  H6  UNL     1      28.087   1.873  55.454  1.00  0.00     0.157 HD
HETATM   24  H7  UNL     1      29.831   1.230  54.977  1.00  0.00     0.157 HD
ENDBRANCH  20  22
ENDBRANCH   2  19
TORSDOF 7
ENDMDL
MODEL 7
REMARK VINA RESULT:      -7.3      7.438     10.131
REMARK  7 active torsions:
REMARK  status: ('A' for Active; 'I' for Inactive)
REMARK    1  A    between atoms: C3_3  and  C4_4 
REMARK    2  A    between atoms: C4_4  and  C5_5 
REMARK    3  A    between atoms: C5_5  and  C6_6 
REMARK    4  A    between atoms: C6_6  and  C8_12 
REMARK    5  A    between atoms: N1_7  and  O1_8 
REMARK    6  A    between atoms: C7_9  and  N2_10 
REMARK    7  A    between atoms: C17_21  and  S2_22 
ROOT
HETATM    1  C6  UNL     1      29.526   6.569  47.938  1.00  0.00     0.068 C 
HETATM    2  N1  UNL     1      30.414   7.422  47.688  1.00  0.00    -0.154 NA
ENDROOT
BRANCH   1   3
HETATM    3  C5  UNL     1      30.511   5.618  47.727  1.00  0.00     0.032 C 
BRANCH   3   4
HETATM    4  C4  UNL     1      31.548   4.912  47.530  1.00  0.00     0.053 C 
BRANCH   4   5
HETATM    5  C3  UNL     1      33.066   4.439  47.678  1.00  0.00     0.034 A 
HETATM    6  C2  UNL     1      33.395   3.063  47.011  1.00  0.00     0.028 A 
HETATM    7  C1  UNL     1      32.042   2.815  46.514  1.00  0.00     0.029 C 
HETATM    8  S2  UNL     1      34.221   4.048  47.786  1.00  0.00    -0.199 SA
HETATM    9  C15 UNL     1      33.887   5.637  48.570  1.00  0.00     0.081 A 
HETATM   10  C16 UNL     1      35.444   5.629  49.002  1.00  0.00     0.048 A 
HETATM   11  C17 UNL     1      34.867   4.863  48.417  1.00  0.00    -0.039 A 
ENDBRANCH   4   5
ENDBRANCH   3   4
ENDBRANCH   1   3
BRANCH   1  12
HETATM   12  C8  UNL     1      28.175   6.220  48.279  1.00  0.00    -0.010 A 
HETATM   13  C9  UNL     1      28.245   4.908  48.636  1.00  0.00     0.014 A 
HETATM   14  C10 UNL     1      27.022   4.329  49.013  1.00  0.00     0.007 A 
HETATM   15  C11 UNL     1      25.847   5.083  49.007  1.00  0.00    -0.062 A 
HETATM   16  C12 UNL     1      24.524   4.522  49.390  1.00  0.00     0.048 C 
HETATM   17  C13 UNL     1      25.937   6.393  48.623  1.00  0.00     0.007 A 
HETATM   18  C14 UNL     1      27.094   7.041  48.238  1.00  0.00     0.014 A 
ENDBRANCH   1  12
BRANCH   2  19
HETATM   19  O1  UNL     1      30.256   8.765  47.681  1.00  0.00     0.000 OA
HETATM   20  C7  UNL     1      30.307   9.560  48.821  1.00  0.00     0.108 A 
HETATM   21  S1  UNL     1      29.910  10.587  47.600  1.00  0.00    -0.030 SA
BRANCH  20  22
HETATM   22  N2  UNL     1      30.441  10.079  50.144  1.00  0.00    -0.391 N 
HETATM   23  H6  UNL     1      29.651  10.761  50.277  1.00  0.00     0.157 HD
HETATM   24  H7  UNL     1      31.216   9.756  50.751  1.00  0.00     0.157 HD
ENDBRANCH  20  22
ENDBRANCH   2  19
TORSDOF 7
ENDMDL
MODEL 8
REMARK VINA RESULT:      -7.3      1.990      2.716
REMARK  7 active torsions:
REMARK  status: ('A' for Active; 'I' for Inactive)
REMARK    1  A    between atoms: C3_3  and  C4_4 
REMARK    2  A    between atoms: C4_4  and  C5_5 
REMARK    3  A    between atoms: C5_5  and  C6_6 
REMARK    4  A    between atoms: C6_6  and  C8_12 
REMARK    5  A    between atoms: N1_7  and  O1_8 
REMARK    6  A    between atoms: C7_9  and  N2_10 
REMARK    7  A    between atoms: C17_21  and  S2_22 
ROOT
HETATM    1  C6  UNL     1      24.894   0.648  52.915  1.00  0.00     0.068 C 
HETATM    2  N1  UNL     1      23.654   0.483  53.029  1.00  0.00    -0.154 NA
ENDROOT
BRANCH   1   3
HETATM    3  C5  UNL     1      24.583   1.640  51.999  1.00  0.00     0.032 C 
BRANCH   3   4
HETATM    4  C4  UNL     1      24.124   2.434  51.120  1.00  0.00     0.053 C 
BRANCH   4   5
HETATM    5  C3  UNL     1      23.398   2.889  49.772  1.00  0.00     0.034 A 
HETATM    6  C2  UNL     1      23.990   4.175  49.108  1.00  0.00     0.028 A 
HETATM    7  C1  UNL     1      25.028   4.395  50.115  1.00  0.00     0.029 C 
HETATM    8  S2  UNL     1      22.853   3.265  48.743  1.00  0.00    -0.199 SA
HETATM    9  C15 UNL     1      22.138   1.780  49.474  1.00  0.00     0.081 A 
HETATM   10  C16 UNL     1      21.097   1.804  48.238  1.00  0.00     0.048 A 
HETATM   11  C17 UNL     1      21.937   2.512  48.470  1.00  0.00    -0.039 A 
ENDBRANCH   4   5
ENDBRANCH   3   4
ENDBRANCH   1   3
BRANCH   1  12
HETATM   12  C8  UNL     1      26.247   0.310  53.257  1.00  0.00    -0.010 A 
HETATM   13  C9  UNL     1      26.483  -0.856  52.594  1.00  0.00     0.014 A 
HETATM   14  C10 UNL     1      27.766  -1.396  52.782  1.00  0.00     0.007 A 
HETATM   15  C11 UNL     1      28.697  -0.751  53.598  1.00  0.00    -0.062 A 
HETATM   16  C12 UNL     1      30.066  -1.280  53.838  1.00  0.00     0.048 C 
HETATM   17  C13 UNL     1      28.311   0.416  54.198  1.00  0.00     0.007 A 
HETATM   18  C14 UNL     1      27.074   1.017  54.069  1.00  0.00     0.014 A 
ENDBRANCH   1  12
BRANCH   2  19
HETATM   19  O1  UNL     1      23.036  -0.412  53.832  1.00  0.00     0.000 OA
HETATM   20  C7  UNL     1      21.788  -0.207  54.410  1.00  0.00     0.108 A 
HETATM   21  S1  UNL     1      22.311  -1.643  55.018  1.00  0.00    -0.030 SA
BRANCH  20  22
HETATM   22  N2  UNL     1      20.514   0.292  54.817  1.00  0.00    -0.391 N 
HETATM   23  H6  UNL     1      20.702   1.044  55.529  1.00  0.00     0.157 HD
HETATM   24  H7  UNL     1      19.648  -0.103  54.407  1.00  0.00     0.157 HD
ENDBRANCH  20  22
ENDBRANCH   2  19
TORSDOF 7
ENDMDL
MODEL 9
REMARK VINA RESULT:      -7.3      2.734      6.442
REMARK  7 active torsions:
REMARK  status: ('A' for Active; 'I' for Inactive)
REMARK    1  A    between atoms: C3_3  and  C4_4 
REMARK    2  A    between atoms: C4_4  and  C5_5 
REMARK    3  A    between atoms: C5_5  and  C6_6 
REMARK    4  A    between atoms: C6_6  and  C8_12 
REMARK    5  A    between atoms: N1_7  and  O1_8 
REMARK    6  A    between atoms: C7_9  and  N2_10 
REMARK    7  A    between atoms: C17_21  and  S2_22 
ROOT
HETATM    1  C6  UNL     1      24.700   3.702  50.761  1.00  0.00     0.068 C 
HETATM    2  N1  UNL     1      23.498   3.531  51.086  1.00  0.00    -0.154 NA
ENDROOT
BRANCH   1   3
HETATM    3  C5  UNL     1      24.997   2.741  51.713  1.00  0.00     0.032 C 
BRANCH   3   4
HETATM    4  C4  UNL     1      25.060   1.824  52.590  1.00  0.00     0.053 C 
BRANCH   4   5
HETATM    5  C3  UNL     1      25.732   0.741  53.552  1.00  0.00     0.034 A 
HETATM    6  C2  UNL     1      24.780  -0.413  54.011  1.00  0.00     0.028 A 
HETATM    7  C1  UNL     1      23.605   0.072  53.287  1.00  0.00     0.029 C 
HETATM    8  S2  UNL     1      26.219  -0.098  54.299  1.00  0.00    -0.199 SA
HETATM    9  C15 UNL     1      27.352   1.213  53.797  1.00  0.00     0.081 A 
HETATM   10  C16 UNL     1      28.456   0.457  54.703  1.00  0.00     0.048 A 
HETATM   11  C17 UNL     1      27.383   0.180  54.516  1.00  0.00    -0.039 A 
ENDBRANCH   4   5
ENDBRANCH   3   4
ENDBRANCH   1   3
BRANCH   1  12
HETATM   12  C8  UNL     1      25.713   4.351  49.976  1.00  0.00    -0.010 A 
HETATM   13  C9  UNL     1      25.348   5.662  49.968  1.00  0.00     0.014 A 
HETATM   14  C10 UNL     1      26.200   6.511  49.243  1.00  0.00     0.007 A 
HETATM   15  C11 UNL     1      27.327   6.002  48.594  1.00  0.00    -0.062 A 
HETATM   16  C12 UNL     1      28.261   6.853  47.809  1.00  0.00     0.048 C 
HETATM   17  C13 UNL     1      27.563   4.658  48.695  1.00  0.00     0.007 A 
HETATM   18  C14 UNL     1      26.780   3.753  49.385  1.00  0.00     0.014 A 
ENDBRANCH   1  12
BRANCH   2  19
HETATM   19  O1  UNL     1      22.428   4.169  50.561  1.00  0.00     0.000 OA
HETATM   20  C7  UNL     1      22.012   5.438  50.949  1.00  0.00     0.108 A 
HETATM   21  S1  UNL     1      20.877   4.925  49.875  1.00  0.00    -0.030 SA
BRANCH  20  22
HETATM   22  N2  UNL     1      21.868   6.729  51.540  1.00  0.00    -0.391 N 
HETATM   23  H6  UNL     1      20.997   7.151  51.127  1.00  0.00     0.157 HD
HETATM   24  H7  UNL     1      22.563   7.062  52.233  1.00  0.00     0.157 HD
ENDBRANCH  20  22
ENDBRANCH   2  19
TORSDOF 7
ENDMDL
