MODEL 1
REMARK VINA RESULT:      -8.7      0.000      0.000
REMARK  4 active torsions:
REMARK  status: ('A' for Active; 'I' for Inactive)
REMARK    1  A    between atoms: C2_2  and  C3_3 
REMARK    2  A    between atoms: C10_11  and  O1_12 
REMARK    3  A    between atoms: O1_12  and  C11_13 
REMARK    4  A    between atoms: C11_13  and  C12_14 
ROOT
HETATM    1  C3  UNL     1      20.730   3.451  51.610  1.00  0.00    -0.007 C 
HETATM    2  C4  UNL     1      21.484   2.407  50.909  1.00  0.00    -0.056 C 
HETATM    3  C5  UNL     1      22.508   1.658  50.058  1.00  0.00     0.056 C 
HETATM    4  C6  UNL     1      23.382   2.588  49.644  1.00  0.00     0.053 C 
HETATM    5  C7  UNL     1      24.478   3.505  49.076  1.00  0.00     0.056 C 
HETATM    6  C8  UNL     1      25.615   3.289  50.135  1.00  0.00     0.103 C 
HETATM    7  C9  UNL     1      25.277   2.326  51.136  1.00  0.00     0.077 C 
HETATM    8 CL1  UNL     1      26.883   2.536  51.936  1.00  0.00    -0.117 Cl
HETATM    9  C10 UNL     1      24.367   1.359  51.973  1.00  0.00     0.100 C 
HETATM   10  C17 UNL     1      23.074   0.926  52.123  1.00  0.00     0.128 C 
HETATM   11  F1  UNL     1      22.975   0.003  53.094  1.00  0.00    -0.208 F 
HETATM   12  C18 UNL     1      21.613   1.095  51.722  1.00  0.00     0.108 C 
HETATM   13  N1  UNL     1      24.075   4.909  49.031  1.00  0.00    -0.375 N 
HETATM   14  C19 UNL     1      23.358   5.065  50.263  1.00  0.00     0.133 A 
HETATM   15  N2  UNL     1      24.061   5.332  51.346  1.00  0.00    -0.224 NA
HETATM   16  C20 UNL     1      23.456   5.026  52.557  1.00  0.00     0.236 A 
HETATM   17  N3  UNL     1      22.206   4.477  52.342  1.00  0.00    -0.241 NA
HETATM   18  C21 UNL     1      21.754   4.329  51.053  1.00  0.00     0.078 A 
HETATM   19  C22 UNL     1      22.198   4.589  49.808  1.00  0.00     0.013 A 
HETATM   20  C23 UNL     1      21.332   4.343  48.677  1.00  0.00     0.055 C 
HETATM   21  H15 UNL     1      24.021   5.846  48.598  1.00  0.00     0.161 HD
ENDROOT
BRANCH   9  22
HETATM   22  O1  UNL     1      25.177   0.718  52.880  1.00  0.00    -0.346 OA
BRANCH  22  23
HETATM   23  C11 UNL     1      25.815  -0.499  52.790  1.00  0.00     0.215 C 
BRANCH  23  24
HETATM   24  C12 UNL     1      27.175  -0.499  53.439  1.00  0.00    -0.023 A 
HETATM   25  C13 UNL     1      28.283  -1.111  53.081  1.00  0.00    -0.017 A 
HETATM   26  C14 UNL     1      29.334  -0.763  53.815  1.00  0.00     0.013 A 
HETATM   27  C15 UNL     1      28.716   0.090  54.846  1.00  0.00     0.002 A 
HETATM   28  C16 UNL     1      27.409   0.277  54.660  1.00  0.00     0.010 A 
ENDBRANCH  23  24
ENDBRANCH  22  23
ENDBRANCH   9  22
BRANCH   1  29
HETATM   29  C2  UNL     1      19.671   2.791  52.233  1.00  0.00    -0.013 C 
HETATM   30  C1  UNL     1      18.751   3.424  51.487  1.00  0.00     0.032 C 
ENDBRANCH   1  29
TORSDOF 4
ENDMDL
MODEL 2
REMARK VINA RESULT:      -8.5      2.076      3.790
REMARK  4 active torsions:
REMARK  status: ('A' for Active; 'I' for Inactive)
REMARK    1  A    between atoms: C2_2  and  C3_3 
REMARK    2  A    between atoms: C10_11  and  O1_12 
REMARK    3  A    between atoms: O1_12  and  C11_13 
REMARK    4  A    between atoms: C11_13  and  C12_14 
ROOT
HETATM    1  C3  UNL     1      22.996   3.930  49.284  1.00  0.00    -0.007 C 
HETATM    2  C4  UNL     1      23.153   3.901  50.741  1.00  0.00    -0.056 C 
HETATM    3  C5  UNL     1      22.926   3.691  52.236  1.00  0.00     0.056 C 
HETATM    4  C6  UNL     1      21.740   3.072  52.337  1.00  0.00     0.053 C 
HETATM    5  C7  UNL     1      20.411   2.363  52.650  1.00  0.00     0.056 C 
HETATM    6  C8  UNL     1      20.900   0.881  52.801  1.00  0.00     0.103 C 
HETATM    7  C9  UNL     1      22.317   0.739  52.678  1.00  0.00     0.077 C 
HETATM    8 CL1  UNL     1      22.203  -1.043  52.949  1.00  0.00    -0.117 Cl
HETATM    9  C10 UNL     1      23.795   1.153  52.346  1.00  0.00     0.100 C 
HETATM   10  C17 UNL     1      24.562   2.177  51.853  1.00  0.00     0.128 C 
HETATM   11  F1  UNL     1      25.866   1.854  51.848  1.00  0.00    -0.208 F 
HETATM   12  C18 UNL     1      24.593   3.551  51.194  1.00  0.00     0.108 C 
HETATM   13  N1  UNL     1      19.439   2.479  51.565  1.00  0.00    -0.375 N 
HETATM   14  C19 UNL     1      20.257   2.323  50.397  1.00  0.00     0.133 A 
HETATM   15  N2  UNL     1      20.517   1.094  49.997  1.00  0.00    -0.224 NA
HETATM   16  C20 UNL     1      21.639   0.937  49.196  1.00  0.00     0.236 A 
HETATM   17  N3  UNL     1      22.263   2.156  49.003  1.00  0.00    -0.241 NA
HETATM   18  C21 UNL     1      21.722   3.281  49.576  1.00  0.00     0.078 A 
HETATM   19  C22 UNL     1      20.658   3.593  50.340  1.00  0.00     0.013 A 
HETATM   20  C23 UNL     1      20.399   4.978  50.669  1.00  0.00     0.055 C 
HETATM   21  H15 UNL     1      18.490   2.613  51.179  1.00  0.00     0.161 HD
ENDROOT
BRANCH   9  22
HETATM   22  O1  UNL     1      24.601   0.090  52.679  1.00  0.00    -0.346 OA
BRANCH  22  23
HETATM   23  C11 UNL     1      25.122  -0.276  53.900  1.00  0.00     0.215 C 
BRANCH  23  24
HETATM   24  C12 UNL     1      26.628  -0.306  53.912  1.00  0.00    -0.023 A 
HETATM   25  C13 UNL     1      27.480   0.270  54.733  1.00  0.00    -0.017 A 
HETATM   26  C14 UNL     1      28.739  -0.097  54.523  1.00  0.00     0.013 A 
HETATM   27  C15 UNL     1      28.618  -0.918  53.305  1.00  0.00     0.002 A 
HETATM   28  C16 UNL     1      27.358  -1.071  52.897  1.00  0.00     0.010 A 
ENDBRANCH  23  24
ENDBRANCH  22  23
ENDBRANCH   9  22
BRANCH   1  29
HETATM   29  C2  UNL     1      24.155   4.535  48.796  1.00  0.00    -0.013 C 
HETATM   30  C1  UNL     1      23.484   5.605  48.338  1.00  0.00     0.032 C 
ENDBRANCH   1  29
TORSDOF 4
ENDMDL
MODEL 3
REMARK VINA RESULT:      -8.3      1.908      2.618
REMARK  4 active torsions:
REMARK  status: ('A' for Active; 'I' for Inactive)
REMARK    1  A    between atoms: C2_2  and  C3_3 
REMARK    2  A    between atoms: C10_11  and  O1_12 
REMARK    3  A    between atoms: O1_12  and  C11_13 
REMARK    4  A    between atoms: C11_13  and  C12_14 
ROOT
HETATM    1  C3  UNL     1      20.028   1.029  52.707  1.00  0.00    -0.007 C 
HETATM    2  C4  UNL     1      21.042   0.532  51.772  1.00  0.00    -0.056 C 
HETATM    3  C5  UNL     1      21.986   0.370  50.583  1.00  0.00     0.056 C 
HETATM    4  C6  UNL     1      21.795   1.456  49.819  1.00  0.00     0.053 C 
HETATM    5  C7  UNL     1      21.713   2.626  48.823  1.00  0.00     0.056 C 
HETATM    6  C8  UNL     1      22.922   3.501  49.304  1.00  0.00     0.103 C 
HETATM    7  C9  UNL     1      23.661   2.905  50.372  1.00  0.00     0.077 C 
HETATM    8 CL1  UNL     1      24.807   4.300  50.413  1.00  0.00    -0.117 Cl
HETATM    9  C10 UNL     1      23.978   1.898  51.535  1.00  0.00     0.100 C 
HETATM   10  C17 UNL     1      23.472   0.827  52.226  1.00  0.00     0.128 C 
HETATM   11  F1  UNL     1      24.332   0.399  53.165  1.00  0.00    -0.208 F 
HETATM   12  C18 UNL     1      22.276  -0.083  52.479  1.00  0.00     0.108 C 
HETATM   13  N1  UNL     1      20.461   3.371  48.926  1.00  0.00    -0.375 N 
HETATM   14  C19 UNL     1      20.242   3.415  50.343  1.00  0.00     0.133 A 
HETATM   15  N2  UNL     1      20.838   4.376  51.021  1.00  0.00    -0.224 NA
HETATM   16  C20 UNL     1      21.007   4.151  52.379  1.00  0.00     0.236 A 
HETATM   17  N3  UNL     1      20.502   2.911  52.725  1.00  0.00    -0.241 NA
HETATM   18  C21 UNL     1      19.929   2.129  51.752  1.00  0.00     0.078 A 
HETATM   19  C22 UNL     1      19.676   2.211  50.431  1.00  0.00     0.013 A 
HETATM   20  C23 UNL     1      18.945   1.148  49.779  1.00  0.00     0.055 C 
HETATM   21  H15 UNL     1      19.649   3.879  48.539  1.00  0.00     0.161 HD
ENDROOT
BRANCH   9  22
HETATM   22  O1  UNL     1      25.222   2.219  52.026  1.00  0.00    -0.346 OA
BRANCH  22  23
HETATM   23  C11 UNL     1      26.472   1.922  51.529  1.00  0.00     0.215 C 
BRANCH  23  24
HETATM   24  C12 UNL     1      27.409   1.386  52.580  1.00  0.00    -0.023 A 
HETATM   25  C13 UNL     1      27.631   0.148  52.964  1.00  0.00    -0.017 A 
HETATM   26  C14 UNL     1      28.639   0.038  53.822  1.00  0.00     0.013 A 
HETATM   27  C15 UNL     1      28.976   1.450  54.078  1.00  0.00     0.002 A 
HETATM   28  C16 UNL     1      28.256   2.303  53.349  1.00  0.00     0.010 A 
ENDBRANCH  23  24
ENDBRANCH  22  23
ENDBRANCH   9  22
BRANCH   1  29
HETATM   29  C2  UNL     1      19.971   0.085  53.732  1.00  0.00    -0.013 C 
HETATM   30  C1  UNL     1      18.963  -0.584  53.150  1.00  0.00     0.032 C 
ENDBRANCH   1  29
TORSDOF 4
ENDMDL
MODEL 4
REMARK VINA RESULT:      -8.0      3.502      5.105
REMARK  4 active torsions:
REMARK  status: ('A' for Active; 'I' for Inactive)
REMARK    1  A    between atoms: C2_2  and  C3_3 
REMARK    2  A    between atoms: C10_11  and  O1_12 
REMARK    3  A    between atoms: O1_12  and  C11_13 
REMARK    4  A    between atoms: C11_13  and  C12_14 
ROOT
HETATM    1  C3  UNL     1      20.908   1.217  52.957  1.00  0.00    -0.007 C 
HETATM    2  C4  UNL     1      21.397   0.769  51.650  1.00  0.00    -0.056 C 
HETATM    3  C5  UNL     1      21.572   0.534  50.151  1.00  0.00     0.056 C 
HETATM    4  C6  UNL     1      20.608   1.256  49.559  1.00  0.00     0.053 C 
HETATM    5  C7  UNL     1      19.577   2.017  48.707  1.00  0.00     0.056 C 
HETATM    6  C8  UNL     1      20.405   3.291  48.320  1.00  0.00     0.103 C 
HETATM    7  C9  UNL     1      21.751   3.258  48.799  1.00  0.00     0.077 C 
HETATM    8 CL1  UNL     1      22.101   4.864  48.051  1.00  0.00    -0.117 Cl
HETATM    9  C10 UNL     1      22.984   2.759  49.634  1.00  0.00     0.100 C 
HETATM   10  C17 UNL     1      23.371   1.839  50.574  1.00  0.00     0.128 C 
HETATM   11  F1  UNL     1      24.677   1.955  50.865  1.00  0.00    -0.208 F 
HETATM   12  C18 UNL     1      22.944   0.749  51.551  1.00  0.00     0.108 C 
HETATM   13  N1  UNL     1      18.382   2.386  49.462  1.00  0.00    -0.375 N 
HETATM   14  C19 UNL     1      18.925   2.777  50.731  1.00  0.00     0.133 A 
HETATM   15  N2  UNL     1      19.351   4.019  50.853  1.00  0.00    -0.224 NA
HETATM   16  C20 UNL     1      20.266   4.253  51.870  1.00  0.00     0.236 A 
HETATM   17  N3  UNL     1      20.543   3.077  52.544  1.00  0.00    -0.241 NA
HETATM   18  C21 UNL     1      19.912   1.920  52.155  1.00  0.00     0.078 A 
HETATM   19  C22 UNL     1      19.009   1.543  51.230  1.00  0.00     0.013 A 
HETATM   20  C23 UNL     1      18.532   0.179  51.215  1.00  0.00     0.055 C 
HETATM   21  H15 UNL     1      17.364   2.517  49.583  1.00  0.00     0.161 HD
ENDROOT
BRANCH   9  22
HETATM   22  O1  UNL     1      24.060   3.537  49.278  1.00  0.00    -0.346 OA
BRANCH  22  23
HETATM   23  C11 UNL     1      24.599   4.640  49.904  1.00  0.00     0.215 C 
BRANCH  23  24
HETATM   24  C12 UNL     1      25.862   5.130  49.244  1.00  0.00    -0.023 A 
HETATM   25  C13 UNL     1      26.151   6.310  48.740  1.00  0.00    -0.017 A 
HETATM   26  C14 UNL     1      27.420   6.425  48.368  1.00  0.00     0.013 A 
HETATM   27  C15 UNL     1      27.921   5.054  48.568  1.00  0.00     0.002 A 
HETATM   28  C16 UNL     1      27.012   4.233  49.095  1.00  0.00     0.010 A 
ENDBRANCH  23  24
ENDBRANCH  22  23
ENDBRANCH   9  22
BRANCH   1  29
HETATM   29  C2  UNL     1      21.760   0.634  53.895  1.00  0.00    -0.013 C 
HETATM   30  C1  UNL     1      20.754  -0.015  54.504  1.00  0.00     0.032 C 
ENDBRANCH   1  29
TORSDOF 4
ENDMDL
MODEL 5
REMARK VINA RESULT:      -7.8      1.634      2.191
REMARK  4 active torsions:
REMARK  status: ('A' for Active; 'I' for Inactive)
REMARK    1  A    between atoms: C2_2  and  C3_3 
REMARK    2  A    between atoms: C10_11  and  O1_12 
REMARK    3  A    between atoms: O1_12  and  C11_13 
REMARK    4  A    between atoms: C11_13  and  C12_14 
ROOT
HETATM    1  C3  UNL     1      20.101   3.381  48.872  1.00  0.00    -0.007 C 
HETATM    2  C4  UNL     1      21.296   2.534  48.799  1.00  0.00    -0.056 C 
HETATM    3  C5  UNL     1      22.736   2.028  48.795  1.00  0.00     0.056 C 
HETATM    4  C6  UNL     1      23.496   3.100  49.067  1.00  0.00     0.053 C 
HETATM    5  C7  UNL     1      24.522   4.206  49.366  1.00  0.00     0.056 C 
HETATM    6  C8  UNL     1      24.745   3.988  50.902  1.00  0.00     0.103 C 
HETATM    7  C9  UNL     1      24.024   2.870  51.425  1.00  0.00     0.077 C 
HETATM    8 CL1  UNL     1      24.690   3.160  53.078  1.00  0.00    -0.117 Cl
HETATM    9  C10 UNL     1      22.975   1.701  51.450  1.00  0.00     0.100 C 
HETATM   10  C17 UNL     1      21.982   1.104  50.718  1.00  0.00     0.128 C 
HETATM   11  F1  UNL     1      21.452   0.057  51.372  1.00  0.00    -0.208 F 
HETATM   12  C18 UNL     1      21.105   1.151  49.471  1.00  0.00     0.108 C 
HETATM   13  N1  UNL     1      24.002   5.547  49.104  1.00  0.00    -0.375 N 
HETATM   14  C19 UNL     1      22.654   5.455  49.583  1.00  0.00     0.133 A 
HETATM   15  N2  UNL     1      22.451   5.658  50.870  1.00  0.00    -0.224 NA
HETATM   16  C20 UNL     1      21.281   5.128  51.395  1.00  0.00     0.236 A 
HETATM   17  N3  UNL     1      20.570   4.469  50.409  1.00  0.00    -0.241 NA
HETATM   18  C21 UNL     1      21.073   4.439  49.130  1.00  0.00     0.078 A 
HETATM   19  C22 UNL     1      22.151   4.910  48.475  1.00  0.00     0.013 A 
HETATM   20  C23 UNL     1      22.258   4.713  47.047  1.00  0.00     0.055 C 
HETATM   21  H15 UNL     1      24.073   6.519  48.762  1.00  0.00     0.161 HD
ENDROOT
BRANCH   9  22
HETATM   22  O1  UNL     1      23.122   1.047  52.650  1.00  0.00    -0.346 OA
BRANCH  22  23
HETATM   23  C11 UNL     1      23.691  -0.177  52.926  1.00  0.00     0.215 C 
BRANCH  23  24
HETATM   24  C12 UNL     1      25.162  -0.084  53.237  1.00  0.00    -0.023 A 
HETATM   25  C13 UNL     1      25.780  -0.022  54.398  1.00  0.00    -0.017 A 
HETATM   26  C14 UNL     1      27.102  -0.096  54.292  1.00  0.00     0.013 A 
HETATM   27  C15 UNL     1      27.292  -0.067  52.831  1.00  0.00     0.002 A 
HETATM   28  C16 UNL     1      26.145  -0.058  52.151  1.00  0.00     0.010 A 
ENDBRANCH  23  24
ENDBRANCH  22  23
ENDBRANCH   9  22
BRANCH   1  29
HETATM   29  C2  UNL     1      19.023   2.525  48.645  1.00  0.00    -0.013 C 
HETATM   30  C1  UNL     1      18.581   3.249  47.604  1.00  0.00     0.032 C 
ENDBRANCH   1  29
TORSDOF 4
ENDMDL
MODEL 6
REMARK VINA RESULT:      -7.8      3.495      5.124
REMARK  4 active torsions:
REMARK  status: ('A' for Active; 'I' for Inactive)
REMARK    1  A    between atoms: C2_2  and  C3_3 
REMARK    2  A    between atoms: C10_11  and  O1_12 
REMARK    3  A    between atoms: O1_12  and  C11_13 
REMARK    4  A    between atoms: C11_13  and  C12_14 
ROOT
HETATM    1  C3  UNL     1      24.860   3.862  49.420  1.00  0.00    -0.007 C 
HETATM    2  C4  UNL     1      24.253   4.623  50.516  1.00  0.00    -0.056 C 
HETATM    3  C5  UNL     1      23.346   5.529  51.346  1.00  0.00     0.056 C 
HETATM    4  C6  UNL     1      22.376   5.931  50.511  1.00  0.00     0.053 C 
HETATM    5  C7  UNL     1      21.190   6.492  49.708  1.00  0.00     0.056 C 
HETATM    6  C8  UNL     1      20.064   5.474  50.102  1.00  0.00     0.103 C 
HETATM    7  C9  UNL     1      20.492   4.502  51.058  1.00  0.00     0.077 C 
HETATM    8 CL1  UNL     1      18.856   3.738  51.075  1.00  0.00    -0.117 Cl
HETATM    9  C10 UNL     1      21.494   3.678  51.944  1.00  0.00     0.100 C 
HETATM   10  C17 UNL     1      22.826   3.511  52.226  1.00  0.00     0.128 C 
HETATM   11  F1  UNL     1      23.013   2.573  53.169  1.00  0.00    -0.208 F 
HETATM   12  C18 UNL     1      24.265   3.865  51.867  1.00  0.00     0.108 C 
HETATM   13  N1  UNL     1      21.423   6.473  48.265  1.00  0.00    -0.375 N 
HETATM   14  C19 UNL     1      22.088   5.216  48.076  1.00  0.00     0.133 A 
HETATM   15  N2  UNL     1      21.334   4.143  47.941  1.00  0.00    -0.224 NA
HETATM   16  C20 UNL     1      21.944   2.929  48.222  1.00  0.00     0.236 A 
HETATM   17  N3  UNL     1      23.256   3.131  48.609  1.00  0.00    -0.241 NA
HETATM   18  C21 UNL     1      23.751   4.412  48.648  1.00  0.00     0.078 A 
HETATM   19  C22 UNL     1      23.306   5.658  48.391  1.00  0.00     0.013 A 
HETATM   20  C23 UNL     1      24.221   6.774  48.485  1.00  0.00     0.055 C 
HETATM   21  H15 UNL     1      21.373   6.867  47.312  1.00  0.00     0.161 HD
ENDROOT
BRANCH   9  22
HETATM   22  O1  UNL     1      20.747   2.819  52.714  1.00  0.00    -0.346 OA
BRANCH  22  23
HETATM   23  C11 UNL     1      20.260   1.564  52.420  1.00  0.00     0.215 C 
BRANCH  23  24
HETATM   24  C12 UNL     1      21.004   0.464  53.132  1.00  0.00    -0.023 A 
HETATM   25  C13 UNL     1      21.855  -0.423  52.662  1.00  0.00    -0.017 A 
HETATM   26  C14 UNL     1      22.428  -1.153  53.613  1.00  0.00     0.013 A 
HETATM   27  C15 UNL     1      21.702  -0.709  54.816  1.00  0.00     0.002 A 
HETATM   28  C16 UNL     1      20.828   0.268  54.573  1.00  0.00     0.010 A 
ENDBRANCH  23  24
ENDBRANCH  22  23
ENDBRANCH   9  22
BRANCH   1  29
HETATM   29  C2  UNL     1      25.977   3.237  49.974  1.00  0.00    -0.013 C 
HETATM   30  C1  UNL     1      26.834   4.024  49.303  1.00  0.00     0.032 C 
ENDBRANCH   1  29
TORSDOF 4
ENDMDL
MODEL 7
REMARK VINA RESULT:      -7.7      3.149      4.577
REMARK  4 active torsions:
REMARK  status: ('A' for Active; 'I' for Inactive)
REMARK    1  A    between atoms: C2_2  and  C3_3 
REMARK    2  A    between atoms: C10_11  and  O1_12 
REMARK    3  A    between atoms: O1_12  and  C11_13 
REMARK    4  A    between atoms: C11_13  and  C12_14 
ROOT
HETATM    1  C3  UNL     1      22.049   4.639  47.172  1.00  0.00    -0.007 C 
HETATM    2  C4  UNL     1      22.862   3.794  48.053  1.00  0.00    -0.056 C 
HETATM    3  C5  UNL     1      23.648   3.244  49.240  1.00  0.00     0.056 C 
HETATM    4  C6  UNL     1      23.511   4.154  50.217  1.00  0.00     0.053 C 
HETATM    5  C7  UNL     1      23.466   5.077  51.447  1.00  0.00     0.056 C 
HETATM    6  C8  UNL     1      22.305   4.412  52.266  1.00  0.00     0.103 C 
HETATM    7  C9  UNL     1      21.792   3.225  51.656  1.00  0.00     0.077 C 
HETATM    8 CL1  UNL     1      20.615   2.992  53.005  1.00  0.00    -0.117 Cl
HETATM    9  C10 UNL     1      21.564   2.150  50.534  1.00  0.00     0.100 C 
HETATM   10  C17 UNL     1      21.876   1.838  49.235  1.00  0.00     0.128 C 
HETATM   11  F1  UNL     1      21.320   0.673  48.865  1.00  0.00    -0.208 F 
HETATM   12  C18 UNL     1      22.527   2.286  47.932  1.00  0.00     0.108 C 
HETATM   13  N1  UNL     1      23.133   6.458  51.107  1.00  0.00    -0.375 N 
HETATM   14  C19 UNL     1      22.123   6.295  50.101  1.00  0.00     0.133 A 
HETATM   15  N2  UNL     1      20.881   6.125  50.508  1.00  0.00    -0.224 NA
HETATM   16  C20 UNL     1      20.020   5.521  49.603  1.00  0.00     0.236 A 
HETATM   17  N3  UNL     1      20.692   5.210  48.436  1.00  0.00    -0.241 NA
HETATM   18  C21 UNL     1      22.024   5.529  48.328  1.00  0.00     0.078 A 
HETATM   19  C22 UNL     1      22.970   6.119  49.085  1.00  0.00     0.013 A 
HETATM   20  C23 UNL     1      24.288   6.340  48.534  1.00  0.00     0.055 C 
HETATM   21  H15 UNL     1      23.227   7.484  51.191  1.00  0.00     0.161 HD
ENDROOT
BRANCH   9  22
HETATM   22  O1  UNL     1      20.761   1.170  51.065  1.00  0.00    -0.346 OA
BRANCH  22  23
HETATM   23  C11 UNL     1      21.047  -0.146  51.358  1.00  0.00     0.215 C 
BRANCH  23  24
HETATM   24  C12 UNL     1      21.630  -0.327  52.736  1.00  0.00    -0.023 A 
HETATM   25  C13 UNL     1      21.038  -0.622  53.873  1.00  0.00    -0.017 A 
HETATM   26  C14 UNL     1      21.892  -0.845  54.866  1.00  0.00     0.013 A 
HETATM   27  C15 UNL     1      23.181  -0.501  54.240  1.00  0.00     0.002 A 
HETATM   28  C16 UNL     1      23.072  -0.179  52.951  1.00  0.00     0.010 A 
ENDBRANCH  23  24
ENDBRANCH  22  23
ENDBRANCH   9  22
BRANCH   1  29
HETATM   29  C2  UNL     1      21.949   3.938  45.970  1.00  0.00    -0.013 C 
HETATM   30  C1  UNL     1      22.028   5.058  45.233  1.00  0.00     0.032 C 
ENDBRANCH   1  29
TORSDOF 4
ENDMDL
MODEL 8
REMARK VINA RESULT:      -7.6      7.088      8.706
REMARK  4 active torsions:
REMARK  status: ('A' for Active; 'I' for Inactive)
REMARK    1  A    between atoms: C2_2  and  C3_3 
REMARK    2  A    between atoms: C10_11  and  O1_12 
REMARK    3  A    between atoms: O1_12  and  C11_13 
REMARK    4  A    between atoms: C11_13  and  C12_14 
ROOT
HETATM    1  C3  UNL     1      26.379   6.536  48.889  1.00  0.00    -0.007 C 
HETATM    2  C4  UNL     1      27.429   6.710  47.881  1.00  0.00    -0.056 C 
HETATM    3  C5  UNL     1      28.391   7.301  46.853  1.00  0.00     0.056 C 
HETATM    4  C6  UNL     1      28.142   8.619  46.843  1.00  0.00     0.053 C 
HETATM    5  C7  UNL     1      28.001  10.144  46.693  1.00  0.00     0.056 C 
HETATM    6  C8  UNL     1      29.151  10.636  47.639  1.00  0.00     0.103 C 
HETATM    7  C9  UNL     1      29.915   9.568  48.203  1.00  0.00     0.077 C 
HETATM    8 CL1  UNL     1      30.975  10.735  49.083  1.00  0.00    -0.117 Cl
HETATM    9  C10 UNL     1      30.280   8.090  48.591  1.00  0.00     0.100 C 
HETATM   10  C17 UNL     1      29.832   6.796  48.522  1.00  0.00     0.128 C 
HETATM   11  F1  UNL     1      30.707   5.944  49.082  1.00  0.00    -0.208 F 
HETATM   12  C18 UNL     1      28.690   5.854  48.159  1.00  0.00     0.108 C 
HETATM   13  N1  UNL     1      26.706  10.640  47.153  1.00  0.00    -0.375 N 
HETATM   14  C19 UNL     1      26.472   9.853  48.329  1.00  0.00     0.133 A 
HETATM   15  N2  UNL     1      27.003  10.276  49.459  1.00  0.00    -0.224 NA
HETATM   16  C20 UNL     1      27.173   9.319  50.449  1.00  0.00     0.236 A 
HETATM   17  N3  UNL     1      26.739   8.085  50.001  1.00  0.00    -0.241 NA
HETATM   18  C21 UNL     1      26.223   7.979  48.733  1.00  0.00     0.078 A 
HETATM   19  C22 UNL     1      25.978   8.793  47.688  1.00  0.00     0.013 A 
HETATM   20  C23 UNL     1      25.317   8.267  46.515  1.00  0.00     0.055 C 
HETATM   21  H15 UNL     1      25.868  11.243  47.094  1.00  0.00     0.161 HD
ENDROOT
BRANCH   9  22
HETATM   22  O1  UNL     1      31.498   8.125  49.228  1.00  0.00    -0.346 OA
BRANCH  22  23
HETATM   23  C11 UNL     1      32.757   8.353  48.717  1.00  0.00     0.215 C 
BRANCH  23  24
HETATM   24  C12 UNL     1      33.390   7.113  48.140  1.00  0.00    -0.023 A 
HETATM   25  C13 UNL     1      34.156   6.209  48.712  1.00  0.00    -0.017 A 
HETATM   26  C14 UNL     1      34.413   5.168  47.928  1.00  0.00     0.013 A 
HETATM   27  C15 UNL     1      33.807   5.591  46.653  1.00  0.00     0.002 A 
HETATM   28  C16 UNL     1      33.177   6.764  46.732  1.00  0.00     0.010 A 
ENDBRANCH  23  24
ENDBRANCH  22  23
ENDBRANCH   9  22
BRANCH   1  29
HETATM   29  C2  UNL     1      26.368   5.173  49.186  1.00  0.00    -0.013 C 
HETATM   30  C1  UNL     1      25.035   5.084  49.045  1.00  0.00     0.032 C 
ENDBRANCH   1  29
TORSDOF 4
ENDMDL
MODEL 9
REMARK VINA RESULT:      -7.6      3.526      5.944
REMARK  4 active torsions:
REMARK  status: ('A' for Active; 'I' for Inactive)
REMARK    1  A    between atoms: C2_2  and  C3_3 
REMARK    2  A    between atoms: C10_11  and  O1_12 
REMARK    3  A    between atoms: O1_12  and  C11_13 
REMARK    4  A    between atoms: C11_13  and  C12_14 
ROOT
HETATM    1  C3  UNL     1      24.706   1.907  51.978  1.00  0.00    -0.007 C 
HETATM    2  C4  UNL     1      24.611   2.360  50.586  1.00  0.00    -0.056 C 
HETATM    3  C5  UNL     1      24.148   3.006  49.283  1.00  0.00     0.056 C 
HETATM    4  C6  UNL     1      23.015   3.658  49.586  1.00  0.00     0.053 C 
HETATM    5  C7  UNL     1      21.712   4.461  49.743  1.00  0.00     0.056 C 
HETATM    6  C8  UNL     1      22.284   5.909  49.932  1.00  0.00     0.103 C 
HETATM    7  C9  UNL     1      23.708   5.972  49.822  1.00  0.00     0.077 C 
HETATM    8 CL1  UNL     1      23.691   7.757  50.095  1.00  0.00    -0.117 Cl
HETATM    9  C10 UNL     1      25.184   5.442  49.740  1.00  0.00     0.100 C 
HETATM   10  C17 UNL     1      25.941   4.298  49.767  1.00  0.00     0.128 C 
HETATM   11  F1  UNL     1      27.247   4.573  49.620  1.00  0.00    -0.208 F 
HETATM   12  C18 UNL     1      25.975   2.791  49.991  1.00  0.00     0.108 C 
HETATM   13  N1  UNL     1      20.935   4.056  50.913  1.00  0.00    -0.375 N 
HETATM   14  C19 UNL     1      21.952   3.840  51.901  1.00  0.00     0.133 A 
HETATM   15  N2  UNL     1      22.373   4.890  52.579  1.00  0.00    -0.224 NA
HETATM   16  C20 UNL     1      23.625   4.776  53.166  1.00  0.00     0.236 A 
HETATM   17  N3  UNL     1      24.174   3.539  52.884  1.00  0.00    -0.241 NA
HETATM   18  C21 UNL     1      23.456   2.646  52.126  1.00  0.00     0.078 A 
HETATM   19  C22 UNL     1      22.254   2.600  51.518  1.00  0.00     0.013 A 
HETATM   20  C23 UNL     1      21.834   1.381  50.864  1.00  0.00     0.055 C 
HETATM   21  H15 UNL     1      20.059   3.838  51.415  1.00  0.00     0.161 HD
ENDROOT
BRANCH   9  22
HETATM   22  O1  UNL     1      26.002   6.534  49.578  1.00  0.00    -0.346 OA
BRANCH  22  23
HETATM   23  C11 UNL     1      26.378   7.195  48.429  1.00  0.00     0.215 C 
BRANCH  23  24
HETATM   24  C12 UNL     1      27.842   7.550  48.408  1.00  0.00    -0.023 A 
HETATM   25  C13 UNL     1      28.471   8.579  48.933  1.00  0.00    -0.017 A 
HETATM   26  C14 UNL     1      29.793   8.489  48.839  1.00  0.00     0.013 A 
HETATM   27  C15 UNL     1      29.957   7.278  48.016  1.00  0.00     0.002 A 
HETATM   28  C16 UNL     1      28.803   6.676  47.728  1.00  0.00     0.010 A 
ENDBRANCH  23  24
ENDBRANCH  22  23
ENDBRANCH   9  22
BRANCH   1  29
HETATM   29  C2  UNL     1      25.879   1.157  52.047  1.00  0.00    -0.013 C 
HETATM   30  C1  UNL     1      25.287   0.171  52.741  1.00  0.00     0.032 C 
ENDBRANCH   1  29
TORSDOF 4
ENDMDL
