MODEL 1
REMARK VINA RESULT:      -7.0      0.000      0.000
REMARK  9 active torsions:
REMARK  status: ('A' for Active; 'I' for Inactive)
REMARK    1  A    between atoms: C2_2  and  C3_3 
REMARK    2  A    between atoms: C3_3  and  C4_4 
REMARK    3  A    between atoms: C4_4  and  C5_5 
REMARK    4  A    between atoms: C7_7  and  N1_8 
REMARK    5  A    between atoms: N1_8  and  C8_9 
REMARK    6  A    between atoms: C9_10  and  C10_11 
REMARK    7  A    between atoms: C10_11  and  C11_12 
REMARK    8  A    between atoms: C11_12  and  O1_13 
REMARK    9  A    between atoms: O1_13  and  C12_14 
ROOT
HETATM    1  C8  UNL     1      26.022   2.998  51.161  1.00  0.00     0.090 C 
HETATM    2  C9  UNL     1      26.063   3.531  49.954  1.00  0.00     0.019 C 
ENDROOT
BRANCH   1   3
HETATM    3  N1  UNL     1      27.186   2.688  51.917  1.00  0.00    -0.351 N 
HETATM    4  H11 UNL     1      28.186   3.000  51.991  1.00  0.00     0.166 HD
BRANCH   3   5
HETATM    5  C7  UNL     1      27.211   1.685  52.925  1.00  0.00     0.130 A 
HETATM    6  C6  UNL     1      26.117   0.918  53.305  1.00  0.00     0.077 A 
HETATM    7  C5  UNL     1      26.206  -0.046  54.298  1.00  0.00     0.039 A 
HETATM    8  N3  UNL     1      27.402  -0.232  54.903  1.00  0.00    -0.246 NA
HETATM    9  C19 UNL     1      28.453   0.516  54.527  1.00  0.00     0.235 A 
HETATM   10  N2  UNL     1      28.394   1.458  53.567  1.00  0.00    -0.224 NA
BRANCH   7  11
HETATM   11  C4  UNL     1      24.894  -0.712  54.498  1.00  0.00     0.059 C 
BRANCH  11  12
HETATM   12  C3  UNL     1      23.821  -0.246  53.567  1.00  0.00     0.006 C 
BRANCH  12  13
HETATM   13  C2  UNL     1      22.565  -1.057  53.647  1.00  0.00    -0.004 C 
HETATM   14  C1  UNL     1      21.696  -0.525  54.766  1.00  0.00     0.005 C 
ENDBRANCH  12  13
ENDBRANCH  11  12
ENDBRANCH   7  11
ENDBRANCH   3   5
ENDBRANCH   1   3
BRANCH   2  15
HETATM   15  C10 UNL     1      24.814   3.809  49.267  1.00  0.00     0.025 C 
BRANCH  15  16
HETATM   16  C11 UNL     1      23.661   3.900  49.891  1.00  0.00     0.136 C 
BRANCH  16  17
HETATM   17  O1  UNL     1      22.402   3.783  50.432  1.00  0.00    -0.351 OA
BRANCH  17  18
HETATM   18  C12 UNL     1      22.221   2.736  51.372  1.00  0.00     0.188 A 
HETATM   19  C13 UNL     1      21.975   1.444  50.701  1.00  0.00     0.009 A 
HETATM   20  C14 UNL     1      21.049   0.504  50.740  1.00  0.00     0.005 A 
HETATM   21  C15 UNL     1      19.977   0.784  51.680  1.00  0.00    -0.063 A 
HETATM   22  C16 UNL     1      18.852  -0.161  51.856  1.00  0.00     0.048 C 
HETATM   23  C17 UNL     1      20.126   1.924  52.318  1.00  0.00     0.019 A 
HETATM   24  C18 UNL     1      21.115   3.022  52.336  1.00  0.00     0.226 A 
HETATM   25  F1  UNL     1      20.478   4.175  51.890  1.00  0.00    -0.242 F 
ENDBRANCH  17  18
ENDBRANCH  16  17
ENDBRANCH  15  16
ENDBRANCH   2  15
TORSDOF 9
ENDMDL
MODEL 2
REMARK VINA RESULT:      -6.6      1.534      4.108
REMARK  9 active torsions:
REMARK  status: ('A' for Active; 'I' for Inactive)
REMARK    1  A    between atoms: C2_2  and  C3_3 
REMARK    2  A    between atoms: C3_3  and  C4_4 
REMARK    3  A    between atoms: C4_4  and  C5_5 
REMARK    4  A    between atoms: C7_7  and  N1_8 
REMARK    5  A    between atoms: N1_8  and  C8_9 
REMARK    6  A    between atoms: C9_10  and  C10_11 
REMARK    7  A    between atoms: C10_11  and  C11_12 
REMARK    8  A    between atoms: C11_12  and  O1_13 
REMARK    9  A    between atoms: O1_13  and  C12_14 
ROOT
HETATM    1  C8  UNL     1      23.840  -0.635  54.854  1.00  0.00     0.090 C 
HETATM    2  C9  UNL     1      22.834  -1.488  54.822  1.00  0.00     0.019 C 
ENDROOT
BRANCH   1   3
HETATM    3  N1  UNL     1      25.205  -1.038  54.891  1.00  0.00    -0.351 N 
HETATM    4  H11 UNL     1      25.780  -1.844  55.237  1.00  0.00     0.166 HD
BRANCH   3   5
HETATM    5  C7  UNL     1      26.259  -0.253  54.349  1.00  0.00     0.130 A 
HETATM    6  C6  UNL     1      26.115   0.656  53.308  1.00  0.00     0.077 A 
HETATM    7  C5  UNL     1      27.185   1.392  52.823  1.00  0.00     0.039 A 
HETATM    8  N3  UNL     1      28.399   1.207  53.392  1.00  0.00    -0.246 NA
HETATM    9  C19 UNL     1      28.526   0.325  54.398  1.00  0.00     0.235 A 
HETATM   10  N2  UNL     1      27.504  -0.403  54.888  1.00  0.00    -0.224 NA
BRANCH   7  11
HETATM   11  C4  UNL     1      26.748   2.283  51.718  1.00  0.00     0.059 C 
BRANCH  11  12
HETATM   12  C3  UNL     1      25.309   2.133  51.343  1.00  0.00     0.006 C 
BRANCH  12  13
HETATM   13  C2  UNL     1      24.534   3.412  51.420  1.00  0.00    -0.004 C 
HETATM   14  C1  UNL     1      23.708   3.422  52.688  1.00  0.00     0.005 C 
ENDBRANCH  12  13
ENDBRANCH  11  12
ENDBRANCH   7  11
ENDBRANCH   3   5
ENDBRANCH   1   3
BRANCH   2  15
HETATM   15  C10 UNL     1      21.478  -0.972  54.785  1.00  0.00     0.025 C 
BRANCH  15  16
HETATM   16  C11 UNL     1      21.140   0.100  54.104  1.00  0.00     0.136 C 
BRANCH  16  17
HETATM   17  O1  UNL     1      20.653   1.279  53.590  1.00  0.00    -0.351 OA
BRANCH  17  18
HETATM   18  C12 UNL     1      20.218   1.240  52.240  1.00  0.00     0.188 A 
HETATM   19  C13 UNL     1      21.183   0.525  51.381  1.00  0.00     0.009 A 
HETATM   20  C14 UNL     1      21.857   0.782  50.276  1.00  0.00     0.005 A 
HETATM   21  C15 UNL     1      21.605   2.108  49.737  1.00  0.00    -0.063 A 
HETATM   22  C16 UNL     1      22.275   2.568  48.502  1.00  0.00     0.048 C 
HETATM   23  C17 UNL     1      20.753   2.809  50.453  1.00  0.00     0.019 A 
HETATM   24  C18 UNL     1      19.963   2.604  51.686  1.00  0.00     0.226 A 
HETATM   25  F1  UNL     1      20.413   3.517  52.634  1.00  0.00    -0.242 F 
ENDBRANCH  17  18
ENDBRANCH  16  17
ENDBRANCH  15  16
ENDBRANCH   2  15
TORSDOF 9
ENDMDL
MODEL 3
REMARK VINA RESULT:      -6.5      3.328      7.362
REMARK  9 active torsions:
REMARK  status: ('A' for Active; 'I' for Inactive)
REMARK    1  A    between atoms: C2_2  and  C3_3 
REMARK    2  A    between atoms: C3_3  and  C4_4 
REMARK    3  A    between atoms: C4_4  and  C5_5 
REMARK    4  A    between atoms: C7_7  and  N1_8 
REMARK    5  A    between atoms: N1_8  and  C8_9 
REMARK    6  A    between atoms: C9_10  and  C10_11 
REMARK    7  A    between atoms: C10_11  and  C11_12 
REMARK    8  A    between atoms: C11_12  and  O1_13 
REMARK    9  A    between atoms: O1_13  and  C12_14 
ROOT
HETATM    1  C8  UNL     1      23.130   1.365  51.117  1.00  0.00     0.090 C 
HETATM    2  C9  UNL     1      22.012   0.956  51.688  1.00  0.00     0.019 C 
ENDROOT
BRANCH   1   3
HETATM    3  N1  UNL     1      23.169   2.356  50.097  1.00  0.00    -0.351 N 
HETATM    4  H11 UNL     1      22.916   2.456  49.083  1.00  0.00     0.166 HD
BRANCH   3   5
HETATM    5  C7  UNL     1      23.664   3.672  50.313  1.00  0.00     0.130 A 
HETATM    6  C6  UNL     1      24.551   4.332  49.472  1.00  0.00     0.077 A 
HETATM    7  C5  UNL     1      24.997   5.617  49.739  1.00  0.00     0.039 A 
HETATM    8  N3  UNL     1      24.545   6.232  50.857  1.00  0.00    -0.246 NA
HETATM    9  C19 UNL     1      23.688   5.583  51.663  1.00  0.00     0.235 A 
HETATM   10  N2  UNL     1      23.239   4.335  51.427  1.00  0.00    -0.224 NA
BRANCH   7  11
HETATM   11  C4  UNL     1      25.931   6.077  48.679  1.00  0.00     0.059 C 
BRANCH  11  12
HETATM   12  C3  UNL     1      27.247   5.369  48.673  1.00  0.00     0.006 C 
BRANCH  12  13
HETATM   13  C2  UNL     1      28.374   6.206  48.153  1.00  0.00    -0.004 C 
HETATM   14  C1  UNL     1      29.643   5.381  48.128  1.00  0.00     0.005 C 
ENDBRANCH  12  13
ENDBRANCH  11  12
ENDBRANCH   7  11
ENDBRANCH   3   5
ENDBRANCH   1   3
BRANCH   2  15
HETATM   15  C10 UNL     1      22.084  -0.062  52.720  1.00  0.00     0.025 C 
BRANCH  15  16
HETATM   16  C11 UNL     1      23.148  -0.246  53.469  1.00  0.00     0.136 C 
BRANCH  16  17
HETATM   17  O1  UNL     1      24.326  -0.602  54.082  1.00  0.00    -0.351 OA
BRANCH  17  18
HETATM   18  C12 UNL     1      25.455   0.202  53.780  1.00  0.00     0.188 A 
HETATM   19  C13 UNL     1      26.244  -0.368  52.669  1.00  0.00     0.009 A 
HETATM   20  C14 UNL     1      27.499  -0.726  52.469  1.00  0.00     0.005 A 
HETATM   21  C15 UNL     1      28.354  -0.517  53.625  1.00  0.00    -0.063 A 
HETATM   22  C16 UNL     1      29.791  -0.862  53.582  1.00  0.00     0.048 C 
HETATM   23  C17 UNL     1      27.719  -0.011  54.659  1.00  0.00     0.019 A 
HETATM   24  C18 UNL     1      26.337   0.413  54.969  1.00  0.00     0.226 A 
HETATM   25  F1  UNL     1      25.856  -0.411  55.980  1.00  0.00    -0.242 F 
ENDBRANCH  17  18
ENDBRANCH  16  17
ENDBRANCH  15  16
ENDBRANCH   2  15
TORSDOF 9
ENDMDL
MODEL 4
REMARK VINA RESULT:      -6.5      2.223      5.022
REMARK  9 active torsions:
REMARK  status: ('A' for Active; 'I' for Inactive)
REMARK    1  A    between atoms: C2_2  and  C3_3 
REMARK    2  A    between atoms: C3_3  and  C4_4 
REMARK    3  A    between atoms: C4_4  and  C5_5 
REMARK    4  A    between atoms: C7_7  and  N1_8 
REMARK    5  A    between atoms: N1_8  and  C8_9 
REMARK    6  A    between atoms: C9_10  and  C10_11 
REMARK    7  A    between atoms: C10_11  and  C11_12 
REMARK    8  A    between atoms: C11_12  and  O1_13 
REMARK    9  A    between atoms: O1_13  and  C12_14 
ROOT
HETATM    1  C8  UNL     1      21.755   1.143  52.173  1.00  0.00     0.090 C 
HETATM    2  C9  UNL     1      20.845   1.870  52.794  1.00  0.00     0.019 C 
ENDROOT
BRANCH   1   3
HETATM    3  N1  UNL     1      22.097  -0.182  52.565  1.00  0.00    -0.351 N 
HETATM    4  H11 UNL     1      21.777  -1.165  52.386  1.00  0.00     0.166 HD
BRANCH   3   5
HETATM    5  C7  UNL     1      23.162  -0.475  53.461  1.00  0.00     0.130 A 
HETATM    6  C6  UNL     1      24.499  -0.184  53.222  1.00  0.00     0.077 A 
HETATM    7  C5  UNL     1      25.493  -0.496  54.137  1.00  0.00     0.039 A 
HETATM    8  N3  UNL     1      25.131  -1.102  55.292  1.00  0.00    -0.246 NA
HETATM    9  C19 UNL     1      23.835  -1.378  55.511  1.00  0.00     0.235 A 
HETATM   10  N2  UNL     1      22.850  -1.086  54.640  1.00  0.00    -0.224 NA
BRANCH   7  11
HETATM   11  C4  UNL     1      26.823  -0.073  53.628  1.00  0.00     0.059 C 
BRANCH  11  12
HETATM   12  C3  UNL     1      26.796   0.509  52.252  1.00  0.00     0.006 C 
BRANCH  12  13
HETATM   13  C2  UNL     1      27.187   1.953  52.205  1.00  0.00    -0.004 C 
HETATM   14  C1  UNL     1      28.095   2.266  53.375  1.00  0.00     0.005 C 
ENDBRANCH  12  13
ENDBRANCH  11  12
ENDBRANCH   7  11
ENDBRANCH   3   5
ENDBRANCH   1   3
BRANCH   2  15
HETATM   15  C10 UNL     1      20.572   3.212  52.313  1.00  0.00     0.025 C 
BRANCH  15  16
HETATM   16  C11 UNL     1      21.521   4.062  51.990  1.00  0.00     0.136 C 
BRANCH  16  17
HETATM   17  O1  UNL     1      22.356   5.123  51.729  1.00  0.00    -0.351 OA
BRANCH  17  18
HETATM   18  C12 UNL     1      22.941   5.155  50.437  1.00  0.00     0.188 A 
HETATM   19  C13 UNL     1      23.556   3.858  50.089  1.00  0.00     0.009 A 
HETATM   20  C14 UNL     1      24.742   3.434  49.696  1.00  0.00     0.005 A 
HETATM   21  C15 UNL     1      25.723   4.496  49.560  1.00  0.00    -0.063 A 
HETATM   22  C16 UNL     1      27.107   4.204  49.128  1.00  0.00     0.048 C 
HETATM   23  C17 UNL     1      25.248   5.686  49.856  1.00  0.00     0.019 A 
HETATM   24  C18 UNL     1      23.954   6.246  50.299  1.00  0.00     0.226 A 
HETATM   25  F1  UNL     1      24.138   6.790  51.565  1.00  0.00    -0.242 F 
ENDBRANCH  17  18
ENDBRANCH  16  17
ENDBRANCH  15  16
ENDBRANCH   2  15
TORSDOF 9
ENDMDL
MODEL 5
REMARK VINA RESULT:      -6.4      2.784      5.328
REMARK  9 active torsions:
REMARK  status: ('A' for Active; 'I' for Inactive)
REMARK    1  A    between atoms: C2_2  and  C3_3 
REMARK    2  A    between atoms: C3_3  and  C4_4 
REMARK    3  A    between atoms: C4_4  and  C5_5 
REMARK    4  A    between atoms: C7_7  and  N1_8 
REMARK    5  A    between atoms: N1_8  and  C8_9 
REMARK    6  A    between atoms: C9_10  and  C10_11 
REMARK    7  A    between atoms: C10_11  and  C11_12 
REMARK    8  A    between atoms: C11_12  and  O1_13 
REMARK    9  A    between atoms: O1_13  and  C12_14 
ROOT
HETATM    1  C8  UNL     1      27.020   2.126  52.030  1.00  0.00     0.090 C 
HETATM    2  C9  UNL     1      27.657   2.180  53.185  1.00  0.00     0.019 C 
ENDROOT
BRANCH   1   3
HETATM    3  N1  UNL     1      26.816   3.261  51.197  1.00  0.00    -0.351 N 
HETATM    4  H11 UNL     1      27.361   4.080  50.831  1.00  0.00     0.166 HD
BRANCH   3   5
HETATM    5  C7  UNL     1      25.570   3.554  50.577  1.00  0.00     0.130 A 
HETATM    6  C6  UNL     1      24.549   2.633  50.378  1.00  0.00     0.077 A 
HETATM    7  C5  UNL     1      23.355   2.981  49.766  1.00  0.00     0.039 A 
HETATM    8  N3  UNL     1      23.197   4.261  49.355  1.00  0.00    -0.246 NA
HETATM    9  C19 UNL     1      24.191   5.143  49.553  1.00  0.00     0.235 A 
HETATM   10  N2  UNL     1      25.360   4.831  50.145  1.00  0.00    -0.224 NA
BRANCH   7  11
HETATM   11  C4  UNL     1      22.448   1.808  49.685  1.00  0.00     0.059 C 
BRANCH  11  12
HETATM   12  C3  UNL     1      21.071   2.061  50.208  1.00  0.00     0.006 C 
BRANCH  12  13
HETATM   13  C2  UNL     1      20.225   0.828  50.288  1.00  0.00    -0.004 C 
HETATM   14  C1  UNL     1      18.787   1.222  50.548  1.00  0.00     0.005 C 
ENDBRANCH  12  13
ENDBRANCH  11  12
ENDBRANCH   7  11
ENDBRANCH   3   5
ENDBRANCH   1   3
BRANCH   2  15
HETATM   15  C10 UNL     1      27.811   0.962  53.959  1.00  0.00     0.025 C 
BRANCH  15  16
HETATM   16  C11 UNL     1      26.790   0.291  54.445  1.00  0.00     0.136 C 
BRANCH  16  17
HETATM   17  O1  UNL     1      25.869  -0.450  55.147  1.00  0.00    -0.351 OA
BRANCH  17  18
HETATM   18  C12 UNL     1      24.785  -0.973  54.397  1.00  0.00     0.188 A 
HETATM   19  C13 UNL     1      24.241   0.029  53.459  1.00  0.00     0.009 A 
HETATM   20  C14 UNL     1      23.062   0.564  53.204  1.00  0.00     0.005 A 
HETATM   21  C15 UNL     1      21.998   0.055  54.052  1.00  0.00    -0.063 A 
HETATM   22  C16 UNL     1      20.609   0.542  53.907  1.00  0.00     0.048 C 
HETATM   23  C17 UNL     1      22.407  -0.845  54.919  1.00  0.00     0.019 A 
HETATM   24  C18 UNL     1      23.688  -1.494  55.269  1.00  0.00     0.226 A 
HETATM   25  F1  UNL     1      24.004  -1.132  56.574  1.00  0.00    -0.242 F 
ENDBRANCH  17  18
ENDBRANCH  16  17
ENDBRANCH  15  16
ENDBRANCH   2  15
TORSDOF 9
ENDMDL
MODEL 6
REMARK VINA RESULT:      -6.4      3.506      7.180
REMARK  9 active torsions:
REMARK  status: ('A' for Active; 'I' for Inactive)
REMARK    1  A    between atoms: C2_2  and  C3_3 
REMARK    2  A    between atoms: C3_3  and  C4_4 
REMARK    3  A    between atoms: C4_4  and  C5_5 
REMARK    4  A    between atoms: C7_7  and  N1_8 
REMARK    5  A    between atoms: N1_8  and  C8_9 
REMARK    6  A    between atoms: C9_10  and  C10_11 
REMARK    7  A    between atoms: C10_11  and  C11_12 
REMARK    8  A    between atoms: C11_12  and  O1_13 
REMARK    9  A    between atoms: O1_13  and  C12_14 
ROOT
HETATM    1  C8  UNL     1      21.570   1.287  53.038  1.00  0.00     0.090 C 
HETATM    2  C9  UNL     1      21.150   0.050  52.852  1.00  0.00     0.019 C 
ENDROOT
BRANCH   1   3
HETATM    3  N1  UNL     1      20.810   2.433  52.672  1.00  0.00    -0.351 N 
HETATM    4  H11 UNL     1      19.848   2.825  52.826  1.00  0.00     0.166 HD
BRANCH   3   5
HETATM    5  C7  UNL     1      21.327   3.479  51.858  1.00  0.00     0.130 A 
HETATM    6  C6  UNL     1      22.671   3.650  51.550  1.00  0.00     0.077 A 
HETATM    7  C5  UNL     1      23.113   4.692  50.749  1.00  0.00     0.039 A 
HETATM    8  N3  UNL     1      22.194   5.558  50.262  1.00  0.00    -0.246 NA
HETATM    9  C19 UNL     1      20.898   5.382  50.567  1.00  0.00     0.235 A 
HETATM   10  N2  UNL     1      20.442   4.379  51.342  1.00  0.00    -0.224 NA
BRANCH   7  11
HETATM   11  C4  UNL     1      24.588   4.633  50.583  1.00  0.00     0.059 C 
BRANCH  11  12
HETATM   12  C3  UNL     1      25.052   3.647  49.560  1.00  0.00     0.006 C 
BRANCH  12  13
HETATM   13  C2  UNL     1      26.445   3.152  49.794  1.00  0.00    -0.004 C 
HETATM   14  C1  UNL     1      26.514   2.465  51.141  1.00  0.00     0.005 C 
ENDBRANCH  12  13
ENDBRANCH  11  12
ENDBRANCH   7  11
ENDBRANCH   3   5
ENDBRANCH   1   3
BRANCH   2  15
HETATM   15  C10 UNL     1      22.003  -1.050  53.262  1.00  0.00     0.025 C 
BRANCH  15  16
HETATM   16  C11 UNL     1      23.227  -0.875  53.712  1.00  0.00     0.136 C 
BRANCH  16  17
HETATM   17  O1  UNL     1      24.411  -0.755  54.399  1.00  0.00    -0.351 OA
BRANCH  17  18
HETATM   18  C12 UNL     1      25.451  -0.056  53.735  1.00  0.00     0.188 A 
HETATM   19  C13 UNL     1      26.175  -0.931  52.791  1.00  0.00     0.009 A 
HETATM   20  C14 UNL     1      27.428  -1.291  52.586  1.00  0.00     0.005 A 
HETATM   21  C15 UNL     1      28.367  -0.684  53.513  1.00  0.00    -0.063 A 
HETATM   22  C16 UNL     1      29.814  -0.973  53.431  1.00  0.00     0.048 C 
HETATM   23  C17 UNL     1      27.793   0.112  54.389  1.00  0.00     0.019 A 
HETATM   24  C18 UNL     1      26.419   0.566  54.690  1.00  0.00     0.226 A 
HETATM   25  F1  UNL     1      26.087   0.104  55.959  1.00  0.00    -0.242 F 
ENDBRANCH  17  18
ENDBRANCH  16  17
ENDBRANCH  15  16
ENDBRANCH   2  15
TORSDOF 9
ENDMDL
MODEL 7
REMARK VINA RESULT:      -6.3      2.072      4.393
REMARK  9 active torsions:
REMARK  status: ('A' for Active; 'I' for Inactive)
REMARK    1  A    between atoms: C2_2  and  C3_3 
REMARK    2  A    between atoms: C3_3  and  C4_4 
REMARK    3  A    between atoms: C4_4  and  C5_5 
REMARK    4  A    between atoms: C7_7  and  N1_8 
REMARK    5  A    between atoms: N1_8  and  C8_9 
REMARK    6  A    between atoms: C9_10  and  C10_11 
REMARK    7  A    between atoms: C10_11  and  C11_12 
REMARK    8  A    between atoms: C11_12  and  O1_13 
REMARK    9  A    between atoms: O1_13  and  C12_14 
ROOT
HETATM    1  C8  UNL     1      21.987   0.598  51.674  1.00  0.00     0.090 C 
HETATM    2  C9  UNL     1      21.209   0.282  50.655  1.00  0.00     0.019 C 
ENDROOT
BRANCH   1   3
HETATM    3  N1  UNL     1      21.995  -0.119  52.903  1.00  0.00    -0.351 N 
HETATM    4  H11 UNL     1      21.307  -0.541  53.575  1.00  0.00     0.166 HD
BRANCH   3   5
HETATM    5  C7  UNL     1      23.190  -0.470  53.588  1.00  0.00     0.130 A 
HETATM    6  C6  UNL     1      24.459  -0.458  53.023  1.00  0.00     0.077 A 
HETATM    7  C5  UNL     1      25.588  -0.811  53.746  1.00  0.00     0.039 A 
HETATM    8  N3  UNL     1      25.430  -1.176  55.040  1.00  0.00    -0.246 NA
HETATM    9  C19 UNL     1      24.198  -1.183  55.576  1.00  0.00     0.235 A 
HETATM   10  N2  UNL     1      23.086  -0.845  54.896  1.00  0.00    -0.224 NA
BRANCH   7  11
HETATM   11  C4  UNL     1      26.804  -0.708  52.900  1.00  0.00     0.059 C 
BRANCH  11  12
HETATM   12  C3  UNL     1      27.800   0.299  53.377  1.00  0.00     0.006 C 
BRANCH  12  13
HETATM   13  C2  UNL     1      28.913  -0.295  54.182  1.00  0.00    -0.004 C 
HETATM   14  C1  UNL     1      29.496  -1.477  53.438  1.00  0.00     0.005 C 
ENDBRANCH  12  13
ENDBRANCH  11  12
ENDBRANCH   7  11
ENDBRANCH   3   5
ENDBRANCH   1   3
BRANCH   2  15
HETATM   15  C10 UNL     1      21.279   1.080  49.445  1.00  0.00     0.025 C 
BRANCH  15  16
HETATM   16  C11 UNL     1      21.445   2.384  49.457  1.00  0.00     0.136 C 
BRANCH  16  17
HETATM   17  O1  UNL     1      21.401   3.752  49.583  1.00  0.00    -0.351 OA
BRANCH  17  18
HETATM   18  C12 UNL     1      22.504   4.355  50.240  1.00  0.00     0.188 A 
HETATM   19  C13 UNL     1      23.706   3.501  50.176  1.00  0.00     0.009 A 
HETATM   20  C14 UNL     1      24.557   2.976  51.037  1.00  0.00     0.005 A 
HETATM   21  C15 UNL     1      24.262   3.308  52.421  1.00  0.00    -0.063 A 
HETATM   22  C16 UNL     1      25.112   2.807  53.522  1.00  0.00     0.048 C 
HETATM   23  C17 UNL     1      23.199   4.070  52.559  1.00  0.00     0.019 A 
HETATM   24  C18 UNL     1      22.201   4.694  51.665  1.00  0.00     0.226 A 
HETATM   25  F1  UNL     1      20.962   4.137  51.958  1.00  0.00    -0.242 F 
ENDBRANCH  17  18
ENDBRANCH  16  17
ENDBRANCH  15  16
ENDBRANCH   2  15
TORSDOF 9
ENDMDL
MODEL 8
REMARK VINA RESULT:      -6.3      2.752      4.790
REMARK  9 active torsions:
REMARK  status: ('A' for Active; 'I' for Inactive)
REMARK    1  A    between atoms: C2_2  and  C3_3 
REMARK    2  A    between atoms: C3_3  and  C4_4 
REMARK    3  A    between atoms: C4_4  and  C5_5 
REMARK    4  A    between atoms: C7_7  and  N1_8 
REMARK    5  A    between atoms: N1_8  and  C8_9 
REMARK    6  A    between atoms: C9_10  and  C10_11 
REMARK    7  A    between atoms: C10_11  and  C11_12 
REMARK    8  A    between atoms: C11_12  and  O1_13 
REMARK    9  A    between atoms: O1_13  and  C12_14 
ROOT
HETATM    1  C8  UNL     1      21.061   1.761  51.012  1.00  0.00     0.090 C 
HETATM    2  C9  UNL     1      21.138   0.808  50.103  1.00  0.00     0.019 C 
ENDROOT
BRANCH   1   3
HETATM    3  N1  UNL     1      20.671   1.525  52.360  1.00  0.00    -0.351 N 
HETATM    4  H11 UNL     1      20.034   1.943  53.082  1.00  0.00     0.166 HD
BRANCH   3   5
HETATM    5  C7  UNL     1      21.181   0.449  53.138  1.00  0.00     0.130 A 
HETATM    6  C6  UNL     1      22.524   0.257  53.439  1.00  0.00     0.077 A 
HETATM    7  C5  UNL     1      22.959  -0.814  54.203  1.00  0.00     0.039 A 
HETATM    8  N3  UNL     1      22.034  -1.689  54.662  1.00  0.00    -0.246 NA
HETATM    9  C19 UNL     1      20.739  -1.494  54.364  1.00  0.00     0.235 A 
HETATM   10  N2  UNL     1      20.289  -0.462  53.624  1.00  0.00    -0.224 NA
BRANCH   7  11
HETATM   11  C4  UNL     1      24.434  -0.772  54.369  1.00  0.00     0.059 C 
BRANCH  11  12
HETATM   12  C3  UNL     1      25.178  -0.367  53.138  1.00  0.00     0.006 C 
BRANCH  12  13
HETATM   13  C2  UNL     1      26.666  -0.372  53.308  1.00  0.00    -0.004 C 
HETATM   14  C1  UNL     1      27.047   0.591  54.411  1.00  0.00     0.005 C 
ENDBRANCH  12  13
ENDBRANCH  11  12
ENDBRANCH   7  11
ENDBRANCH   3   5
ENDBRANCH   1   3
BRANCH   2  15
HETATM   15  C10 UNL     1      21.548   1.156  48.755  1.00  0.00     0.025 C 
BRANCH  15  16
HETATM   16  C11 UNL     1      22.194   2.265  48.468  1.00  0.00     0.136 C 
BRANCH  16  17
HETATM   17  O1  UNL     1      22.648   3.529  48.175  1.00  0.00    -0.351 OA
BRANCH  17  18
HETATM   18  C12 UNL     1      23.637   4.055  49.045  1.00  0.00     0.188 A 
HETATM   19  C13 UNL     1      24.419   2.981  49.689  1.00  0.00     0.009 A 
HETATM   20  C14 UNL     1      24.725   2.626  50.922  1.00  0.00     0.005 A 
HETATM   21  C15 UNL     1      24.161   3.500  51.936  1.00  0.00    -0.063 A 
HETATM   22  C16 UNL     1      24.401   3.254  53.374  1.00  0.00     0.048 C 
HETATM   23  C17 UNL     1      23.447   4.485  51.436  1.00  0.00     0.019 A 
HETATM   24  C18 UNL     1      23.056   4.952  50.090  1.00  0.00     0.226 A 
HETATM   25  F1  UNL     1      21.673   4.847  49.989  1.00  0.00    -0.242 F 
ENDBRANCH  17  18
ENDBRANCH  16  17
ENDBRANCH  15  16
ENDBRANCH   2  15
TORSDOF 9
ENDMDL
MODEL 9
REMARK VINA RESULT:      -6.2      5.128      7.920
REMARK  9 active torsions:
REMARK  status: ('A' for Active; 'I' for Inactive)
REMARK    1  A    between atoms: C2_2  and  C3_3 
REMARK    2  A    between atoms: C3_3  and  C4_4 
REMARK    3  A    between atoms: C4_4  and  C5_5 
REMARK    4  A    between atoms: C7_7  and  N1_8 
REMARK    5  A    between atoms: N1_8  and  C8_9 
REMARK    6  A    between atoms: C9_10  and  C10_11 
REMARK    7  A    between atoms: C10_11  and  C11_12 
REMARK    8  A    between atoms: C11_12  and  O1_13 
REMARK    9  A    between atoms: O1_13  and  C12_14 
ROOT
HETATM    1  C8  UNL     1      27.328   5.924  48.505  1.00  0.00     0.090 C 
HETATM    2  C9  UNL     1      27.405   4.626  48.732  1.00  0.00     0.019 C 
ENDROOT
BRANCH   1   3
HETATM    3  N1  UNL     1      28.282   6.639  47.728  1.00  0.00    -0.351 N 
HETATM    4  H11 UNL     1      28.342   7.119  46.796  1.00  0.00     0.166 HD
BRANCH   3   5
HETATM    5  C7  UNL     1      29.612   6.885  48.169  1.00  0.00     0.130 A 
HETATM    6  C6  UNL     1      30.682   6.021  47.977  1.00  0.00     0.077 A 
HETATM    7  C5  UNL     1      31.957   6.319  48.432  1.00  0.00     0.039 A 
HETATM    8  N3  UNL     1      32.147   7.492  49.079  1.00  0.00    -0.246 NA
HETATM    9  C19 UNL     1      31.104   8.321  49.258  1.00  0.00     0.235 A 
HETATM   10  N2  UNL     1      29.856   8.055  48.827  1.00  0.00    -0.224 NA
BRANCH   7  11
HETATM   11  C4  UNL     1      32.903   5.225  48.091  1.00  0.00     0.059 C 
BRANCH  11  12
HETATM   12  C3  UNL     1      32.280   4.085  47.352  1.00  0.00     0.006 C 
BRANCH  12  13
HETATM   13  C2  UNL     1      33.278   3.129  46.777  1.00  0.00    -0.004 C 
HETATM   14  C1  UNL     1      32.855   1.711  47.096  1.00  0.00     0.005 C 
ENDBRANCH  12  13
ENDBRANCH  11  12
ENDBRANCH   7  11
ENDBRANCH   3   5
ENDBRANCH   1   3
BRANCH   2  15
HETATM   15  C10 UNL     1      26.378   3.993  49.539  1.00  0.00     0.025 C 
BRANCH  15  16
HETATM   16  C11 UNL     1      26.652   3.215  50.563  1.00  0.00     0.136 C 
BRANCH  16  17
HETATM   17  O1  UNL     1      27.032   2.251  51.466  1.00  0.00    -0.351 OA
BRANCH  17  18
HETATM   18  C12 UNL     1      26.281   1.047  51.447  1.00  0.00     0.188 A 
HETATM   19  C13 UNL     1      24.884   1.274  51.867  1.00  0.00     0.009 A 
HETATM   20  C14 UNL     1      24.064   0.784  52.777  1.00  0.00     0.005 A 
HETATM   21  C15 UNL     1      24.662  -0.253  53.599  1.00  0.00    -0.063 A 
HETATM   22  C16 UNL     1      23.890  -0.917  54.672  1.00  0.00     0.048 C 
HETATM   23  C17 UNL     1      25.913  -0.512  53.285  1.00  0.00     0.019 A 
HETATM   24  C18 UNL     1      26.895  -0.019  52.296  1.00  0.00     0.226 A 
HETATM   25  F1  UNL     1      27.941   0.573  52.995  1.00  0.00    -0.242 F 
ENDBRANCH  17  18
ENDBRANCH  16  17
ENDBRANCH  15  16
ENDBRANCH   2  15
TORSDOF 9
ENDMDL
