MODEL 1
REMARK VINA RESULT:      -8.9      0.000      0.000
REMARK  1 active torsions:
REMARK  status: ('A' for Active; 'I' for Inactive)
REMARK    1  A    between atoms: C3_3  and  C4_5 
ROOT
HETATM    1  C4  UNL     1      23.379   5.321  49.663  1.00  0.00     0.004 C 
HETATM    2  C5  UNL     1      24.661   5.096  49.895  1.00  0.00    -0.040 C 
HETATM    3  C6  UNL     1      25.596   6.256  50.100  1.00  0.00     0.091 C 
HETATM    4  C7  UNL     1      26.416   6.311  48.828  1.00  0.00     0.007 C 
HETATM    5  C8  UNL     1      26.778   7.300  47.777  1.00  0.00     0.065 C 
HETATM    6  N1  UNL     1      26.932   5.200  48.607  1.00  0.00    -0.296 NA
HETATM    7  C9  UNL     1      26.845   3.995  49.353  1.00  0.00     0.178 C 
HETATM    8  C10 UNL     1      25.513   3.884  50.013  1.00  0.00     0.131 C 
HETATM    9  N2  UNL     1      25.664   3.560  51.448  1.00  0.00    -0.389 N 
HETATM   10  C11 UNL     1      25.610   2.322  52.103  1.00  0.00     0.083 C 
HETATM   11  C12 UNL     1      25.483   1.182  52.697  1.00  0.00     0.016 C 
HETATM   12  C13 UNL     1      24.573   0.176  53.135  1.00  0.00    -0.003 C 
HETATM   13  C14 UNL     1      23.338  -0.181  53.186  1.00  0.00    -0.027 C 
HETATM   14  C15 UNL     1      22.365  -1.204  53.627  1.00  0.00     0.027 C 
HETATM   15  C16 UNL     1      21.359  -0.536  54.569  1.00  0.00     0.004 C 
HETATM   16  C17 UNL     1      20.611   0.557  53.820  1.00  0.00     0.002 C 
HETATM   17  C18 UNL     1      19.780   0.005  52.707  1.00  0.00     0.026 C 
HETATM   18  C19 UNL     1      19.124   1.112  51.924  1.00  0.00     0.169 C 
HETATM   19  O2  UNL     1      20.082   1.888  51.253  1.00  0.00    -0.375 OA
HETATM   20  C20 UNL     1      19.430   2.877  50.558  1.00  0.00     0.284 C 
HETATM   21  N3  UNL     1      20.291   3.665  49.760  1.00  0.00    -0.182 NA
HETATM   22  O3  UNL     1      21.298   4.310  50.357  1.00  0.00    -0.299 OA
HETATM   23  C21 UNL     1      22.355   4.301  49.426  1.00  0.00     0.235 C 
HETATM   24  H14 UNL     1      25.843   4.420  52.048  1.00  0.00     0.159 HD
HETATM   25  H31 UNL     1      20.673   3.050  49.011  1.00  0.00     0.156 HD
ENDROOT
BRANCH   1  26
HETATM   26  C3  UNL     1      22.979   6.712  49.630  1.00  0.00     0.077 A 
HETATM   27  C2  UNL     1      22.612   8.104  49.874  1.00  0.00     0.207 A 
HETATM   28  C1  UNL     1      22.295   8.845  48.620  1.00  0.00     0.038 C 
HETATM   29  O1  UNL     1      22.707   7.217  48.511  1.00  0.00    -0.349 OA
ENDBRANCH   1  26
TORSDOF 1
ENDMDL
MODEL 2
REMARK VINA RESULT:      -8.9      2.024      6.963
REMARK  1 active torsions:
REMARK  status: ('A' for Active; 'I' for Inactive)
REMARK    1  A    between atoms: C3_3  and  C4_5 
ROOT
HETATM    1  C4  UNL     1      23.186   1.420  52.945  1.00  0.00     0.004 C 
HETATM    2  C5  UNL     1      24.505   1.353  52.879  1.00  0.00    -0.040 C 
HETATM    3  C6  UNL     1      25.191   0.023  53.026  1.00  0.00     0.091 C 
HETATM    4  C7  UNL     1      25.826   0.074  54.399  1.00  0.00     0.007 C 
HETATM    5  C8  UNL     1      25.846  -0.733  55.650  1.00  0.00     0.065 C 
HETATM    6  N1  UNL     1      26.536   1.092  54.501  1.00  0.00    -0.296 NA
HETATM    7  C9  UNL     1      26.792   2.118  53.553  1.00  0.00     0.178 C 
HETATM    8  C10 UNL     1      25.600   2.337  52.685  1.00  0.00     0.131 C 
HETATM    9  N2  UNL     1      25.983   2.333  51.258  1.00  0.00    -0.389 N 
HETATM   10  C11 UNL     1      26.269   3.401  50.397  1.00  0.00     0.083 C 
HETATM   11  C12 UNL     1      26.455   4.401  49.601  1.00  0.00     0.016 C 
HETATM   12  C13 UNL     1      25.836   5.449  48.859  1.00  0.00    -0.003 C 
HETATM   13  C14 UNL     1      24.719   6.011  48.556  1.00  0.00    -0.027 C 
HETATM   14  C15 UNL     1      24.042   7.086  47.799  1.00  0.00     0.027 C 
HETATM   15  C16 UNL     1      23.035   6.439  46.843  1.00  0.00     0.004 C 
HETATM   16  C17 UNL     1      21.990   5.678  47.645  1.00  0.00     0.002 C 
HETATM   17  C18 UNL     1      21.171   6.586  48.503  1.00  0.00     0.026 C 
HETATM   18  C19 UNL     1      20.209   5.800  49.355  1.00  0.00     0.169 C 
HETATM   19  O2  UNL     1      20.897   5.012  50.291  1.00  0.00    -0.375 OA
HETATM   20  C20 UNL     1      19.973   4.321  51.038  1.00  0.00     0.284 C 
HETATM   21  N3  UNL     1      20.550   3.564  52.084  1.00  0.00    -0.182 NA
HETATM   22  O3  UNL     1      21.461   2.638  51.771  1.00  0.00    -0.299 OA
HETATM   23  C21 UNL     1      22.379   2.638  52.840  1.00  0.00     0.235 C 
HETATM   24  H14 UNL     1      26.045   1.352  50.851  1.00  0.00     0.159 HD
HETATM   25  H31 UNL     1      20.962   4.236  52.765  1.00  0.00     0.156 HD
ENDROOT
BRANCH   1  26
HETATM   26  C3  UNL     1      22.500   0.163  53.156  1.00  0.00     0.077 A 
HETATM   27  C2  UNL     1      21.877  -1.157  53.104  1.00  0.00     0.207 A 
HETATM   28  C1  UNL     1      21.271  -1.561  54.405  1.00  0.00     0.038 C 
HETATM   29  O1  UNL     1      22.002  -0.050  54.292  1.00  0.00    -0.349 OA
ENDBRANCH   1  26
TORSDOF 1
ENDMDL
MODEL 3
REMARK VINA RESULT:      -8.9      1.944      7.083
REMARK  1 active torsions:
REMARK  status: ('A' for Active; 'I' for Inactive)
REMARK    1  A    between atoms: C3_3  and  C4_5 
ROOT
HETATM    1  C4  UNL     1      23.553   2.854  52.251  1.00  0.00     0.004 C 
HETATM    2  C5  UNL     1      24.722   2.278  52.027  1.00  0.00    -0.040 C 
HETATM    3  C6  UNL     1      24.817   0.778  51.980  1.00  0.00     0.091 C 
HETATM    4  C7  UNL     1      25.515   0.403  53.270  1.00  0.00     0.007 C 
HETATM    5  C8  UNL     1      25.295  -0.495  54.437  1.00  0.00     0.065 C 
HETATM    6  N1  UNL     1      26.582   1.035  53.375  1.00  0.00    -0.296 NA
HETATM    7  C9  UNL     1      27.165   1.984  52.494  1.00  0.00     0.178 C 
HETATM    8  C10 UNL     1      26.106   2.764  51.791  1.00  0.00     0.131 C 
HETATM    9  N2  UNL     1      26.351   2.785  50.334  1.00  0.00    -0.389 N 
HETATM   10  C11 UNL     1      26.983   3.751  49.539  1.00  0.00     0.083 C 
HETATM   11  C12 UNL     1      27.503   4.685  48.815  1.00  0.00     0.016 C 
HETATM   12  C13 UNL     1      27.310   5.976  48.241  1.00  0.00    -0.003 C 
HETATM   13  C14 UNL     1      26.500   6.967  48.118  1.00  0.00    -0.027 C 
HETATM   14  C15 UNL     1      26.266   8.307  47.537  1.00  0.00     0.027 C 
HETATM   15  C16 UNL     1      25.018   8.237  46.654  1.00  0.00     0.004 C 
HETATM   16  C17 UNL     1      23.814   7.858  47.504  1.00  0.00     0.002 C 
HETATM   17  C18 UNL     1      23.498   8.903  48.524  1.00  0.00     0.026 C 
HETATM   18  C19 UNL     1      22.364   8.464  49.412  1.00  0.00     0.169 C 
HETATM   19  O2  UNL     1      22.737   7.357  50.192  1.00  0.00    -0.375 OA
HETATM   20  C20 UNL     1      21.668   7.002  50.980  1.00  0.00     0.284 C 
HETATM   21  N3  UNL     1      21.961   5.956  51.885  1.00  0.00    -0.182 NA
HETATM   22  O3  UNL     1      22.392   4.791  51.392  1.00  0.00    -0.299 OA
HETATM   23  C21 UNL     1      23.305   4.294  52.343  1.00  0.00     0.235 C 
HETATM   24  H14 UNL     1      25.979   1.918  49.841  1.00  0.00     0.159 HD
HETATM   25  H31 UNL     1      22.659   6.319  52.567  1.00  0.00     0.156 HD
ENDROOT
BRANCH   1  26
HETATM   26  C3  UNL     1      22.432   1.955  52.433  1.00  0.00     0.077 A 
HETATM   27  C2  UNL     1      21.382   1.046  52.883  1.00  0.00     0.207 A 
HETATM   28  C1  UNL     1      20.455   0.646  51.787  1.00  0.00     0.038 C 
HETATM   29  O1  UNL     1      21.741   1.668  51.421  1.00  0.00    -0.349 OA
ENDBRANCH   1  26
TORSDOF 1
ENDMDL
MODEL 4
REMARK VINA RESULT:      -8.7      2.836      8.372
REMARK  1 active torsions:
REMARK  status: ('A' for Active; 'I' for Inactive)
REMARK    1  A    between atoms: C3_3  and  C4_5 
ROOT
HETATM    1  C4  UNL     1      25.704   2.768  51.241  1.00  0.00     0.004 C 
HETATM    2  C5  UNL     1      24.483   2.919  51.724  1.00  0.00    -0.040 C 
HETATM    3  C6  UNL     1      24.142   2.359  53.078  1.00  0.00     0.091 C 
HETATM    4  C7  UNL     1      23.268   1.159  52.782  1.00  0.00     0.007 C 
HETATM    5  C8  UNL     1      23.218  -0.293  53.108  1.00  0.00     0.065 C 
HETATM    6  N1  UNL     1      22.317   1.496  52.052  1.00  0.00    -0.296 NA
HETATM    7  C9  UNL     1      21.991   2.770  51.517  1.00  0.00     0.178 C 
HETATM    8  C10 UNL     1      23.230   3.551  51.238  1.00  0.00     0.131 C 
HETATM    9  N2  UNL     1      23.136   4.907  51.819  1.00  0.00    -0.389 N 
HETATM   10  C11 UNL     1      22.756   6.119  51.226  1.00  0.00     0.083 C 
HETATM   11  C12 UNL     1      22.475   7.237  50.643  1.00  0.00     0.016 C 
HETATM   12  C13 UNL     1      22.936   8.252  49.755  1.00  0.00    -0.003 C 
HETATM   13  C14 UNL     1      23.910   8.640  49.010  1.00  0.00    -0.027 C 
HETATM   14  C15 UNL     1      24.421   9.675  48.085  1.00  0.00     0.027 C 
HETATM   15  C16 UNL     1      25.721  10.239  48.666  1.00  0.00     0.004 C 
HETATM   16  C17 UNL     1      26.754   9.127  48.772  1.00  0.00     0.002 C 
HETATM   17  C18 UNL     1      27.139   8.591  47.432  1.00  0.00     0.026 C 
HETATM   18  C19 UNL     1      28.092   7.431  47.569  1.00  0.00     0.169 C 
HETATM   19  O2  UNL     1      27.463   6.336  48.183  1.00  0.00    -0.375 OA
HETATM   20  C20 UNL     1      28.374   5.312  48.280  1.00  0.00     0.284 C 
HETATM   21  N3  UNL     1      27.822   4.117  48.796  1.00  0.00    -0.182 NA
HETATM   22  O3  UNL     1      27.252   4.149  50.004  1.00  0.00    -0.299 OA
HETATM   23  C21 UNL     1      26.180   3.238  49.939  1.00  0.00     0.235 C 
HETATM   24  H14 UNL     1      23.403   4.933  52.849  1.00  0.00     0.159 HD
HETATM   25  H31 UNL     1      27.132   3.765  48.100  1.00  0.00     0.156 HD
ENDROOT
BRANCH   1  26
HETATM   26  C3  UNL     1      26.634   2.055  52.092  1.00  0.00     0.077 A 
HETATM   27  C2  UNL     1      27.620   1.587  53.063  1.00  0.00     0.207 A 
HETATM   28  C1  UNL     1      27.835   0.113  53.002  1.00  0.00     0.038 C 
HETATM   29  O1  UNL     1      26.750   0.814  51.923  1.00  0.00    -0.349 OA
ENDBRANCH   1  26
TORSDOF 1
ENDMDL
MODEL 5
REMARK VINA RESULT:      -8.1      1.145      1.261
REMARK  1 active torsions:
REMARK  status: ('A' for Active; 'I' for Inactive)
REMARK    1  A    between atoms: C3_3  and  C4_5 
ROOT
HETATM    1  C4  UNL     1      23.555   5.479  48.569  1.00  0.00     0.004 C 
HETATM    2  C5  UNL     1      24.736   5.358  49.152  1.00  0.00    -0.040 C 
HETATM    3  C6  UNL     1      25.551   6.587  49.447  1.00  0.00     0.091 C 
HETATM    4  C7  UNL     1      26.677   6.546  48.436  1.00  0.00     0.007 C 
HETATM    5  C8  UNL     1      27.278   7.430  47.400  1.00  0.00     0.065 C 
HETATM    6  N1  UNL     1      27.263   5.449  48.496  1.00  0.00    -0.296 NA
HETATM    7  C9  UNL     1      27.014   4.333  49.338  1.00  0.00     0.178 C 
HETATM    8  C10 UNL     1      25.558   4.220  49.638  1.00  0.00     0.131 C 
HETATM    9  N2  UNL     1      25.332   4.069  51.091  1.00  0.00    -0.389 N 
HETATM   10  C11 UNL     1      25.139   2.912  51.859  1.00  0.00     0.083 C 
HETATM   11  C12 UNL     1      24.890   1.842  52.537  1.00  0.00     0.016 C 
HETATM   12  C13 UNL     1      23.924   0.840  52.845  1.00  0.00    -0.003 C 
HETATM   13  C14 UNL     1      22.730   0.419  52.617  1.00  0.00    -0.027 C 
HETATM   14  C15 UNL     1      21.703  -0.604  52.914  1.00  0.00     0.027 C 
HETATM   15  C16 UNL     1      20.466   0.107  53.471  1.00  0.00     0.004 C 
HETATM   16  C17 UNL     1      19.913   1.061  52.423  1.00  0.00     0.002 C 
HETATM   17  C18 UNL     1      19.423   0.339  51.210  1.00  0.00     0.026 C 
HETATM   18  C19 UNL     1      18.968   1.310  50.152  1.00  0.00     0.169 C 
HETATM   19  O2  UNL     1      20.049   2.061  49.662  1.00  0.00    -0.375 OA
HETATM   20  C20 UNL     1      19.577   2.925  48.703  1.00  0.00     0.284 C 
HETATM   21  N3  UNL     1      20.598   3.667  48.066  1.00  0.00    -0.182 NA
HETATM   22  O3  UNL     1      21.393   4.433  48.819  1.00  0.00    -0.299 OA
HETATM   23  C21 UNL     1      22.658   4.382  48.202  1.00  0.00     0.235 C 
HETATM   24  H14 UNL     1      25.322   5.000  51.605  1.00  0.00     0.159 HD
HETATM   25  H31 UNL     1      21.181   2.995  47.524  1.00  0.00     0.156 HD
ENDROOT
BRANCH   1  26
HETATM   26  C3  UNL     1      23.141   6.832  48.260  1.00  0.00     0.077 A 
HETATM   27  C2  UNL     1      22.693   8.222  48.225  1.00  0.00     0.207 A 
HETATM   28  C1  UNL     1      22.664   8.784  46.845  1.00  0.00     0.038 C 
HETATM   29  O1  UNL     1      23.129   7.180  47.051  1.00  0.00    -0.349 OA
ENDBRANCH   1  26
TORSDOF 1
ENDMDL
MODEL 6
REMARK VINA RESULT:      -7.8      5.384      9.656
REMARK  1 active torsions:
REMARK  status: ('A' for Active; 'I' for Inactive)
REMARK    1  A    between atoms: C3_3  and  C4_5 
ROOT
HETATM    1  C4  UNL     1      31.087   5.729  47.957  1.00  0.00     0.004 C 
HETATM    2  C5  UNL     1      31.725   6.819  47.567  1.00  0.00    -0.040 C 
HETATM    3  C6  UNL     1      32.951   6.697  46.704  1.00  0.00     0.091 C 
HETATM    4  C7  UNL     1      34.100   7.037  47.630  1.00  0.00     0.007 C 
HETATM    5  C8  UNL     1      35.389   6.439  48.072  1.00  0.00     0.065 C 
HETATM    6  N1  UNL     1      33.897   8.138  48.173  1.00  0.00    -0.296 NA
HETATM    7  C9  UNL     1      32.803   9.032  48.030  1.00  0.00     0.178 C 
HETATM    8  C10 UNL     1      31.542   8.278  47.779  1.00  0.00     0.131 C 
HETATM    9  N2  UNL     1      30.823   8.832  46.612  1.00  0.00    -0.389 N 
HETATM   10  C11 UNL     1      29.773   9.758  46.555  1.00  0.00     0.083 C 
HETATM   11  C12 UNL     1      28.757  10.555  46.528  1.00  0.00     0.016 C 
HETATM   12  C13 UNL     1      27.355  10.685  46.753  1.00  0.00    -0.003 C 
HETATM   13  C14 UNL     1      26.284  10.078  47.122  1.00  0.00    -0.027 C 
HETATM   14  C15 UNL     1      24.828  10.177  47.365  1.00  0.00     0.027 C 
HETATM   15  C16 UNL     1      24.121   9.152  46.473  1.00  0.00     0.004 C 
HETATM   16  C17 UNL     1      24.582   7.751  46.846  1.00  0.00     0.002 C 
HETATM   17  C18 UNL     1      24.183   7.382  48.238  1.00  0.00     0.026 C 
HETATM   18  C19 UNL     1      24.730   6.030  48.615  1.00  0.00     0.169 C 
HETATM   19  O2  UNL     1      26.132   6.057  48.681  1.00  0.00    -0.375 OA
HETATM   20  C20 UNL     1      26.574   4.803  49.028  1.00  0.00     0.284 C 
HETATM   21  N3  UNL     1      27.973   4.735  49.222  1.00  0.00    -0.182 NA
HETATM   22  O3  UNL     1      28.773   5.083  48.210  1.00  0.00    -0.299 OA
HETATM   23  C21 UNL     1      29.897   5.685  48.809  1.00  0.00     0.235 C 
HETATM   24  H14 UNL     1      31.185   8.450  45.687  1.00  0.00     0.159 HD
HETATM   25  H31 UNL     1      28.202   5.315  50.056  1.00  0.00     0.156 HD
ENDROOT
BRANCH   1  26
HETATM   26  C3  UNL     1      31.645   4.474  47.497  1.00  0.00     0.077 A 
HETATM   27  C2  UNL     1      32.059   3.258  46.803  1.00  0.00     0.207 A 
HETATM   28  C1  UNL     1      33.027   2.444  47.591  1.00  0.00     0.038 C 
HETATM   29  O1  UNL     1      32.428   3.863  48.269  1.00  0.00    -0.349 OA
ENDBRANCH   1  26
TORSDOF 1
ENDMDL
MODEL 7
REMARK VINA RESULT:      -7.7      2.095      8.222
REMARK  1 active torsions:
REMARK  status: ('A' for Active; 'I' for Inactive)
REMARK    1  A    between atoms: C3_3  and  C4_5 
ROOT
HETATM    1  C4  UNL     1      22.915   2.757  51.104  1.00  0.00     0.004 C 
HETATM    2  C5  UNL     1      21.728   3.322  51.243  1.00  0.00    -0.040 C 
HETATM    3  C6  UNL     1      20.858   2.950  52.411  1.00  0.00     0.091 C 
HETATM    4  C7  UNL     1      19.757   2.102  51.808  1.00  0.00     0.007 C 
HETATM    5  C8  UNL     1      19.144   0.761  52.011  1.00  0.00     0.065 C 
HETATM    6  N1  UNL     1      19.214   2.715  50.870  1.00  0.00    -0.296 NA
HETATM    7  C9  UNL     1      19.490   4.008  50.352  1.00  0.00     0.178 C 
HETATM    8  C10 UNL     1      20.942   4.322  50.475  1.00  0.00     0.131 C 
HETATM    9  N2  UNL     1      21.141   5.648  51.097  1.00  0.00    -0.389 N 
HETATM   10  C11 UNL     1      21.363   6.899  50.504  1.00  0.00     0.083 C 
HETATM   11  C12 UNL     1      21.640   8.028  49.943  1.00  0.00     0.016 C 
HETATM   12  C13 UNL     1      22.639   8.803  49.284  1.00  0.00    -0.003 C 
HETATM   13  C14 UNL     1      23.853   8.821  48.861  1.00  0.00    -0.027 C 
HETATM   14  C15 UNL     1      24.914   9.597  48.182  1.00  0.00     0.027 C 
HETATM   15  C16 UNL     1      26.109   9.711  49.133  1.00  0.00     0.004 C 
HETATM   16  C17 UNL     1      26.646   8.322  49.444  1.00  0.00     0.002 C 
HETATM   17  C18 UNL     1      27.192   7.647  48.227  1.00  0.00     0.026 C 
HETATM   18  C19 UNL     1      27.631   6.241  48.542  1.00  0.00     0.169 C 
HETATM   19  O2  UNL     1      26.532   5.438  48.887  1.00  0.00    -0.375 OA
HETATM   20  C20 UNL     1      26.989   4.172  49.162  1.00  0.00     0.284 C 
HETATM   21  N3  UNL     1      25.954   3.246  49.426  1.00  0.00    -0.182 NA
HETATM   22  O3  UNL     1      25.112   3.503  50.432  1.00  0.00    -0.299 OA
HETATM   23  C21 UNL     1      23.864   3.001  50.015  1.00  0.00     0.235 C 
HETATM   24  H14 UNL     1      21.102   5.614  52.160  1.00  0.00     0.159 HD
HETATM   25  H31 UNL     1      25.410   3.124  48.546  1.00  0.00     0.156 HD
ENDROOT
BRANCH   1  26
HETATM   26  C3  UNL     1      23.281   1.800  52.127  1.00  0.00     0.077 A 
HETATM   27  C2  UNL     1      23.753   1.058  53.293  1.00  0.00     0.207 A 
HETATM   28  C1  UNL     1      23.439  -0.397  53.216  1.00  0.00     0.038 C 
HETATM   29  O1  UNL     1      22.988   0.592  51.932  1.00  0.00    -0.349 OA
ENDBRANCH   1  26
TORSDOF 1
ENDMDL
MODEL 8
REMARK VINA RESULT:      -7.7      1.833      7.144
REMARK  1 active torsions:
REMARK  status: ('A' for Active; 'I' for Inactive)
REMARK    1  A    between atoms: C3_3  and  C4_5 
ROOT
HETATM    1  C4  UNL     1      21.308   1.862  51.845  1.00  0.00     0.004 C 
HETATM    2  C5  UNL     1      22.427   1.195  52.072  1.00  0.00    -0.040 C 
HETATM    3  C6  UNL     1      22.423  -0.308  52.015  1.00  0.00     0.091 C 
HETATM    4  C7  UNL     1      22.535  -0.742  53.461  1.00  0.00     0.007 C 
HETATM    5  C8  UNL     1      21.815  -1.622  54.421  1.00  0.00     0.065 C 
HETATM    6  N1  UNL     1      23.521  -0.198  53.993  1.00  0.00    -0.296 NA
HETATM    7  C9  UNL     1      24.468   0.703  53.438  1.00  0.00     0.178 C 
HETATM    8  C10 UNL     1      23.825   1.568  52.407  1.00  0.00     0.131 C 
HETATM    9  N2  UNL     1      24.618   1.573  51.159  1.00  0.00    -0.389 N 
HETATM   10  C11 UNL     1      25.578   2.488  50.705  1.00  0.00     0.083 C 
HETATM   11  C12 UNL     1      26.405   3.379  50.270  1.00  0.00     0.016 C 
HETATM   12  C13 UNL     1      26.545   4.683  49.710  1.00  0.00    -0.003 C 
HETATM   13  C14 UNL     1      25.921   5.736  49.317  1.00  0.00    -0.027 C 
HETATM   14  C15 UNL     1      26.030   7.093  48.737  1.00  0.00     0.027 C 
HETATM   15  C16 UNL     1      25.221   7.125  47.437  1.00  0.00     0.004 C 
HETATM   16  C17 UNL     1      23.757   6.842  47.742  1.00  0.00     0.002 C 
HETATM   17  C18 UNL     1      23.147   7.906  48.596  1.00  0.00     0.026 C 
HETATM   18  C19 UNL     1      21.728   7.557  48.960  1.00  0.00     0.169 C 
HETATM   19  O2  UNL     1      21.687   6.422  49.786  1.00  0.00    -0.375 OA
HETATM   20  C20 UNL     1      20.374   6.152  50.086  1.00  0.00     0.284 C 
HETATM   21  N3  UNL     1      20.215   5.083  50.998  1.00  0.00    -0.182 NA
HETATM   22  O3  UNL     1      20.717   3.888  50.670  1.00  0.00    -0.299 OA
HETATM   23  C21 UNL     1      21.150   3.317  51.883  1.00  0.00     0.235 C 
HETATM   24  H14 UNL     1      24.404   0.741  50.533  1.00  0.00     0.159 HD
HETATM   25  H31 UNL     1      20.617   5.386  51.909  1.00  0.00     0.156 HD
ENDROOT
BRANCH   1  26
HETATM   26  C3  UNL     1      20.143   1.055  51.549  1.00  0.00     0.077 A 
HETATM   27  C2  UNL     1      19.072   0.232  50.993  1.00  0.00     0.207 A 
HETATM   28  C1  UNL     1      18.052  -0.152  52.009  1.00  0.00     0.038 C 
HETATM   29  O1  UNL     1      19.336   0.825  52.487  1.00  0.00    -0.349 OA
ENDBRANCH   1  26
TORSDOF 1
ENDMDL
MODEL 9
REMARK VINA RESULT:      -7.5      2.421      8.529
REMARK  1 active torsions:
REMARK  status: ('A' for Active; 'I' for Inactive)
REMARK    1  A    between atoms: C3_3  and  C4_5 
ROOT
HETATM    1  C4  UNL     1      23.978   3.924  50.891  1.00  0.00     0.004 C 
HETATM    2  C5  UNL     1      22.802   4.520  50.996  1.00  0.00    -0.040 C 
HETATM    3  C6  UNL     1      21.983   4.339  52.244  1.00  0.00     0.091 C 
HETATM    4  C7  UNL     1      20.851   3.425  51.824  1.00  0.00     0.007 C 
HETATM    5  C8  UNL     1      20.239   2.138  52.253  1.00  0.00     0.065 C 
HETATM    6  N1  UNL     1      20.270   3.898  50.830  1.00  0.00    -0.296 NA
HETATM    7  C9  UNL     1      20.530   5.095  50.112  1.00  0.00     0.178 C 
HETATM    8  C10 UNL     1      21.989   5.404  50.122  1.00  0.00     0.131 C 
HETATM    9  N2  UNL     1      22.225   6.806  50.528  1.00  0.00    -0.389 N 
HETATM   10  C11 UNL     1      22.428   7.950  49.745  1.00  0.00     0.083 C 
HETATM   11  C12 UNL     1      22.686   8.979  49.008  1.00  0.00     0.016 C 
HETATM   12  C13 UNL     1      23.659   9.633  48.197  1.00  0.00    -0.003 C 
HETATM   13  C14 UNL     1      24.853   9.571  47.723  1.00  0.00    -0.027 C 
HETATM   14  C15 UNL     1      25.887  10.222  46.889  1.00  0.00     0.027 C 
HETATM   15  C16 UNL     1      27.125  10.461  47.758  1.00  0.00     0.004 C 
HETATM   16  C17 UNL     1      27.666   9.127  48.250  1.00  0.00     0.002 C 
HETATM   17  C18 UNL     1      28.151   8.271  47.126  1.00  0.00     0.026 C 
HETATM   18  C19 UNL     1      28.595   6.922  47.629  1.00  0.00     0.169 C 
HETATM   19  O2  UNL     1      27.507   6.195  48.139  1.00  0.00    -0.375 OA
HETATM   20  C20 UNL     1      27.968   4.978  48.580  1.00  0.00     0.284 C 
HETATM   21  N3  UNL     1      26.940   4.116  49.026  1.00  0.00    -0.182 NA
HETATM   22  O3  UNL     1      26.147   4.532  50.018  1.00  0.00    -0.299 OA
HETATM   23  C21 UNL     1      24.877   3.990  49.737  1.00  0.00     0.235 C 
HETATM   24  H14 UNL     1      22.234   6.932  51.585  1.00  0.00     0.159 HD
HETATM   25  H31 UNL     1      26.356   3.871  48.199  1.00  0.00     0.156 HD
ENDROOT
BRANCH   1  26
HETATM   26  C3  UNL     1      24.384   3.127  52.029  1.00  0.00     0.077 A 
HETATM   27  C2  UNL     1      24.752   2.557  53.322  1.00  0.00     0.207 A 
HETATM   28  C1  UNL     1      25.100   1.111  53.238  1.00  0.00     0.038 C 
HETATM   29  O1  UNL     1      24.684   1.923  51.824  1.00  0.00    -0.349 OA
ENDBRANCH   1  26
TORSDOF 1
ENDMDL
