MODEL 1
REMARK VINA RESULT:      -7.8      0.000      0.000
REMARK  7 active torsions:
REMARK  status: ('A' for Active; 'I' for Inactive)
REMARK    1  A    between atoms: C3_3  and  O1_4 
REMARK    2  A    between atoms: O1_4  and  C4_5 
REMARK    3  A    between atoms: C8_11  and  N3_12 
REMARK    4  A    between atoms: N3_12  and  C9_13 
REMARK    5  A    between atoms: C9_13  and  C10_14 
REMARK    6  A    between atoms: C11_15  and  C12_17 
REMARK    7  A    between atoms: C15_21  and  N4_22 
REMARK       I    between atoms: N4_22  and  C16_23 
ROOT
HETATM    1  C1  UNL     1      29.615  -1.445  53.417  1.00  0.00     0.014 C 
HETATM    2  C2  UNL     1      28.425  -1.546  53.206  1.00  0.00    -0.091 C 
HETATM    3  C3  UNL     1      26.970  -1.647  52.942  1.00  0.00     0.268 C 
ENDROOT
BRANCH   3   4
HETATM    4  O1  UNL     1      26.255  -0.889  53.885  1.00  0.00    -0.337 OA
BRANCH   4   5
HETATM    5  C4  UNL     1      25.487   0.205  53.521  1.00  0.00     0.099 A 
HETATM    6  C5  UNL     1      24.219   0.065  52.992  1.00  0.00     0.071 A 
HETATM    7  C6  UNL     1      23.480   1.176  52.640  1.00  0.00     0.075 A 
HETATM    8  N1  UNL     1      22.247   1.004  52.128  1.00  0.00    -0.241 NA
HETATM    9  C13 UNL     1      23.946   2.465  52.788  1.00  0.00     0.041 A 
HETATM   10  C7  UNL     1      21.547   2.103  51.793  1.00  0.00     0.235 A 
HETATM   11  N2  UNL     1      22.038   3.343  51.952  1.00  0.00    -0.224 NA
HETATM   12  C8  UNL     1      23.255   3.607  52.455  1.00  0.00     0.137 A 
HETATM   13  C14 UNL     1      25.215   2.559  53.318  1.00  0.00     0.050 A 
HETATM   14  C15 UNL     1      25.997   1.486  53.687  1.00  0.00     0.069 A 
BRANCH  12  15
HETATM   15  N3  UNL     1      23.773   4.923  52.608  1.00  0.00    -0.370 N 
HETATM   16  H6  UNL     1      24.309   5.261  53.430  1.00  0.00     0.161 HD
BRANCH  15  17
HETATM   17  C9  UNL     1      23.504   5.823  51.498  1.00  0.00     0.150 C 
BRANCH  17  18
HETATM   18  C10 UNL     1      24.680   5.775  50.592  1.00  0.00     0.014 C 
HETATM   19  C11 UNL     1      25.348   4.924  49.856  1.00  0.00     0.038 C 
HETATM   20 CL1  UNL     1      25.235   3.218  49.484  1.00  0.00    -0.087 Cl
BRANCH  19  21
HETATM   21  C12 UNL     1      26.529   5.362  49.074  1.00  0.00     0.273 C 
HETATM   22  F1  UNL     1      27.252   4.262  48.618  1.00  0.00    -0.250 F 
ENDBRANCH  19  21
ENDBRANCH  17  18
ENDBRANCH  15  17
ENDBRANCH  12  15
BRANCH  14  23
HETATM   23  N4  UNL     1      27.302   1.618  54.232  1.00  0.00    -0.325 N 
HETATM   24  C16 UNL     1      28.534   2.145  53.774  1.00  0.00     0.218 C 
HETATM   25  C17 UNL     1      29.606   2.022  54.784  1.00  0.00     0.117 C 
HETATM   26  O2  UNL     1      28.647   2.651  52.628  1.00  0.00    -0.274 OA
HETATM   27  H13 UNL     1      27.118   1.180  55.169  1.00  0.00     0.169 HD
ENDBRANCH  14  23
ENDBRANCH   4   5
ENDBRANCH   3   4
TORSDOF 7
ENDMDL
MODEL 2
REMARK VINA RESULT:      -7.0      2.544      4.172
REMARK  7 active torsions:
REMARK  status: ('A' for Active; 'I' for Inactive)
REMARK    1  A    between atoms: C3_3  and  O1_4 
REMARK    2  A    between atoms: O1_4  and  C4_5 
REMARK    3  A    between atoms: C8_11  and  N3_12 
REMARK    4  A    between atoms: N3_12  and  C9_13 
REMARK    5  A    between atoms: C9_13  and  C10_14 
REMARK    6  A    between atoms: C11_15  and  C12_17 
REMARK    7  A    between atoms: C15_21  and  N4_22 
REMARK       I    between atoms: N4_22  and  C16_23 
ROOT
HETATM    1  C1  UNL     1      30.169  -1.063  53.639  1.00  0.00     0.014 C 
HETATM    2  C2  UNL     1      29.437  -0.132  53.897  1.00  0.00    -0.091 C 
HETATM    3  C3  UNL     1      28.524   0.992  54.215  1.00  0.00     0.268 C 
ENDROOT
BRANCH   3   4
HETATM    4  O1  UNL     1      27.626   1.198  53.153  1.00  0.00    -0.337 OA
BRANCH   4   5
HETATM    5  C4  UNL     1      26.305   0.788  53.215  1.00  0.00     0.099 A 
HETATM    6  C5  UNL     1      25.833  -0.004  54.244  1.00  0.00     0.071 A 
HETATM    7  C6  UNL     1      24.510  -0.396  54.276  1.00  0.00     0.075 A 
HETATM    8  N1  UNL     1      24.083  -1.167  55.293  1.00  0.00    -0.241 NA
HETATM    9  C13 UNL     1      23.596  -0.033  53.309  1.00  0.00     0.041 A 
HETATM   10  C7  UNL     1      22.789  -1.535  55.301  1.00  0.00     0.235 A 
HETATM   11  N2  UNL     1      21.929  -1.161  54.338  1.00  0.00    -0.224 NA
HETATM   12  C8  UNL     1      22.269  -0.394  53.290  1.00  0.00     0.137 A 
HETATM   13  C14 UNL     1      24.109   0.756  52.302  1.00  0.00     0.050 A 
HETATM   14  C15 UNL     1      25.419   1.176  52.219  1.00  0.00     0.069 A 
BRANCH  12  15
HETATM   15  N3  UNL     1      21.356  -0.013  52.267  1.00  0.00    -0.370 N 
HETATM   16  H6  UNL     1      21.402  -0.327  51.280  1.00  0.00     0.161 HD
BRANCH  15  17
HETATM   17  C9  UNL     1      20.296   0.886  52.693  1.00  0.00     0.150 C 
BRANCH  17  18
HETATM   18  C10 UNL     1      20.634   2.241  52.186  1.00  0.00     0.014 C 
HETATM   19  C11 UNL     1      21.240   2.816  51.180  1.00  0.00     0.038 C 
HETATM   20 CL1  UNL     1      22.069   2.281  49.734  1.00  0.00    -0.087 Cl
BRANCH  19  21
HETATM   21  C12 UNL     1      21.333   4.294  51.093  1.00  0.00     0.273 C 
HETATM   22  F1  UNL     1      21.704   4.836  52.321  1.00  0.00    -0.250 F 
ENDBRANCH  19  21
ENDBRANCH  17  18
ENDBRANCH  15  17
ENDBRANCH  12  15
BRANCH  14  23
HETATM   23  N4  UNL     1      25.915   1.990  51.167  1.00  0.00    -0.325 N 
HETATM   24  C16 UNL     1      25.647   3.298  50.695  1.00  0.00     0.218 C 
HETATM   25  C17 UNL     1      26.481   3.656  49.528  1.00  0.00     0.117 C 
HETATM   26  O2  UNL     1      24.785   4.032  51.244  1.00  0.00    -0.274 OA
HETATM   27  H13 UNL     1      26.614   1.313  50.771  1.00  0.00     0.169 HD
ENDBRANCH  14  23
ENDBRANCH   4   5
ENDBRANCH   3   4
TORSDOF 7
ENDMDL
MODEL 3
REMARK VINA RESULT:      -7.0      2.467      3.841
REMARK  7 active torsions:
REMARK  status: ('A' for Active; 'I' for Inactive)
REMARK    1  A    between atoms: C3_3  and  O1_4 
REMARK    2  A    between atoms: O1_4  and  C4_5 
REMARK    3  A    between atoms: C8_11  and  N3_12 
REMARK    4  A    between atoms: N3_12  and  C9_13 
REMARK    5  A    between atoms: C9_13  and  C10_14 
REMARK    6  A    between atoms: C11_15  and  C12_17 
REMARK    7  A    between atoms: C15_21  and  N4_22 
REMARK       I    between atoms: N4_22  and  C16_23 
ROOT
HETATM    1  C1  UNL     1      29.720  -1.314  53.548  1.00  0.00     0.014 C 
HETATM    2  C2  UNL     1      29.325  -0.168  53.594  1.00  0.00    -0.091 C 
HETATM    3  C3  UNL     1      28.821   1.225  53.656  1.00  0.00     0.268 C 
ENDROOT
BRANCH   3   4
HETATM    4  O1  UNL     1      28.008   1.492  52.540  1.00  0.00    -0.337 OA
BRANCH   4   5
HETATM    5  C4  UNL     1      26.641   1.271  52.556  1.00  0.00     0.099 A 
HETATM    6  C5  UNL     1      26.052   0.392  53.443  1.00  0.00     0.071 A 
HETATM    7  C6  UNL     1      24.686   0.194  53.432  1.00  0.00     0.075 A 
HETATM    8  N1  UNL     1      24.145  -0.670  54.311  1.00  0.00    -0.241 NA
HETATM    9  C13 UNL     1      23.841   0.844  52.558  1.00  0.00     0.041 A 
HETATM   10  C7  UNL     1      22.811  -0.844  54.280  1.00  0.00     0.235 A 
HETATM   11  N2  UNL     1      22.022  -0.192  53.410  1.00  0.00    -0.224 NA
HETATM   12  C8  UNL     1      22.476   0.686  52.501  1.00  0.00     0.137 A 
HETATM   13  C14 UNL     1      24.469   1.711  51.689  1.00  0.00     0.050 A 
HETATM   14  C15 UNL     1      25.827   1.947  51.656  1.00  0.00     0.069 A 
BRANCH  12  15
HETATM   15  N3  UNL     1      21.635   1.363  51.575  1.00  0.00    -0.370 N 
HETATM   16  H6  UNL     1      21.611   1.187  50.553  1.00  0.00     0.161 HD
BRANCH  15  17
HETATM   17  C9  UNL     1      20.761   2.367  52.158  1.00  0.00     0.150 C 
BRANCH  17  18
HETATM   18  C10 UNL     1      21.130   3.677  51.561  1.00  0.00     0.014 C 
HETATM   19  C11 UNL     1      22.031   4.618  51.679  1.00  0.00     0.038 C 
HETATM   20 CL1  UNL     1      23.434   4.902  52.686  1.00  0.00    -0.087 Cl
BRANCH  19  21
HETATM   21  C12 UNL     1      21.995   5.817  50.807  1.00  0.00     0.273 C 
HETATM   22  F1  UNL     1      21.543   6.927  51.517  1.00  0.00    -0.250 F 
ENDBRANCH  19  21
ENDBRANCH  17  18
ENDBRANCH  15  17
ENDBRANCH  12  15
BRANCH  14  23
HETATM   23  N4  UNL     1      26.443   2.848  50.748  1.00  0.00    -0.325 N 
HETATM   24  C16 UNL     1      26.001   3.634  49.656  1.00  0.00     0.218 C 
HETATM   25  C17 UNL     1      27.099   4.414  49.045  1.00  0.00     0.117 C 
HETATM   26  O2  UNL     1      24.798   3.633  49.288  1.00  0.00    -0.274 OA
HETATM   27  H13 UNL     1      27.423   2.790  51.121  1.00  0.00     0.169 HD
ENDBRANCH  14  23
ENDBRANCH   4   5
ENDBRANCH   3   4
TORSDOF 7
ENDMDL
MODEL 4
REMARK VINA RESULT:      -7.0      3.199      5.867
REMARK  7 active torsions:
REMARK  status: ('A' for Active; 'I' for Inactive)
REMARK    1  A    between atoms: C3_3  and  O1_4 
REMARK    2  A    between atoms: O1_4  and  C4_5 
REMARK    3  A    between atoms: C8_11  and  N3_12 
REMARK    4  A    between atoms: N3_12  and  C9_13 
REMARK    5  A    between atoms: C9_13  and  C10_14 
REMARK    6  A    between atoms: C11_15  and  C12_17 
REMARK    7  A    between atoms: C15_21  and  N4_22 
REMARK       I    between atoms: N4_22  and  C16_23 
ROOT
HETATM    1  C1  UNL     1      23.384   5.405  52.672  1.00  0.00     0.014 C 
HETATM    2  C2  UNL     1      22.668   4.905  51.831  1.00  0.00    -0.091 C 
HETATM    3  C3  UNL     1      21.786   4.279  50.818  1.00  0.00     0.268 C 
ENDROOT
BRANCH   3   4
HETATM    4  O1  UNL     1      22.289   3.018  50.454  1.00  0.00    -0.337 OA
BRANCH   4   5
HETATM    5  C4  UNL     1      22.742   2.107  51.393  1.00  0.00     0.099 A 
HETATM    6  C5  UNL     1      21.881   1.451  52.250  1.00  0.00     0.071 A 
HETATM    7  C6  UNL     1      22.365   0.548  53.175  1.00  0.00     0.075 A 
HETATM    8  N1  UNL     1      21.498  -0.074  53.996  1.00  0.00    -0.241 NA
HETATM    9  C13 UNL     1      23.705   0.248  53.301  1.00  0.00     0.041 A 
HETATM   10  C7  UNL     1      21.996  -0.950  54.888  1.00  0.00     0.235 A 
HETATM   11  N2  UNL     1      23.310  -1.213  54.980  1.00  0.00    -0.224 NA
HETATM   12  C8  UNL     1      24.244  -0.640  54.203  1.00  0.00     0.137 A 
HETATM   13  C14 UNL     1      24.529   0.925  52.427  1.00  0.00     0.050 A 
HETATM   14  C15 UNL     1      24.101   1.836  51.485  1.00  0.00     0.069 A 
BRANCH  12  15
HETATM   15  N3  UNL     1      25.635  -0.914  54.315  1.00  0.00    -0.370 N 
HETATM   16  H6  UNL     1      26.129  -1.696  53.845  1.00  0.00     0.161 HD
BRANCH  15  17
HETATM   17  C9  UNL     1      26.376   0.003  55.165  1.00  0.00     0.150 C 
BRANCH  17  18
HETATM   18  C10 UNL     1      27.737   0.143  54.587  1.00  0.00     0.014 C 
HETATM   19  C11 UNL     1      28.601  -0.532  53.874  1.00  0.00     0.038 C 
HETATM   20 CL1  UNL     1      28.659  -2.116  53.130  1.00  0.00    -0.087 Cl
BRANCH  19  21
HETATM   21  C12 UNL     1      29.916   0.054  53.519  1.00  0.00     0.273 C 
HETATM   22  F1  UNL     1      30.949  -0.827  53.832  1.00  0.00    -0.250 F 
ENDBRANCH  19  21
ENDBRANCH  17  18
ENDBRANCH  15  17
ENDBRANCH  12  15
BRANCH  14  23
HETATM   23  N4  UNL     1      24.977   2.516  50.598  1.00  0.00    -0.325 N 
HETATM   24  C16 UNL     1      26.349   2.865  50.612  1.00  0.00     0.218 C 
HETATM   25  C17 UNL     1      26.755   3.593  49.391  1.00  0.00     0.117 C 
HETATM   26  O2  UNL     1      27.095   2.565  51.580  1.00  0.00    -0.274 OA
HETATM   27  H13 UNL     1      24.286   2.725  49.836  1.00  0.00     0.169 HD
ENDBRANCH  14  23
ENDBRANCH   4   5
ENDBRANCH   3   4
TORSDOF 7
ENDMDL
MODEL 5
REMARK VINA RESULT:      -7.0      3.683      6.734
REMARK  7 active torsions:
REMARK  status: ('A' for Active; 'I' for Inactive)
REMARK    1  A    between atoms: C3_3  and  O1_4 
REMARK    2  A    between atoms: O1_4  and  C4_5 
REMARK    3  A    between atoms: C8_11  and  N3_12 
REMARK    4  A    between atoms: N3_12  and  C9_13 
REMARK    5  A    between atoms: C9_13  and  C10_14 
REMARK    6  A    between atoms: C11_15  and  C12_17 
REMARK    7  A    between atoms: C15_21  and  N4_22 
REMARK       I    between atoms: N4_22  and  C16_23 
ROOT
HETATM    1  C1  UNL     1      27.347   5.943  48.582  1.00  0.00     0.014 C 
HETATM    2  C2  UNL     1      27.005   4.844  48.963  1.00  0.00    -0.091 C 
HETATM    3  C3  UNL     1      26.567   3.504  49.420  1.00  0.00     0.268 C 
ENDROOT
BRANCH   3   4
HETATM    4  O1  UNL     1      25.616   3.632  50.448  1.00  0.00    -0.337 OA
BRANCH   4   5
HETATM    5  C4  UNL     1      25.395   2.630  51.377  1.00  0.00     0.099 A 
HETATM    6  C5  UNL     1      26.312   2.336  52.368  1.00  0.00     0.071 A 
HETATM    7  C6  UNL     1      26.061   1.330  53.279  1.00  0.00     0.075 A 
HETATM    8  N1  UNL     1      26.975   1.071  54.232  1.00  0.00    -0.241 NA
HETATM    9  C13 UNL     1      24.910   0.571  53.261  1.00  0.00     0.041 A 
HETATM   10  C7  UNL     1      26.707   0.085  55.108  1.00  0.00     0.235 A 
HETATM   11  N2  UNL     1      25.572  -0.633  55.055  1.00  0.00    -0.224 NA
HETATM   12  C8  UNL     1      24.608  -0.442  54.141  1.00  0.00     0.137 A 
HETATM   13  C14 UNL     1      24.024   0.896  52.256  1.00  0.00     0.050 A 
HETATM   14  C15 UNL     1      24.222   1.890  51.321  1.00  0.00     0.069 A 
BRANCH  12  15
HETATM   15  N3  UNL     1      23.415  -1.215  54.084  1.00  0.00    -0.370 N 
HETATM   16  H6  UNL     1      23.251  -2.011  53.439  1.00  0.00     0.161 HD
BRANCH  15  17
HETATM   17  C9  UNL     1      22.380  -0.818  55.024  1.00  0.00     0.150 C 
BRANCH  17  18
HETATM   18  C10 UNL     1      21.087  -0.829  54.291  1.00  0.00     0.014 C 
HETATM   19  C11 UNL     1      20.348  -0.050  53.544  1.00  0.00     0.038 C 
HETATM   20 CL1  UNL     1      20.462   1.585  52.928  1.00  0.00    -0.087 Cl
BRANCH  19  21
HETATM   21  C12 UNL     1      19.053  -0.525  53.000  1.00  0.00     0.273 C 
HETATM   22  F1  UNL     1      18.651  -1.696  53.640  1.00  0.00    -0.250 F 
ENDBRANCH  19  21
ENDBRANCH  17  18
ENDBRANCH  15  17
ENDBRANCH  12  15
BRANCH  14  23
HETATM   23  N4  UNL     1      23.287   2.200  50.298  1.00  0.00    -0.325 N 
HETATM   24  C16 UNL     1      22.277   3.177  50.121  1.00  0.00     0.218 C 
HETATM   25  C17 UNL     1      21.582   3.037  48.824  1.00  0.00     0.117 C 
HETATM   26  O2  UNL     1      22.039   4.044  51.001  1.00  0.00    -0.274 OA
HETATM   27  H13 UNL     1      23.551   1.443  49.619  1.00  0.00     0.169 HD
ENDBRANCH  14  23
ENDBRANCH   4   5
ENDBRANCH   3   4
TORSDOF 7
ENDMDL
MODEL 6
REMARK VINA RESULT:      -6.9      2.566      3.910
REMARK  7 active torsions:
REMARK  status: ('A' for Active; 'I' for Inactive)
REMARK    1  A    between atoms: C3_3  and  O1_4 
REMARK    2  A    between atoms: O1_4  and  C4_5 
REMARK    3  A    between atoms: C8_11  and  N3_12 
REMARK    4  A    between atoms: N3_12  and  C9_13 
REMARK    5  A    between atoms: C9_13  and  C10_14 
REMARK    6  A    between atoms: C11_15  and  C12_17 
REMARK    7  A    between atoms: C15_21  and  N4_22 
REMARK       I    between atoms: N4_22  and  C16_23 
ROOT
HETATM    1  C1  UNL     1      30.107  -0.662  53.571  1.00  0.00     0.014 C 
HETATM    2  C2  UNL     1      28.994  -0.257  53.831  1.00  0.00    -0.091 C 
HETATM    3  C3  UNL     1      27.625   0.219  54.143  1.00  0.00     0.268 C 
ENDROOT
BRANCH   3   4
HETATM    4  O1  UNL     1      26.856   0.281  52.968  1.00  0.00    -0.337 OA
BRANCH   4   5
HETATM    5  C4  UNL     1      25.472   0.307  52.994  1.00  0.00     0.099 A 
HETATM    6  C5  UNL     1      24.740  -0.515  53.828  1.00  0.00     0.071 A 
HETATM    7  C6  UNL     1      23.361  -0.464  53.830  1.00  0.00     0.075 A 
HETATM    8  N1  UNL     1      22.679  -1.279  54.656  1.00  0.00    -0.241 NA
HETATM    9  C13 UNL     1      22.641   0.388  53.019  1.00  0.00     0.041 A 
HETATM   10  C7  UNL     1      21.336  -1.209  54.637  1.00  0.00     0.235 A 
HETATM   11  N2  UNL     1      20.671  -0.365  53.831  1.00  0.00    -0.224 NA
HETATM   12  C8  UNL     1      21.269   0.482  52.978  1.00  0.00     0.137 A 
HETATM   13  C14 UNL     1      23.410   1.190  52.202  1.00  0.00     0.050 A 
HETATM   14  C15 UNL     1      24.788   1.181  52.160  1.00  0.00     0.069 A 
BRANCH  12  15
HETATM   15  N3  UNL     1      20.558   1.364  52.118  1.00  0.00    -0.370 N 
HETATM   16  H6  UNL     1      20.454   2.385  52.265  1.00  0.00     0.161 HD
BRANCH  15  17
HETATM   17  C9  UNL     1      19.950   0.733  50.957  1.00  0.00     0.150 C 
BRANCH  17  18
HETATM   18  C10 UNL     1      20.831   1.004  49.792  1.00  0.00     0.014 C 
HETATM   19  C11 UNL     1      21.369   2.009  49.151  1.00  0.00     0.038 C 
HETATM   20 CL1  UNL     1      21.362   3.753  49.305  1.00  0.00    -0.087 Cl
BRANCH  19  21
HETATM   21  C12 UNL     1      22.234   1.779  47.969  1.00  0.00     0.273 C 
HETATM   22  F1  UNL     1      23.243   2.738  47.904  1.00  0.00    -0.250 F 
ENDBRANCH  19  21
ENDBRANCH  17  18
ENDBRANCH  15  17
ENDBRANCH  12  15
BRANCH  14  23
HETATM   23  N4  UNL     1      25.550   2.022  51.306  1.00  0.00    -0.325 N 
HETATM   24  C16 UNL     1      25.349   3.284  50.696  1.00  0.00     0.218 C 
HETATM   25  C17 UNL     1      26.508   3.704  49.881  1.00  0.00     0.117 C 
HETATM   26  O2  UNL     1      24.283   3.932  50.863  1.00  0.00    -0.274 OA
HETATM   27  H13 UNL     1      26.403   1.415  51.222  1.00  0.00     0.169 HD
ENDBRANCH  14  23
ENDBRANCH   4   5
ENDBRANCH   3   4
TORSDOF 7
ENDMDL
MODEL 7
REMARK VINA RESULT:      -6.8      3.004      4.222
REMARK  7 active torsions:
REMARK  status: ('A' for Active; 'I' for Inactive)
REMARK    1  A    between atoms: C3_3  and  O1_4 
REMARK    2  A    between atoms: O1_4  and  C4_5 
REMARK    3  A    between atoms: C8_11  and  N3_12 
REMARK    4  A    between atoms: N3_12  and  C9_13 
REMARK    5  A    between atoms: C9_13  and  C10_14 
REMARK    6  A    between atoms: C11_15  and  C12_17 
REMARK    7  A    between atoms: C15_21  and  N4_22 
REMARK       I    between atoms: N4_22  and  C16_23 
ROOT
HETATM    1  C1  UNL     1      29.901  -0.645  53.580  1.00  0.00     0.014 C 
HETATM    2  C2  UNL     1      28.791  -0.334  53.956  1.00  0.00    -0.091 C 
HETATM    3  C3  UNL     1      27.428   0.024  54.417  1.00  0.00     0.268 C 
ENDROOT
BRANCH   3   4
HETATM    4  O1  UNL     1      26.492  -0.240  53.402  1.00  0.00    -0.337 OA
BRANCH   4   5
HETATM    5  C4  UNL     1      25.959   0.765  52.612  1.00  0.00     0.099 A 
HETATM    6  C5  UNL     1      26.747   1.538  51.782  1.00  0.00     0.071 A 
HETATM    7  C6  UNL     1      26.184   2.532  51.007  1.00  0.00     0.075 A 
HETATM    8  N1  UNL     1      26.981   3.267  50.209  1.00  0.00    -0.241 NA
HETATM    9  C13 UNL     1      24.833   2.811  51.010  1.00  0.00     0.041 A 
HETATM   10  C7  UNL     1      26.407   4.229  49.464  1.00  0.00     0.235 A 
HETATM   11  N2  UNL     1      25.086   4.471  49.496  1.00  0.00    -0.224 NA
HETATM   12  C8  UNL     1      24.219   3.788  50.261  1.00  0.00     0.137 A 
HETATM   13  C14 UNL     1      24.085   2.017  51.852  1.00  0.00     0.050 A 
HETATM   14  C15 UNL     1      24.593   1.012  52.647  1.00  0.00     0.069 A 
BRANCH  12  15
HETATM   15  N3  UNL     1      22.823   4.059  50.299  1.00  0.00    -0.370 N 
HETATM   16  H6  UNL     1      22.115   3.476  50.786  1.00  0.00     0.161 HD
BRANCH  15  17
HETATM   17  C9  UNL     1      22.409   5.257  49.587  1.00  0.00     0.150 C 
BRANCH  17  18
HETATM   18  C10 UNL     1      21.884   4.828  48.265  1.00  0.00     0.014 C 
HETATM   19  C11 UNL     1      21.880   3.786  47.475  1.00  0.00     0.038 C 
HETATM   20 CL1  UNL     1      22.543   2.167  47.519  1.00  0.00    -0.087 Cl
BRANCH  19  21
HETATM   21  C12 UNL     1      21.176   3.826  46.170  1.00  0.00     0.273 C 
HETATM   22  F1  UNL     1      21.995   3.337  45.154  1.00  0.00    -0.250 F 
ENDBRANCH  19  21
ENDBRANCH  17  18
ENDBRANCH  15  17
ENDBRANCH  12  15
BRANCH  14  23
HETATM   23  N4  UNL     1      23.792   0.211  53.504  1.00  0.00    -0.325 N 
HETATM   24  C16 UNL     1      22.579  -0.506  53.367  1.00  0.00     0.218 C 
HETATM   25  C17 UNL     1      22.186  -1.188  54.618  1.00  0.00     0.117 C 
HETATM   26  O2  UNL     1      21.947  -0.527  52.279  1.00  0.00    -0.274 OA
HETATM   27  H13 UNL     1      24.383   0.282  54.370  1.00  0.00     0.169 HD
ENDBRANCH  14  23
ENDBRANCH   4   5
ENDBRANCH   3   4
TORSDOF 7
ENDMDL
MODEL 8
REMARK VINA RESULT:      -6.8      3.165      4.880
REMARK  7 active torsions:
REMARK  status: ('A' for Active; 'I' for Inactive)
REMARK    1  A    between atoms: C3_3  and  O1_4 
REMARK    2  A    between atoms: O1_4  and  C4_5 
REMARK    3  A    between atoms: C8_11  and  N3_12 
REMARK    4  A    between atoms: N3_12  and  C9_13 
REMARK    5  A    between atoms: C9_13  and  C10_14 
REMARK    6  A    between atoms: C11_15  and  C12_17 
REMARK    7  A    between atoms: C15_21  and  N4_22 
REMARK       I    between atoms: N4_22  and  C16_23 
ROOT
HETATM    1  C1  UNL     1      29.929  -1.091  53.578  1.00  0.00     0.014 C 
HETATM    2  C2  UNL     1      29.023  -0.448  54.064  1.00  0.00    -0.091 C 
HETATM    3  C3  UNL     1      27.907   0.318  54.668  1.00  0.00     0.268 C 
ENDROOT
BRANCH   3   4
HETATM    4  O1  UNL     1      26.694  -0.024  54.044  1.00  0.00    -0.337 OA
BRANCH   4   5
HETATM    5  C4  UNL     1      26.100   0.787  53.092  1.00  0.00     0.099 A 
HETATM    6  C5  UNL     1      26.845   1.559  52.221  1.00  0.00     0.071 A 
HETATM    7  C6  UNL     1      26.222   2.357  51.283  1.00  0.00     0.075 A 
HETATM    8  N1  UNL     1      26.978   3.096  50.450  1.00  0.00    -0.241 NA
HETATM    9  C13 UNL     1      24.851   2.435  51.157  1.00  0.00     0.041 A 
HETATM   10  C7  UNL     1      26.346   3.865  49.545  1.00  0.00     0.235 A 
HETATM   11  N2  UNL     1      25.007   3.915  49.455  1.00  0.00    -0.224 NA
HETATM   12  C8  UNL     1      24.177   3.212  50.243  1.00  0.00     0.137 A 
HETATM   13  C14 UNL     1      24.147   1.651  52.045  1.00  0.00     0.050 A 
HETATM   14  C15 UNL     1      24.716   0.836  53.000  1.00  0.00     0.069 A 
BRANCH  12  15
HETATM   15  N3  UNL     1      22.759   3.280  50.150  1.00  0.00    -0.370 N 
HETATM   16  H6  UNL     1      22.141   3.781  50.816  1.00  0.00     0.161 HD
BRANCH  15  17
HETATM   17  C9  UNL     1      22.184   2.578  49.015  1.00  0.00     0.150 C 
BRANCH  17  18
HETATM   18  C10 UNL     1      21.012   1.813  49.514  1.00  0.00     0.014 C 
HETATM   19  C11 UNL     1      20.022   1.929  50.362  1.00  0.00     0.038 C 
HETATM   20 CL1  UNL     1      19.462   3.147  51.487  1.00  0.00    -0.087 Cl
BRANCH  19  21
HETATM   21  C12 UNL     1      19.034   0.837  50.529  1.00  0.00     0.273 C 
HETATM   22  F1  UNL     1      19.532  -0.152  51.374  1.00  0.00    -0.250 F 
ENDBRANCH  19  21
ENDBRANCH  17  18
ENDBRANCH  15  17
ENDBRANCH  12  15
BRANCH  14  23
HETATM   23  N4  UNL     1      23.960   0.039  53.900  1.00  0.00    -0.325 N 
HETATM   24  C16 UNL     1      22.842  -0.822  53.786  1.00  0.00     0.218 C 
HETATM   25  C17 UNL     1      22.454  -1.415  55.083  1.00  0.00     0.117 C 
HETATM   26  O2  UNL     1      22.278  -1.025  52.679  1.00  0.00    -0.274 OA
HETATM   27  H13 UNL     1      24.489   0.264  54.780  1.00  0.00     0.169 HD
ENDBRANCH  14  23
ENDBRANCH   4   5
ENDBRANCH   3   4
TORSDOF 7
ENDMDL
MODEL 9
REMARK VINA RESULT:      -6.7      3.851      6.203
REMARK  7 active torsions:
REMARK  status: ('A' for Active; 'I' for Inactive)
REMARK    1  A    between atoms: C3_3  and  O1_4 
REMARK    2  A    between atoms: O1_4  and  C4_5 
REMARK    3  A    between atoms: C8_11  and  N3_12 
REMARK    4  A    between atoms: N3_12  and  C9_13 
REMARK    5  A    between atoms: C9_13  and  C10_14 
REMARK    6  A    between atoms: C11_15  and  C12_17 
REMARK    7  A    between atoms: C15_21  and  N4_22 
REMARK       I    between atoms: N4_22  and  C16_23 
ROOT
HETATM    1  C1  UNL     1      28.072   6.411  48.240  1.00  0.00     0.014 C 
HETATM    2  C2  UNL     1      27.641   5.328  48.575  1.00  0.00    -0.091 C 
HETATM    3  C3  UNL     1      27.093   4.011  48.979  1.00  0.00     0.268 C 
ENDROOT
BRANCH   3   4
HETATM    4  O1  UNL     1      26.280   4.156  50.117  1.00  0.00    -0.337 OA
BRANCH   4   5
HETATM    5  C4  UNL     1      25.192   3.333  50.354  1.00  0.00     0.099 A 
HETATM    6  C5  UNL     1      24.123   3.265  49.482  1.00  0.00     0.071 A 
HETATM    7  C6  UNL     1      23.053   2.435  49.748  1.00  0.00     0.075 A 
HETATM    8  N1  UNL     1      22.027   2.392  48.877  1.00  0.00    -0.241 NA
HETATM    9  C13 UNL     1      22.982   1.638  50.871  1.00  0.00     0.041 A 
HETATM   10  C7  UNL     1      20.997   1.574  49.160  1.00  0.00     0.235 A 
HETATM   11  N2  UNL     1      20.966   0.814  50.267  1.00  0.00    -0.224 NA
HETATM   12  C8  UNL     1      21.944   0.794  51.188  1.00  0.00     0.137 A 
HETATM   13  C14 UNL     1      24.069   1.737  51.714  1.00  0.00     0.050 A 
HETATM   14  C15 UNL     1      25.163   2.548  51.499  1.00  0.00     0.069 A 
BRANCH  12  15
HETATM   15  N3  UNL     1      21.898  -0.004  52.365  1.00  0.00    -0.370 N 
HETATM   16  H6  UNL     1      22.430  -0.883  52.511  1.00  0.00     0.161 HD
BRANCH  15  17
HETATM   17  C9  UNL     1      21.022   0.496  53.412  1.00  0.00     0.150 C 
BRANCH  17  18
HETATM   18  C10 UNL     1      19.842  -0.405  53.472  1.00  0.00     0.014 C 
HETATM   19  C11 UNL     1      18.697  -0.603  52.873  1.00  0.00     0.038 C 
HETATM   20 CL1  UNL     1      17.822   0.136  51.549  1.00  0.00    -0.087 Cl
BRANCH  19  21
HETATM   21  C12 UNL     1      17.792  -1.696  53.306  1.00  0.00     0.273 C 
HETATM   22  F1  UNL     1      18.501  -2.675  53.998  1.00  0.00    -0.250 F 
ENDBRANCH  19  21
ENDBRANCH  17  18
ENDBRANCH  15  17
ENDBRANCH  12  15
BRANCH  14  23
HETATM   23  N4  UNL     1      26.267   2.626  52.388  1.00  0.00    -0.325 N 
HETATM   24  C16 UNL     1      27.276   1.731  52.819  1.00  0.00     0.218 C 
HETATM   25  C17 UNL     1      28.204   2.354  53.786  1.00  0.00     0.117 C 
HETATM   26  O2  UNL     1      27.330   0.547  52.396  1.00  0.00    -0.274 OA
HETATM   27  H13 UNL     1      26.148   3.625  52.688  1.00  0.00     0.169 HD
ENDBRANCH  14  23
ENDBRANCH   4   5
ENDBRANCH   3   4
TORSDOF 7
ENDMDL
