MODEL 1
REMARK VINA RESULT:      -6.3      0.000      0.000
REMARK  7 active torsions:
REMARK  status: ('A' for Active; 'I' for Inactive)
REMARK    1  A    between atoms: O1_2  and  C2_3 
REMARK    2  A    between atoms: C5_6  and  C6_7 
REMARK    3  A    between atoms: C6_7  and  C7_8 
REMARK    4  A    between atoms: C7_8  and  C8_9 
REMARK    5  A    between atoms: C8_9  and  N1_10 
REMARK    6  A    between atoms: N1_10  and  C9_11 
REMARK    7  A    between atoms: C9_11  and  S1_12 
ROOT
HETATM    1  C8  UNL     1      20.219   1.662  52.644  1.00  0.00     0.271 C 
ENDROOT
BRANCH   1   2
HETATM    2  C7  UNL     1      21.358   0.920  53.206  1.00  0.00     0.034 C 
BRANCH   2   3
HETATM    3  C6  UNL     1      22.429   0.388  52.345  1.00  0.00     0.040 C 
BRANCH   3   4
HETATM    4  C5  UNL     1      23.781   0.584  53.035  1.00  0.00    -0.058 A 
HETATM    5  C4  UNL     1      24.486   1.761  52.967  1.00  0.00     0.010 A 
HETATM    6  C3  UNL     1      25.703   1.837  53.628  1.00  0.00     0.037 A 
HETATM    7  C2  UNL     1      26.218   0.758  54.351  1.00  0.00     0.068 A 
HETATM    8  C16 UNL     1      25.476  -0.405  54.394  1.00  0.00     0.037 A 
HETATM    9  C15 UNL     1      24.266  -0.499  53.743  1.00  0.00     0.010 A 
BRANCH   7  10
HETATM   10  O1  UNL     1      27.447   0.877  55.003  1.00  0.00    -0.356 OA
HETATM   11  C1  UNL     1      28.579   0.283  54.403  1.00  0.00     0.210 C 
ENDBRANCH   7  10
ENDBRANCH   3   4
ENDBRANCH   2   3
ENDBRANCH   1   2
BRANCH   1  12
HETATM   12  N1  UNL     1      20.126   3.065  52.728  1.00  0.00     0.092 NA
HETATM   13  H12 UNL     1      19.233   3.308  53.207  1.00  0.00     0.316 HD
BRANCH  12  14
HETATM   14  C9  UNL     1      20.297   3.816  51.555  1.00  0.00     0.341 C 
BRANCH  14  15
HETATM   15  S1  UNL     1      22.037   3.897  50.928  1.00  0.00    -0.145 SA
HETATM   16  C10 UNL     1      22.610   2.913  49.777  1.00  0.00     0.041 A 
HETATM   17  C11 UNL     1      24.006   3.144  49.429  1.00  0.00     0.025 A 
HETATM   18  C12 UNL     1      24.780   4.062  49.977  1.00  0.00     0.011 A 
HETATM   19 BR1  UNL     1      26.598   4.166  49.341  1.00  0.00    -0.051 Br
HETATM   20  C13 UNL     1      24.401   5.019  51.024  1.00  0.00     0.025 A 
HETATM   21  C14 UNL     1      23.188   5.093  51.584  1.00  0.00     0.041 A 
ENDBRANCH  14  15
ENDBRANCH  12  14
ENDBRANCH   1  12
TORSDOF 7
ENDMDL
MODEL 2
REMARK VINA RESULT:      -6.2      2.890      3.909
REMARK  7 active torsions:
REMARK  status: ('A' for Active; 'I' for Inactive)
REMARK    1  A    between atoms: O1_2  and  C2_3 
REMARK    2  A    between atoms: C5_6  and  C6_7 
REMARK    3  A    between atoms: C6_7  and  C7_8 
REMARK    4  A    between atoms: C7_8  and  C8_9 
REMARK    5  A    between atoms: C8_9  and  N1_10 
REMARK    6  A    between atoms: N1_10  and  C9_11 
REMARK    7  A    between atoms: C9_11  and  S1_12 
ROOT
HETATM    1  C8  UNL     1      23.265   5.038  51.650  1.00  0.00     0.271 C 
ENDROOT
BRANCH   1   2
HETATM    2  C7  UNL     1      23.880   3.702  51.613  1.00  0.00     0.034 C 
BRANCH   2   3
HETATM    3  C6  UNL     1      23.237   2.541  52.255  1.00  0.00     0.040 C 
BRANCH   3   4
HETATM    4  C5  UNL     1      24.301   1.697  52.962  1.00  0.00    -0.058 A 
HETATM    5  C4  UNL     1      24.194   0.335  53.105  1.00  0.00     0.010 A 
HETATM    6  C3  UNL     1      25.213  -0.338  53.762  1.00  0.00     0.037 A 
HETATM    7  C2  UNL     1      26.329   0.331  54.272  1.00  0.00     0.068 A 
HETATM    8  C16 UNL     1      26.396   1.700  54.104  1.00  0.00     0.037 A 
HETATM    9  C15 UNL     1      25.394   2.384  53.456  1.00  0.00     0.010 A 
BRANCH   7  10
HETATM   10  O1  UNL     1      27.334  -0.386  54.927  1.00  0.00    -0.356 OA
HETATM   11  C1  UNL     1      28.673   0.014  54.730  1.00  0.00     0.210 C 
ENDBRANCH   7  10
ENDBRANCH   3   4
ENDBRANCH   2   3
ENDBRANCH   1   2
BRANCH   1  12
HETATM   12  N1  UNL     1      23.989   6.182  52.039  1.00  0.00     0.092 NA
HETATM   13  H12 UNL     1      23.610   6.517  52.951  1.00  0.00     0.316 HD
BRANCH  12  14
HETATM   14  C9  UNL     1      24.114   7.236  51.121  1.00  0.00     0.341 C 
BRANCH  14  15
HETATM   15  S1  UNL     1      25.649   7.191  50.089  1.00  0.00    -0.145 SA
HETATM   16  C10 UNL     1      26.641   8.460  49.920  1.00  0.00     0.041 A 
HETATM   17  C11 UNL     1      27.793   8.213  49.064  1.00  0.00     0.025 A 
HETATM   18  C12 UNL     1      28.051   7.071  48.454  1.00  0.00     0.011 A 
HETATM   19 BR1  UNL     1      29.646   6.998  47.372  1.00  0.00    -0.051 Br
HETATM   20  C13 UNL     1      27.250   5.843  48.514  1.00  0.00     0.025 A 
HETATM   21  C14 UNL     1      26.116   5.708  49.211  1.00  0.00     0.041 A 
ENDBRANCH  14  15
ENDBRANCH  12  14
ENDBRANCH   1  12
TORSDOF 7
ENDMDL
MODEL 3
REMARK VINA RESULT:      -6.2      2.205      2.742
REMARK  7 active torsions:
REMARK  status: ('A' for Active; 'I' for Inactive)
REMARK    1  A    between atoms: O1_2  and  C2_3 
REMARK    2  A    between atoms: C5_6  and  C6_7 
REMARK    3  A    between atoms: C6_7  and  C7_8 
REMARK    4  A    between atoms: C7_8  and  C8_9 
REMARK    5  A    between atoms: C8_9  and  N1_10 
REMARK    6  A    between atoms: N1_10  and  C9_11 
REMARK    7  A    between atoms: C9_11  and  S1_12 
ROOT
HETATM    1  C8  UNL     1      22.664   1.007  51.587  1.00  0.00     0.271 C 
ENDROOT
BRANCH   1   2
HETATM    2  C7  UNL     1      22.978   0.691  52.989  1.00  0.00     0.034 C 
BRANCH   2   3
HETATM    3  C6  UNL     1      23.609  -0.586  53.367  1.00  0.00     0.040 C 
BRANCH   3   4
HETATM    4  C5  UNL     1      25.120  -0.384  53.511  1.00  0.00    -0.058 A 
HETATM    5  C4  UNL     1      25.988  -0.491  52.452  1.00  0.00     0.010 A 
HETATM    6  C3  UNL     1      27.340  -0.289  52.689  1.00  0.00     0.037 A 
HETATM    7  C2  UNL     1      27.828   0.016  53.962  1.00  0.00     0.068 A 
HETATM    8  C16 UNL     1      26.919   0.115  54.997  1.00  0.00     0.037 A 
HETATM    9  C15 UNL     1      25.575  -0.083  54.781  1.00  0.00     0.010 A 
BRANCH   7  10
HETATM   10  O1  UNL     1      29.197   0.213  54.156  1.00  0.00    -0.356 OA
HETATM   11  C1  UNL     1      30.092  -0.700  53.557  1.00  0.00     0.210 C 
ENDBRANCH   7  10
ENDBRANCH   3   4
ENDBRANCH   2   3
ENDBRANCH   1   2
BRANCH   1  12
HETATM   12  N1  UNL     1      23.364   1.996  50.870  1.00  0.00     0.092 NA
HETATM   13  H12 UNL     1      23.836   1.543  50.059  1.00  0.00     0.316 HD
BRANCH  12  14
HETATM   14  C9  UNL     1      24.247   2.830  51.572  1.00  0.00     0.341 C 
BRANCH  14  15
HETATM   15  S1  UNL     1      25.256   3.965  50.513  1.00  0.00    -0.145 SA
HETATM   16  C10 UNL     1      26.559   3.478  49.685  1.00  0.00     0.041 A 
HETATM   17  C11 UNL     1      27.208   4.529  48.913  1.00  0.00     0.025 A 
HETATM   18  C12 UNL     1      26.808   5.786  48.861  1.00  0.00     0.011 A 
HETATM   19 BR1  UNL     1      27.843   6.989  47.764  1.00  0.00    -0.051 Br
HETATM   20  C13 UNL     1      25.653   6.369  49.554  1.00  0.00     0.025 A 
HETATM   21  C14 UNL     1      24.824   5.690  50.355  1.00  0.00     0.041 A 
ENDBRANCH  14  15
ENDBRANCH  12  14
ENDBRANCH   1  12
TORSDOF 7
ENDMDL
MODEL 4
REMARK VINA RESULT:      -6.1      4.262      7.242
REMARK  7 active torsions:
REMARK  status: ('A' for Active; 'I' for Inactive)
REMARK    1  A    between atoms: O1_2  and  C2_3 
REMARK    2  A    between atoms: C5_6  and  C6_7 
REMARK    3  A    between atoms: C6_7  and  C7_8 
REMARK    4  A    between atoms: C7_8  and  C8_9 
REMARK    5  A    between atoms: C8_9  and  N1_10 
REMARK    6  A    between atoms: N1_10  and  C9_11 
REMARK    7  A    between atoms: C9_11  and  S1_12 
ROOT
HETATM    1  C8  UNL     1      23.929   3.503  50.771  1.00  0.00     0.271 C 
ENDROOT
BRANCH   1   2
HETATM    2  C7  UNL     1      24.734   3.479  49.540  1.00  0.00     0.034 C 
BRANCH   2   3
HETATM    3  C6  UNL     1      26.202   3.594  49.579  1.00  0.00     0.040 C 
BRANCH   3   4
HETATM    4  C5  UNL     1      26.624   4.936  48.976  1.00  0.00    -0.058 A 
HETATM    5  C4  UNL     1      25.750   5.983  48.809  1.00  0.00     0.010 A 
HETATM    6  C3  UNL     1      26.231   7.158  48.252  1.00  0.00     0.037 A 
HETATM    7  C2  UNL     1      27.566   7.298  47.865  1.00  0.00     0.068 A 
HETATM    8  C16 UNL     1      28.410   6.221  48.053  1.00  0.00     0.037 A 
HETATM    9  C15 UNL     1      27.950   5.047  48.602  1.00  0.00     0.010 A 
BRANCH   7  10
HETATM   10  O1  UNL     1      28.010   8.500  47.309  1.00  0.00    -0.356 OA
HETATM   11  C1  UNL     1      27.118   9.225  46.490  1.00  0.00     0.210 C 
ENDBRANCH   7  10
ENDBRANCH   3   4
ENDBRANCH   2   3
ENDBRANCH   1   2
BRANCH   1  12
HETATM   12  N1  UNL     1      24.497   3.784  52.029  1.00  0.00     0.092 NA
HETATM   13  H12 UNL     1      25.486   4.080  51.885  1.00  0.00     0.316 HD
BRANCH  12  14
HETATM   14  C9  UNL     1      24.396   2.814  53.038  1.00  0.00     0.341 C 
BRANCH  14  15
HETATM   15  S1  UNL     1      25.832   1.651  53.145  1.00  0.00    -0.145 SA
HETATM   16  C10 UNL     1      27.368   2.149  53.266  1.00  0.00     0.041 A 
HETATM   17  C11 UNL     1      28.346   1.071  53.338  1.00  0.00     0.025 A 
HETATM   18  C12 UNL     1      28.055  -0.216  53.311  1.00  0.00     0.011 A 
HETATM   19 BR1  UNL     1      29.535  -1.449  53.421  1.00  0.00    -0.051 Br
HETATM   20  C13 UNL     1      26.718  -0.813  53.206  1.00  0.00     0.025 A 
HETATM   21  C14 UNL     1      25.579  -0.116  53.120  1.00  0.00     0.041 A 
ENDBRANCH  14  15
ENDBRANCH  12  14
ENDBRANCH   1  12
TORSDOF 7
ENDMDL
MODEL 5
REMARK VINA RESULT:      -6.1      2.374      2.946
REMARK  7 active torsions:
REMARK  status: ('A' for Active; 'I' for Inactive)
REMARK    1  A    between atoms: O1_2  and  C2_3 
REMARK    2  A    between atoms: C5_6  and  C6_7 
REMARK    3  A    between atoms: C6_7  and  C7_8 
REMARK    4  A    between atoms: C7_8  and  C8_9 
REMARK    5  A    between atoms: C8_9  and  N1_10 
REMARK    6  A    between atoms: N1_10  and  C9_11 
REMARK    7  A    between atoms: C9_11  and  S1_12 
ROOT
HETATM    1  C8  UNL     1      23.700   4.313  52.063  1.00  0.00     0.271 C 
ENDROOT
BRANCH   1   2
HETATM    2  C7  UNL     1      23.490   3.007  52.707  1.00  0.00     0.034 C 
BRANCH   2   3
HETATM    3  C6  UNL     1      23.546   1.752  51.937  1.00  0.00     0.040 C 
BRANCH   3   4
HETATM    4  C5  UNL     1      24.767   0.940  52.376  1.00  0.00    -0.058 A 
HETATM    5  C4  UNL     1      25.998   1.069  51.780  1.00  0.00     0.010 A 
HETATM    6  C3  UNL     1      27.042   0.287  52.252  1.00  0.00     0.037 A 
HETATM    7  C2  UNL     1      26.869  -0.614  53.306  1.00  0.00     0.068 A 
HETATM    8  C16 UNL     1      25.616  -0.711  53.876  1.00  0.00     0.037 A 
HETATM    9  C15 UNL     1      24.568   0.057  53.420  1.00  0.00     0.010 A 
BRANCH   7  10
HETATM   10  O1  UNL     1      27.947  -1.383  53.751  1.00  0.00    -0.356 OA
HETATM   11  C1  UNL     1      29.206  -0.755  53.877  1.00  0.00     0.210 C 
ENDBRANCH   7  10
ENDBRANCH   3   4
ENDBRANCH   2   3
ENDBRANCH   1   2
BRANCH   1  12
HETATM   12  N1  UNL     1      22.792   4.837  51.122  1.00  0.00     0.092 NA
HETATM   13  H12 UNL     1      21.838   4.484  51.354  1.00  0.00     0.316 HD
BRANCH  12  14
HETATM   14  C9  UNL     1      23.077   4.677  49.758  1.00  0.00     0.341 C 
BRANCH  14  15
HETATM   15  S1  UNL     1      24.835   5.011  49.286  1.00  0.00    -0.145 SA
HETATM   16  C10 UNL     1      26.008   3.900  49.394  1.00  0.00     0.041 A 
HETATM   17  C11 UNL     1      27.321   4.369  48.972  1.00  0.00     0.025 A 
HETATM   18  C12 UNL     1      27.585   5.586  48.533  1.00  0.00     0.011 A 
HETATM   19 BR1  UNL     1      29.411   5.960  48.035  1.00  0.00    -0.051 Br
HETATM   20  C13 UNL     1      26.630   6.691  48.381  1.00  0.00     0.025 A 
HETATM   21  C14 UNL     1      25.327   6.616  48.676  1.00  0.00     0.041 A 
ENDBRANCH  14  15
ENDBRANCH  12  14
ENDBRANCH   1  12
TORSDOF 7
ENDMDL
MODEL 6
REMARK VINA RESULT:      -6.0      1.921      2.676
REMARK  7 active torsions:
REMARK  status: ('A' for Active; 'I' for Inactive)
REMARK    1  A    between atoms: O1_2  and  C2_3 
REMARK    2  A    between atoms: C5_6  and  C6_7 
REMARK    3  A    between atoms: C6_7  and  C7_8 
REMARK    4  A    between atoms: C7_8  and  C8_9 
REMARK    5  A    between atoms: C8_9  and  N1_10 
REMARK    6  A    between atoms: N1_10  and  C9_11 
REMARK    7  A    between atoms: C9_11  and  S1_12 
ROOT
HETATM    1  C8  UNL     1      21.712   2.309  50.291  1.00  0.00     0.271 C 
ENDROOT
BRANCH   1   2
HETATM    2  C7  UNL     1      22.723   1.664  51.142  1.00  0.00     0.034 C 
BRANCH   2   3
HETATM    3  C6  UNL     1      22.816   1.956  52.583  1.00  0.00     0.040 C 
BRANCH   3   4
HETATM    4  C5  UNL     1      24.045   1.255  53.167  1.00  0.00    -0.058 A 
HETATM    5  C4  UNL     1      24.059  -0.084  53.477  1.00  0.00     0.010 A 
HETATM    6  C3  UNL     1      25.223  -0.624  54.001  1.00  0.00     0.037 A 
HETATM    7  C2  UNL     1      26.364   0.153  54.217  1.00  0.00     0.068 A 
HETATM    8  C16 UNL     1      26.306   1.493  53.891  1.00  0.00     0.037 A 
HETATM    9  C15 UNL     1      25.159   2.047  53.370  1.00  0.00     0.010 A 
BRANCH   7  10
HETATM   10  O1  UNL     1      27.517  -0.432  54.747  1.00  0.00    -0.356 OA
HETATM   11  C1  UNL     1      28.689   0.352  54.819  1.00  0.00     0.210 C 
ENDBRANCH   7  10
ENDBRANCH   3   4
ENDBRANCH   2   3
ENDBRANCH   1   2
BRANCH   1  12
HETATM   12  N1  UNL     1      21.997   3.462  49.535  1.00  0.00     0.092 NA
HETATM   13  H12 UNL     1      22.512   3.174  48.675  1.00  0.00     0.316 HD
BRANCH  12  14
HETATM   14  C9  UNL     1      22.634   4.538  50.173  1.00  0.00     0.341 C 
BRANCH  14  15
HETATM   15  S1  UNL     1      24.374   4.849  49.625  1.00  0.00    -0.145 SA
HETATM   16  C10 UNL     1      24.857   6.243  48.957  1.00  0.00     0.041 A 
HETATM   17  C11 UNL     1      26.268   6.281  48.598  1.00  0.00     0.025 A 
HETATM   18  C12 UNL     1      27.121   5.290  48.779  1.00  0.00     0.011 A 
HETATM   19 BR1  UNL     1      28.941   5.589  48.215  1.00  0.00    -0.051 Br
HETATM   20  C13 UNL     1      26.830   3.977  49.367  1.00  0.00     0.025 A 
HETATM   21  C14 UNL     1      25.628   3.593  49.812  1.00  0.00     0.041 A 
ENDBRANCH  14  15
ENDBRANCH  12  14
ENDBRANCH   1  12
TORSDOF 7
ENDMDL
MODEL 7
REMARK VINA RESULT:      -6.0      4.453      7.387
REMARK  7 active torsions:
REMARK  status: ('A' for Active; 'I' for Inactive)
REMARK    1  A    between atoms: O1_2  and  C2_3 
REMARK    2  A    between atoms: C5_6  and  C6_7 
REMARK    3  A    between atoms: C6_7  and  C7_8 
REMARK    4  A    between atoms: C7_8  and  C8_9 
REMARK    5  A    between atoms: C8_9  and  N1_10 
REMARK    6  A    between atoms: N1_10  and  C9_11 
REMARK    7  A    between atoms: C9_11  and  S1_12 
ROOT
HETATM    1  C8  UNL     1      24.259   4.139  51.197  1.00  0.00     0.271 C 
ENDROOT
BRANCH   1   2
HETATM    2  C7  UNL     1      25.387   4.367  50.280  1.00  0.00     0.034 C 
BRANCH   2   3
HETATM    3  C6  UNL     1      25.246   5.216  49.084  1.00  0.00     0.040 C 
BRANCH   3   4
HETATM    4  C5  UNL     1      26.632   5.664  48.612  1.00  0.00    -0.058 A 
HETATM    5  C4  UNL     1      27.733   4.843  48.657  1.00  0.00     0.010 A 
HETATM    6  C3  UNL     1      28.944   5.345  48.206  1.00  0.00     0.037 A 
HETATM    7  C2  UNL     1      29.065   6.647  47.713  1.00  0.00     0.068 A 
HETATM    8  C16 UNL     1      27.933   7.436  47.685  1.00  0.00     0.037 A 
HETATM    9  C15 UNL     1      26.723   6.956  48.130  1.00  0.00     0.010 A 
BRANCH   7  10
HETATM   10  O1  UNL     1      30.304   7.112  47.268  1.00  0.00    -0.356 OA
HETATM   11  C1  UNL     1      30.321   8.144  46.304  1.00  0.00     0.210 C 
ENDBRANCH   7  10
ENDBRANCH   3   4
ENDBRANCH   2   3
ENDBRANCH   1   2
BRANCH   1  12
HETATM   12  N1  UNL     1      24.450   3.916  52.575  1.00  0.00     0.092 NA
HETATM   13  H12 UNL     1      25.389   4.282  52.840  1.00  0.00     0.316 HD
BRANCH  12  14
HETATM   14  C9  UNL     1      24.246   2.622  53.076  1.00  0.00     0.341 C 
BRANCH  14  15
HETATM   15  S1  UNL     1      25.773   1.583  53.193  1.00  0.00    -0.145 SA
HETATM   16  C10 UNL     1      27.245   2.199  53.469  1.00  0.00     0.041 A 
HETATM   17  C11 UNL     1      28.311   1.208  53.524  1.00  0.00     0.025 A 
HETATM   18  C12 UNL     1      28.144  -0.092  53.369  1.00  0.00     0.011 A 
HETATM   19 BR1  UNL     1      29.720  -1.197  53.486  1.00  0.00    -0.051 Br
HETATM   20  C13 UNL     1      26.878  -0.791  53.115  1.00  0.00     0.025 A 
HETATM   21  C14 UNL     1      25.687  -0.190  53.002  1.00  0.00     0.041 A 
ENDBRANCH  14  15
ENDBRANCH  12  14
ENDBRANCH   1  12
TORSDOF 7
ENDMDL
MODEL 8
REMARK VINA RESULT:      -5.9      2.959      5.136
REMARK  7 active torsions:
REMARK  status: ('A' for Active; 'I' for Inactive)
REMARK    1  A    between atoms: O1_2  and  C2_3 
REMARK    2  A    between atoms: C5_6  and  C6_7 
REMARK    3  A    between atoms: C6_7  and  C7_8 
REMARK    4  A    between atoms: C7_8  and  C8_9 
REMARK    5  A    between atoms: C8_9  and  N1_10 
REMARK    6  A    between atoms: N1_10  and  C9_11 
REMARK    7  A    between atoms: C9_11  and  S1_12 
ROOT
HETATM    1  C8  UNL     1      23.217   3.888  51.374  1.00  0.00     0.271 C 
ENDROOT
BRANCH   1   2
HETATM    2  C7  UNL     1      22.543   2.865  50.560  1.00  0.00     0.034 C 
BRANCH   2   3
HETATM    3  C6  UNL     1      21.192   2.382  50.896  1.00  0.00     0.040 C 
BRANCH   3   4
HETATM    4  C5  UNL     1      21.283   1.378  52.048  1.00  0.00    -0.058 A 
HETATM    5  C4  UNL     1      20.523   1.484  53.188  1.00  0.00     0.010 A 
HETATM    6  C3  UNL     1      20.680   0.522  54.174  1.00  0.00     0.037 A 
HETATM    7  C2  UNL     1      21.581  -0.537  54.034  1.00  0.00     0.068 A 
HETATM    8  C16 UNL     1      22.324  -0.605  52.872  1.00  0.00     0.037 A 
HETATM    9  C15 UNL     1      22.182   0.341  51.883  1.00  0.00     0.010 A 
BRANCH   7  10
HETATM   10  O1  UNL     1      21.708  -1.485  55.052  1.00  0.00    -0.356 OA
HETATM   11  C1  UNL     1      22.989  -1.699  55.606  1.00  0.00     0.210 C 
ENDBRANCH   7  10
ENDBRANCH   3   4
ENDBRANCH   2   3
ENDBRANCH   1   2
BRANCH   1  12
HETATM   12  N1  UNL     1      24.477   3.664  51.962  1.00  0.00     0.092 NA
HETATM   13  H12 UNL     1      25.124   3.304  51.228  1.00  0.00     0.316 HD
BRANCH  12  14
HETATM   14  C9  UNL     1      24.540   2.882  53.126  1.00  0.00     0.341 C 
BRANCH  14  15
HETATM   15  S1  UNL     1      26.007   1.757  53.229  1.00  0.00    -0.145 SA
HETATM   16  C10 UNL     1      27.513   2.288  53.499  1.00  0.00     0.041 A 
HETATM   17  C11 UNL     1      28.521   1.238  53.543  1.00  0.00     0.025 A 
HETATM   18  C12 UNL     1      28.280  -0.050  53.382  1.00  0.00     0.011 A 
HETATM   19 BR1  UNL     1      29.792  -1.243  53.485  1.00  0.00    -0.051 Br
HETATM   20  C13 UNL     1      26.975  -0.674  53.132  1.00  0.00     0.025 A 
HETATM   21  C14 UNL     1      25.820  -0.007  53.029  1.00  0.00     0.041 A 
ENDBRANCH  14  15
ENDBRANCH  12  14
ENDBRANCH   1  12
TORSDOF 7
ENDMDL
MODEL 9
REMARK VINA RESULT:      -5.7      2.140      3.053
REMARK  7 active torsions:
REMARK  status: ('A' for Active; 'I' for Inactive)
REMARK    1  A    between atoms: O1_2  and  C2_3 
REMARK    2  A    between atoms: C5_6  and  C6_7 
REMARK    3  A    between atoms: C6_7  and  C7_8 
REMARK    4  A    between atoms: C7_8  and  C8_9 
REMARK    5  A    between atoms: C8_9  and  N1_10 
REMARK    6  A    between atoms: N1_10  and  C9_11 
REMARK    7  A    between atoms: C9_11  and  S1_12 
ROOT
HETATM    1  C8  UNL     1      21.357  -0.648  54.299  1.00  0.00     0.271 C 
ENDROOT
BRANCH   1   2
HETATM    2  C7  UNL     1      22.605  -0.959  53.585  1.00  0.00     0.034 C 
BRANCH   2   3
HETATM    3  C6  UNL     1      23.921  -0.763  54.216  1.00  0.00     0.040 C 
BRANCH   3   4
HETATM    4  C5  UNL     1      24.796   0.105  53.308  1.00  0.00    -0.058 A 
HETATM    5  C4  UNL     1      26.062  -0.264  52.923  1.00  0.00     0.010 A 
HETATM    6  C3  UNL     1      26.774   0.594  52.098  1.00  0.00     0.037 A 
HETATM    7  C2  UNL     1      26.238   1.806  51.657  1.00  0.00     0.068 A 
HETATM    8  C16 UNL     1      24.962   2.137  52.067  1.00  0.00     0.037 A 
HETATM    9  C15 UNL     1      24.241   1.298  52.887  1.00  0.00     0.010 A 
BRANCH   7  10
HETATM   10  O1  UNL     1      26.988   2.641  50.826  1.00  0.00    -0.356 OA
HETATM   11  C1  UNL     1      26.298   3.556  50.001  1.00  0.00     0.210 C 
ENDBRANCH   7  10
ENDBRANCH   3   4
ENDBRANCH   2   3
ENDBRANCH   1   2
BRANCH   1  12
HETATM   12  N1  UNL     1      20.608   0.513  54.023  1.00  0.00     0.092 NA
HETATM   13  H12 UNL     1      19.923   0.654  54.796  1.00  0.00     0.316 HD
BRANCH  12  14
HETATM   14  C9  UNL     1      19.991   0.626  52.768  1.00  0.00     0.341 C 
BRANCH  14  15
HETATM   15  S1  UNL     1      20.852   1.749  51.575  1.00  0.00    -0.145 SA
HETATM   16  C10 UNL     1      21.543   1.227  50.207  1.00  0.00     0.041 A 
HETATM   17  C11 UNL     1      22.167   2.275  49.411  1.00  0.00     0.025 A 
HETATM   18  C12 UNL     1      22.195   3.555  49.733  1.00  0.00     0.011 A 
HETATM   19 BR1  UNL     1      23.088   4.747  48.507  1.00  0.00    -0.051 Br
HETATM   20  C13 UNL     1      21.616   4.171  50.933  1.00  0.00     0.025 A 
HETATM   21  C14 UNL     1      20.963   3.503  51.891  1.00  0.00     0.041 A 
ENDBRANCH  14  15
ENDBRANCH  12  14
ENDBRANCH   1  12
TORSDOF 7
ENDMDL
