MODEL 1
REMARK VINA RESULT:      -9.2      0.000      0.000
REMARK  7 active torsions:
REMARK  status: ('A' for Active; 'I' for Inactive)
REMARK    1  A    between atoms: C2_2  and  C4_4 
REMARK    2  A    between atoms: C4_4  and  C5_5 
REMARK    3  A    between atoms: C6_6  and  S1_7 
REMARK    4  A    between atoms: C8_9  and  C9_10 
REMARK    5  A    between atoms: C9_10  and  C11_12 
REMARK    6  A    between atoms: C11_12  and  C12_13 
REMARK    7  A    between atoms: C21_24  and  O2_25 
ROOT
HETATM    1  C9  UNL     1      25.938   0.674  53.258  1.00  0.00     0.017 C 
HETATM    2  C10 UNL     1      26.805  -0.182  52.381  1.00  0.00     0.015 C 
ENDROOT
BRANCH   1   3
HETATM    3  C8  UNL     1      25.366   1.831  52.559  1.00  0.00    -0.042 A 
HETATM    4  C7  UNL     1      24.437   2.723  52.820  1.00  0.00     0.024 A 
HETATM    5  C6  UNL     1      24.301   3.669  51.707  1.00  0.00     0.003 A 
HETATM    6  C5  UNL     1      25.173   3.339  50.752  1.00  0.00    -0.030 A 
HETATM    7  C21 UNL     1      25.935   2.121  51.225  1.00  0.00     0.178 A 
BRANCH   5   8
HETATM    8  S1  UNL     1      23.062   4.938  51.940  1.00  0.00    -0.143 SA
HETATM    9  H10 UNL     1      22.764   5.442  50.638  1.00  0.00     0.107 HD
ENDBRANCH   5   8
BRANCH   6  10
HETATM   10  C4  UNL     1      25.521   3.848  49.466  1.00  0.00     0.042 C 
BRANCH  10  11
HETATM   11  C2  UNL     1      26.285   5.101  49.321  1.00  0.00    -0.019 C 
HETATM   12  C1  UNL     1      27.618   4.955  48.630  1.00  0.00     0.010 C 
HETATM   13  C3  UNL     1      25.472   6.250  48.755  1.00  0.00     0.010 C 
ENDBRANCH  10  11
ENDBRANCH   6  10
BRANCH   7  14
HETATM   14  O2  UNL     1      27.283   2.423  51.375  1.00  0.00    -0.387 OA
HETATM   15  H25 UNL     1      27.332   3.385  51.623  1.00  0.00     0.210 HD
ENDBRANCH   7  14
ENDBRANCH   1   3
BRANCH   1  16
HETATM   16  C11 UNL     1      24.905  -0.218  53.915  1.00  0.00     0.037 C 
BRANCH  16  17
HETATM   17  C12 UNL     1      23.604  -0.052  53.231  1.00  0.00    -0.008 C 
HETATM   18  C13 UNL     1      22.393  -0.449  53.568  1.00  0.00     0.041 A 
HETATM   19  C14 UNL     1      22.050  -1.191  54.772  1.00  0.00     0.256 A 
HETATM   20  C20 UNL     1      21.236  -0.177  52.740  1.00  0.00     0.006 A 
HETATM   21  O1  UNL     1      22.768  -1.602  55.711  1.00  0.00    -0.267 OA
HETATM   22  N1  UNL     1      20.624  -1.361  54.642  1.00  0.00    -0.322 N 
HETATM   23  C15 UNL     1      20.175  -0.746  53.426  1.00  0.00     0.046 A 
HETATM   24  H19 UNL     1      19.981  -1.854  55.319  1.00  0.00     0.169 HD
HETATM   25  C16 UNL     1      18.913  -0.651  52.879  1.00  0.00     0.030 A 
HETATM   26  C17 UNL     1      18.711   0.002  51.667  1.00  0.00     0.002 A 
HETATM   27  C18 UNL     1      19.795   0.567  50.997  1.00  0.00     0.001 A 
HETATM   28  C19 UNL     1      21.046   0.470  51.544  1.00  0.00     0.014 A 
ENDBRANCH  16  17
ENDBRANCH   1  16
TORSDOF 7
ENDMDL
MODEL 2
REMARK VINA RESULT:      -9.1      2.572      5.239
REMARK  7 active torsions:
REMARK  status: ('A' for Active; 'I' for Inactive)
REMARK    1  A    between atoms: C2_2  and  C4_4 
REMARK    2  A    between atoms: C4_4  and  C5_5 
REMARK    3  A    between atoms: C6_6  and  S1_7 
REMARK    4  A    between atoms: C8_9  and  C9_10 
REMARK    5  A    between atoms: C9_10  and  C11_12 
REMARK    6  A    between atoms: C11_12  and  C12_13 
REMARK    7  A    between atoms: C21_24  and  O2_25 
ROOT
HETATM    1  C9  UNL     1      22.763   0.960  51.547  1.00  0.00     0.017 C 
HETATM    2  C10 UNL     1      21.457   0.266  51.286  1.00  0.00     0.015 C 
ENDROOT
BRANCH   1   3
HETATM    3  C8  UNL     1      22.760   2.373  51.151  1.00  0.00    -0.042 A 
HETATM    4  C7  UNL     1      22.111   3.453  51.524  1.00  0.00     0.024 A 
HETATM    5  C6  UNL     1      22.547   4.614  50.742  1.00  0.00     0.003 A 
HETATM    6  C5  UNL     1      23.484   4.223  49.876  1.00  0.00    -0.030 A 
HETATM    7  C21 UNL     1      23.699   2.739  50.069  1.00  0.00     0.178 A 
BRANCH   5   8
HETATM    8  S1  UNL     1      21.735   6.153  51.156  1.00  0.00    -0.143 SA
HETATM    9  H10 UNL     1      22.145   6.472  52.485  1.00  0.00     0.107 HD
ENDBRANCH   5   8
BRANCH   6  10
HETATM   10  C4  UNL     1      24.275   4.856  48.872  1.00  0.00     0.042 C 
BRANCH  10  11
HETATM   11  C2  UNL     1      25.436   5.694  49.228  1.00  0.00    -0.019 C 
HETATM   12  C1  UNL     1      26.779   5.095  48.888  1.00  0.00     0.010 C 
HETATM   13  C3  UNL     1      25.318   7.132  48.761  1.00  0.00     0.010 C 
ENDBRANCH  10  11
ENDBRANCH   6  10
BRANCH   7  14
HETATM   14  O2  UNL     1      24.995   2.492  50.506  1.00  0.00    -0.387 OA
HETATM   15  H25 UNL     1      25.384   3.374  50.753  1.00  0.00     0.210 HD
ENDBRANCH   7  14
ENDBRANCH   1   3
BRANCH   1  16
HETATM   16  C11 UNL     1      23.135   0.729  52.997  1.00  0.00     0.037 C 
BRANCH  16  17
HETATM   17  C12 UNL     1      24.536   0.259  53.077  1.00  0.00    -0.008 C 
HETATM   18  C13 UNL     1      25.651   0.907  53.356  1.00  0.00     0.041 A 
HETATM   19  C14 UNL     1      25.751   2.323  53.669  1.00  0.00     0.256 A 
HETATM   20  C20 UNL     1      26.938   0.244  53.380  1.00  0.00     0.006 A 
HETATM   21  O1  UNL     1      24.869   3.209  53.744  1.00  0.00    -0.267 OA
HETATM   22  N1  UNL     1      27.165   2.499  53.887  1.00  0.00    -0.322 N 
HETATM   23  C15 UNL     1      27.839   1.245  53.708  1.00  0.00     0.046 A 
HETATM   24  H19 UNL     1      27.660   3.397  54.140  1.00  0.00     0.169 HD
HETATM   25  C16 UNL     1      29.175   0.919  53.810  1.00  0.00     0.030 A 
HETATM   26  C17 UNL     1      29.607  -0.385  53.588  1.00  0.00     0.002 A 
HETATM   27  C18 UNL     1      28.681  -1.374  53.261  1.00  0.00     0.001 A 
HETATM   28  C19 UNL     1      27.356  -1.045  53.161  1.00  0.00     0.014 A 
ENDBRANCH  16  17
ENDBRANCH   1  16
TORSDOF 7
ENDMDL
MODEL 3
REMARK VINA RESULT:      -9.1      3.067      4.989
REMARK  7 active torsions:
REMARK  status: ('A' for Active; 'I' for Inactive)
REMARK    1  A    between atoms: C2_2  and  C4_4 
REMARK    2  A    between atoms: C4_4  and  C5_5 
REMARK    3  A    between atoms: C6_6  and  S1_7 
REMARK    4  A    between atoms: C8_9  and  C9_10 
REMARK    5  A    between atoms: C9_10  and  C11_12 
REMARK    6  A    between atoms: C11_12  and  C12_13 
REMARK    7  A    between atoms: C21_24  and  O2_25 
ROOT
HETATM    1  C9  UNL     1      22.529  -0.265  54.115  1.00  0.00     0.017 C 
HETATM    2  C10 UNL     1      22.250  -1.741  54.116  1.00  0.00     0.015 C 
ENDROOT
BRANCH   1   3
HETATM    3  C8  UNL     1      23.805   0.085  53.479  1.00  0.00    -0.042 A 
HETATM    4  C7  UNL     1      24.240   1.070  52.725  1.00  0.00     0.024 A 
HETATM    5  C6  UNL     1      25.653   0.873  52.384  1.00  0.00     0.003 A 
HETATM    6  C5  UNL     1      26.079  -0.259  52.949  1.00  0.00    -0.030 A 
HETATM    7  C21 UNL     1      24.917  -0.862  53.704  1.00  0.00     0.178 A 
BRANCH   5   8
HETATM    8  S1  UNL     1      26.368   2.150  51.356  1.00  0.00    -0.143 SA
HETATM    9  H10 UNL     1      27.324   1.497  50.522  1.00  0.00     0.107 HD
ENDBRANCH   5   8
BRANCH   6  10
HETATM   10  C4  UNL     1      27.310  -0.978  52.992  1.00  0.00     0.042 C 
BRANCH  10  11
HETATM   11  C2  UNL     1      28.547  -0.349  53.492  1.00  0.00    -0.019 C 
HETATM   12  C1  UNL     1      28.433   0.277  54.861  1.00  0.00     0.010 C 
HETATM   13  C3  UNL     1      29.775  -1.230  53.369  1.00  0.00     0.010 C 
ENDBRANCH  10  11
ENDBRANCH   6  10
BRANCH   7  14
HETATM   14  O2  UNL     1      25.194  -0.903  55.065  1.00  0.00    -0.387 OA
HETATM   15  H25 UNL     1      24.371  -1.238  55.513  1.00  0.00     0.210 HD
ENDBRANCH   7  14
ENDBRANCH   1   3
BRANCH   1  16
HETATM   16  C11 UNL     1      21.330   0.440  53.516  1.00  0.00     0.037 C 
BRANCH  16  17
HETATM   17  C12 UNL     1      20.182  -0.493  53.472  1.00  0.00    -0.008 C 
HETATM   18  C13 UNL     1      19.017  -0.401  52.860  1.00  0.00     0.041 A 
HETATM   19  C14 UNL     1      18.578   0.715  52.038  1.00  0.00     0.256 A 
HETATM   20  C20 UNL     1      18.018  -1.447  52.950  1.00  0.00     0.006 A 
HETATM   21  O1  UNL     1      19.155   1.783  51.733  1.00  0.00    -0.267 OA
HETATM   22  N1  UNL     1      17.258   0.304  51.627  1.00  0.00    -0.322 N 
HETATM   23  C15 UNL     1      16.959  -0.983  52.185  1.00  0.00     0.046 A 
HETATM   24  H19 UNL     1      16.591   0.843  51.011  1.00  0.00     0.169 HD
HETATM   25  C16 UNL     1      15.834  -1.773  52.074  1.00  0.00     0.030 A 
HETATM   26  C17 UNL     1      15.766  -3.005  52.716  1.00  0.00     0.002 A 
HETATM   27  C18 UNL     1      16.845  -3.449  53.478  1.00  0.00     0.001 A 
HETATM   28  C19 UNL     1      17.959  -2.662  53.586  1.00  0.00     0.014 A 
ENDBRANCH  16  17
ENDBRANCH   1  16
TORSDOF 7
ENDMDL
MODEL 4
REMARK VINA RESULT:      -8.8      2.364      4.104
REMARK  7 active torsions:
REMARK  status: ('A' for Active; 'I' for Inactive)
REMARK    1  A    between atoms: C2_2  and  C4_4 
REMARK    2  A    between atoms: C4_4  and  C5_5 
REMARK    3  A    between atoms: C6_6  and  S1_7 
REMARK    4  A    between atoms: C8_9  and  C9_10 
REMARK    5  A    between atoms: C9_10  and  C11_12 
REMARK    6  A    between atoms: C11_12  and  C12_13 
REMARK    7  A    between atoms: C21_24  and  O2_25 
ROOT
HETATM    1  C9  UNL     1      24.424   3.624  50.061  1.00  0.00     0.017 C 
HETATM    2  C10 UNL     1      23.254   3.259  49.193  1.00  0.00     0.015 C 
ENDROOT
BRANCH   1   3
HETATM    3  C8  UNL     1      25.320   4.609  49.444  1.00  0.00    -0.042 A 
HETATM    4  C7  UNL     1      25.206   5.846  49.014  1.00  0.00     0.024 A 
HETATM    5  C6  UNL     1      26.483   6.327  48.479  1.00  0.00     0.003 A 
HETATM    6  C5  UNL     1      27.391   5.356  48.591  1.00  0.00    -0.030 A 
HETATM    7  C21 UNL     1      26.712   4.162  49.225  1.00  0.00     0.178 A 
BRANCH   5   8
HETATM    8  S1  UNL     1      26.460   8.005  47.859  1.00  0.00    -0.143 SA
HETATM    9  H10 UNL     1      27.301   8.012  46.706  1.00  0.00     0.107 HD
ENDBRANCH   5   8
BRANCH   6  10
HETATM   10  C4  UNL     1      28.771   5.204  48.264  1.00  0.00     0.042 C 
BRANCH  10  11
HETATM   11  C2  UNL     1      29.708   6.339  48.356  1.00  0.00    -0.019 C 
HETATM   12  C1  UNL     1      31.025   6.023  49.021  1.00  0.00     0.010 C 
HETATM   13  C3  UNL     1      29.894   7.087  47.049  1.00  0.00     0.010 C 
ENDBRANCH  10  11
ENDBRANCH   6  10
BRANCH   7  14
HETATM   14  O2  UNL     1      27.285   3.880  50.459  1.00  0.00    -0.387 OA
HETATM   15  H25 UNL     1      28.269   3.842  50.313  1.00  0.00     0.210 HD
ENDBRANCH   7  14
ENDBRANCH   1   3
BRANCH   1  16
HETATM   16  C11 UNL     1      23.891   4.043  51.416  1.00  0.00     0.037 C 
BRANCH  16  17
HETATM   17  C12 UNL     1      23.117   2.929  52.007  1.00  0.00    -0.008 C 
HETATM   18  C13 UNL     1      23.512   1.845  52.645  1.00  0.00     0.041 A 
HETATM   19  C14 UNL     1      24.892   1.484  52.927  1.00  0.00     0.256 A 
HETATM   20  C20 UNL     1      22.571   0.866  53.149  1.00  0.00     0.006 A 
HETATM   21  O1  UNL     1      25.963   2.071  52.652  1.00  0.00    -0.267 OA
HETATM   22  N1  UNL     1      24.754   0.233  53.630  1.00  0.00    -0.322 N 
HETATM   23  C15 UNL     1      23.364  -0.103  53.745  1.00  0.00     0.046 A 
HETATM   24  H19 UNL     1      25.533  -0.367  54.015  1.00  0.00     0.169 HD
HETATM   25  C16 UNL     1      22.746  -1.189  54.329  1.00  0.00     0.030 A 
HETATM   26  C17 UNL     1      21.360  -1.308  54.319  1.00  0.00     0.002 A 
HETATM   27  C18 UNL     1      20.585  -0.319  53.714  1.00  0.00     0.001 A 
HETATM   28  C19 UNL     1      21.203   0.756  53.136  1.00  0.00     0.014 A 
ENDBRANCH  16  17
ENDBRANCH   1  16
TORSDOF 7
ENDMDL
MODEL 5
REMARK VINA RESULT:      -8.8      2.758      5.288
REMARK  7 active torsions:
REMARK  status: ('A' for Active; 'I' for Inactive)
REMARK    1  A    between atoms: C2_2  and  C4_4 
REMARK    2  A    between atoms: C4_4  and  C5_5 
REMARK    3  A    between atoms: C6_6  and  S1_7 
REMARK    4  A    between atoms: C8_9  and  C9_10 
REMARK    5  A    between atoms: C9_10  and  C11_12 
REMARK    6  A    between atoms: C11_12  and  C12_13 
REMARK    7  A    between atoms: C21_24  and  O2_25 
ROOT
HETATM    1  C9  UNL     1      24.059   2.828  52.006  1.00  0.00     0.017 C 
HETATM    2  C10 UNL     1      22.603   2.461  52.011  1.00  0.00     0.015 C 
ENDROOT
BRANCH   1   3
HETATM    3  C8  UNL     1      24.336   4.099  51.324  1.00  0.00    -0.042 A 
HETATM    4  C7  UNL     1      23.939   5.344  51.459  1.00  0.00     0.024 A 
HETATM    5  C6  UNL     1      24.579   6.202  50.457  1.00  0.00     0.003 A 
HETATM    6  C5  UNL     1      25.383   5.453  49.700  1.00  0.00    -0.030 A 
HETATM    7  C21 UNL     1      25.292   4.029  50.199  1.00  0.00     0.178 A 
BRANCH   5   8
HETATM    8  S1  UNL     1      24.119   7.928  50.534  1.00  0.00    -0.143 SA
HETATM    9  H10 UNL     1      25.335   8.654  50.706  1.00  0.00     0.107 HD
ENDBRANCH   5   8
BRANCH   6  10
HETATM   10  C4  UNL     1      26.253   5.686  48.593  1.00  0.00     0.042 C 
BRANCH  10  11
HETATM   11  C2  UNL     1      27.338   6.682  48.669  1.00  0.00    -0.019 C 
HETATM   12  C1  UNL     1      28.697   6.173  48.256  1.00  0.00     0.010 C 
HETATM   13  C3  UNL     1      27.000   8.006  48.010  1.00  0.00     0.010 C 
ENDBRANCH  10  11
ENDBRANCH   6  10
BRANCH   7  14
HETATM   14  O2  UNL     1      26.523   3.610  50.690  1.00  0.00    -0.387 OA
HETATM   15  H25 UNL     1      26.342   2.827  51.277  1.00  0.00     0.210 HD
ENDBRANCH   7  14
ENDBRANCH   1   3
BRANCH   1  16
HETATM   16  C11 UNL     1      24.563   2.774  53.433  1.00  0.00     0.037 C 
BRANCH  16  17
HETATM   17  C12 UNL     1      25.900   2.141  53.460  1.00  0.00    -0.008 C 
HETATM   18  C13 UNL     1      26.258   0.872  53.417  1.00  0.00     0.041 A 
HETATM   19  C14 UNL     1      25.349  -0.260  53.327  1.00  0.00     0.256 A 
HETATM   20  C20 UNL     1      27.646   0.464  53.457  1.00  0.00     0.006 A 
HETATM   21  O1  UNL     1      24.099  -0.303  53.272  1.00  0.00    -0.267 OA
HETATM   22  N1  UNL     1      26.250  -1.386  53.313  1.00  0.00    -0.322 N 
HETATM   23  C15 UNL     1      27.604  -0.920  53.391  1.00  0.00     0.046 A 
HETATM   24  H19 UNL     1      25.986  -2.407  53.255  1.00  0.00     0.169 HD
HETATM   25  C16 UNL     1      28.795  -1.615  53.410  1.00  0.00     0.030 A 
HETATM   26  C17 UNL     1      30.010  -0.941  53.493  1.00  0.00     0.002 A 
HETATM   27  C18 UNL     1      30.025   0.451  53.557  1.00  0.00     0.001 A 
HETATM   28  C19 UNL     1      28.841   1.136  53.539  1.00  0.00     0.014 A 
ENDBRANCH  16  17
ENDBRANCH   1  16
TORSDOF 7
ENDMDL
MODEL 6
REMARK VINA RESULT:      -8.6      3.688      7.927
REMARK  7 active torsions:
REMARK  status: ('A' for Active; 'I' for Inactive)
REMARK    1  A    between atoms: C2_2  and  C4_4 
REMARK    2  A    between atoms: C4_4  and  C5_5 
REMARK    3  A    between atoms: C6_6  and  S1_7 
REMARK    4  A    between atoms: C8_9  and  C9_10 
REMARK    5  A    between atoms: C9_10  and  C11_12 
REMARK    6  A    between atoms: C11_12  and  C12_13 
REMARK    7  A    between atoms: C21_24  and  O2_25 
ROOT
HETATM    1  C9  UNL     1      24.108   4.044  51.570  1.00  0.00     0.017 C 
HETATM    2  C10 UNL     1      23.015   4.936  52.083  1.00  0.00     0.015 C 
ENDROOT
BRANCH   1   3
HETATM    3  C8  UNL     1      24.157   2.739  52.242  1.00  0.00    -0.042 A 
HETATM    4  C7  UNL     1      23.373   1.687  52.311  1.00  0.00     0.024 A 
HETATM    5  C6  UNL     1      23.970   0.653  53.163  1.00  0.00     0.003 A 
HETATM    6  C5  UNL     1      25.145   1.094  53.616  1.00  0.00    -0.030 A 
HETATM    7  C21 UNL     1      25.363   2.482  53.057  1.00  0.00     0.178 A 
BRANCH   5   8
HETATM    8  S1  UNL     1      22.996  -0.836  53.340  1.00  0.00    -0.143 SA
HETATM    9  H10 UNL     1      22.441  -0.791  54.654  1.00  0.00     0.107 HD
ENDBRANCH   5   8
BRANCH   6  10
HETATM   10  C4  UNL     1      26.174   0.578  54.459  1.00  0.00     0.042 C 
BRANCH  10  11
HETATM   11  C2  UNL     1      27.128  -0.435  53.969  1.00  0.00    -0.019 C 
HETATM   12  C1  UNL     1      26.866  -0.929  52.568  1.00  0.00     0.010 C 
HETATM   13  C3  UNL     1      28.582  -0.058  54.179  1.00  0.00     0.010 C 
ENDBRANCH  10  11
ENDBRANCH   6  10
BRANCH   7  14
HETATM   14  O2  UNL     1      26.474   2.497  52.221  1.00  0.00    -0.387 OA
HETATM   15  H25 UNL     1      27.101   1.808  52.571  1.00  0.00     0.210 HD
ENDBRANCH   7  14
ENDBRANCH   1   3
BRANCH   1  16
HETATM   16  C11 UNL     1      23.974   3.954  50.064  1.00  0.00     0.037 C 
BRANCH  16  17
HETATM   17  C12 UNL     1      24.653   5.110  49.439  1.00  0.00    -0.008 C 
HETATM   18  C13 UNL     1      25.904   5.274  49.056  1.00  0.00     0.041 A 
HETATM   19  C14 UNL     1      26.963   4.284  49.175  1.00  0.00     0.256 A 
HETATM   20  C20 UNL     1      26.368   6.508  48.456  1.00  0.00     0.006 A 
HETATM   21  O1  UNL     1      26.946   3.119  49.634  1.00  0.00    -0.267 OA
HETATM   22  N1  UNL     1      28.101   4.971  48.617  1.00  0.00    -0.322 N 
HETATM   23  C15 UNL     1      27.713   6.287  48.200  1.00  0.00     0.046 A 
HETATM   24  H19 UNL     1      29.082   4.592  48.516  1.00  0.00     0.169 HD
HETATM   25  C16 UNL     1      28.446   7.300  47.618  1.00  0.00     0.030 A 
HETATM   26  C17 UNL     1      27.848   8.514  47.296  1.00  0.00     0.002 A 
HETATM   27  C18 UNL     1      26.494   8.711  47.563  1.00  0.00     0.001 A 
HETATM   28  C19 UNL     1      25.771   7.704  48.141  1.00  0.00     0.014 A 
ENDBRANCH  16  17
ENDBRANCH   1  16
TORSDOF 7
ENDMDL
MODEL 7
REMARK VINA RESULT:      -8.3      2.667      4.254
REMARK  7 active torsions:
REMARK  status: ('A' for Active; 'I' for Inactive)
REMARK    1  A    between atoms: C2_2  and  C4_4 
REMARK    2  A    between atoms: C4_4  and  C5_5 
REMARK    3  A    between atoms: C6_6  and  S1_7 
REMARK    4  A    between atoms: C8_9  and  C9_10 
REMARK    5  A    between atoms: C9_10  and  C11_12 
REMARK    6  A    between atoms: C11_12  and  C12_13 
REMARK    7  A    between atoms: C21_24  and  O2_25 
ROOT
HETATM    1  C9  UNL     1      24.742   4.070  50.307  1.00  0.00     0.017 C 
HETATM    2  C10 UNL     1      23.912   3.475  49.206  1.00  0.00     0.015 C 
ENDROOT
BRANCH   1   3
HETATM    3  C8  UNL     1      25.486   5.266  49.894  1.00  0.00    -0.042 A 
HETATM    4  C7  UNL     1      25.417   6.552  50.152  1.00  0.00     0.024 A 
HETATM    5  C6  UNL     1      26.461   7.282  49.425  1.00  0.00     0.003 A 
HETATM    6  C5  UNL     1      27.178   6.411  48.712  1.00  0.00    -0.030 A 
HETATM    7  C21 UNL     1      26.606   5.033  48.957  1.00  0.00     0.178 A 
BRANCH   5   8
HETATM    8  S1  UNL     1      26.474   9.050  49.692  1.00  0.00    -0.143 SA
HETATM    9  H10 UNL     1      25.109   9.435  49.855  1.00  0.00     0.107 HD
ENDBRANCH   5   8
BRANCH   6  10
HETATM   10  C4  UNL     1      28.293   6.490  47.826  1.00  0.00     0.042 C 
BRANCH  10  11
HETATM   11  C2  UNL     1      29.673   6.585  48.339  1.00  0.00    -0.019 C 
HETATM   12  C1  UNL     1      30.597   5.482  47.885  1.00  0.00     0.010 C 
HETATM   13  C3  UNL     1      30.295   7.958  48.168  1.00  0.00     0.010 C 
ENDBRANCH  10  11
ENDBRANCH   6  10
BRANCH   7  14
HETATM   14  O2  UNL     1      27.546   4.224  49.584  1.00  0.00    -0.387 OA
HETATM   15  H25 UNL     1      27.754   3.487  48.948  1.00  0.00     0.210 HD
ENDBRANCH   7  14
ENDBRANCH   1   3
BRANCH   1  16
HETATM   16  C11 UNL     1      23.843   4.290  51.506  1.00  0.00     0.037 C 
BRANCH  16  17
HETATM   17  C12 UNL     1      23.510   2.985  52.119  1.00  0.00    -0.008 C 
HETATM   18  C13 UNL     1      22.347   2.451  52.438  1.00  0.00     0.041 A 
HETATM   19  C14 UNL     1      21.048   3.073  52.242  1.00  0.00     0.256 A 
HETATM   20  C20 UNL     1      22.245   1.138  53.040  1.00  0.00     0.006 A 
HETATM   21  O1  UNL     1      20.738   4.186  51.758  1.00  0.00    -0.267 OA
HETATM   22  N1  UNL     1      20.140   2.076  52.753  1.00  0.00    -0.322 N 
HETATM   23  C15 UNL     1      20.884   0.941  53.218  1.00  0.00     0.046 A 
HETATM   24  H19 UNL     1      19.087   2.140  52.794  1.00  0.00     0.169 HD
HETATM   25  C16 UNL     1      20.460  -0.243  53.783  1.00  0.00     0.030 A 
HETATM   26  C17 UNL     1      21.377  -1.217  54.164  1.00  0.00     0.002 A 
HETATM   27  C18 UNL     1      22.740  -0.995  53.974  1.00  0.00     0.001 A 
HETATM   28  C19 UNL     1      23.156   0.181  53.414  1.00  0.00     0.014 A 
ENDBRANCH  16  17
ENDBRANCH   1  16
TORSDOF 7
ENDMDL
MODEL 8
REMARK VINA RESULT:      -8.3      3.258      5.616
REMARK  7 active torsions:
REMARK  status: ('A' for Active; 'I' for Inactive)
REMARK    1  A    between atoms: C2_2  and  C4_4 
REMARK    2  A    between atoms: C4_4  and  C5_5 
REMARK    3  A    between atoms: C6_6  and  S1_7 
REMARK    4  A    between atoms: C8_9  and  C9_10 
REMARK    5  A    between atoms: C9_10  and  C11_12 
REMARK    6  A    between atoms: C11_12  and  C12_13 
REMARK    7  A    between atoms: C21_24  and  O2_25 
ROOT
HETATM    1  C9  UNL     1      25.075   5.099  49.156  1.00  0.00     0.017 C 
HETATM    2  C10 UNL     1      23.833   5.390  48.363  1.00  0.00     0.015 C 
ENDROOT
BRANCH   1   3
HETATM    3  C8  UNL     1      26.122   6.114  48.989  1.00  0.00    -0.042 A 
HETATM    4  C7  UNL     1      26.219   7.409  49.194  1.00  0.00     0.024 A 
HETATM    5  C6  UNL     1      27.556   7.890  48.832  1.00  0.00     0.003 A 
HETATM    6  C5  UNL     1      28.283   6.859  48.400  1.00  0.00    -0.030 A 
HETATM    7  C21 UNL     1      27.415   5.623  48.465  1.00  0.00     0.178 A 
BRANCH   5   8
HETATM    8  S1  UNL     1      27.817   9.644  49.065  1.00  0.00    -0.143 SA
HETATM    9  H10 UNL     1      27.706  10.236  47.772  1.00  0.00     0.107 HD
ENDBRANCH   5   8
BRANCH   6  10
HETATM   10  C4  UNL     1      29.614   6.677  47.919  1.00  0.00     0.042 C 
BRANCH  10  11
HETATM   11  C2  UNL     1      30.781   7.052  48.738  1.00  0.00    -0.019 C 
HETATM   12  C1  UNL     1      31.645   5.896  49.179  1.00  0.00     0.010 C 
HETATM   13  C3  UNL     1      31.602   8.186  48.152  1.00  0.00     0.010 C 
ENDBRANCH  10  11
ENDBRANCH   6  10
BRANCH   7  14
HETATM   14  O2  UNL     1      27.941   4.710  49.371  1.00  0.00    -0.387 OA
HETATM   15  H25 UNL     1      28.838   4.454  49.026  1.00  0.00     0.210 HD
ENDBRANCH   7  14
ENDBRANCH   1   3
BRANCH   1  16
HETATM   16  C11 UNL     1      24.669   4.868  50.597  1.00  0.00     0.037 C 
BRANCH  16  17
HETATM   17  C12 UNL     1      25.173   3.551  51.045  1.00  0.00    -0.008 C 
HETATM   18  C13 UNL     1      24.614   2.620  51.794  1.00  0.00     0.041 A 
HETATM   19  C14 UNL     1      23.286   2.692  52.383  1.00  0.00     0.256 A 
HETATM   20  C20 UNL     1      25.296   1.384  52.119  1.00  0.00     0.006 A 
HETATM   21  O1  UNL     1      22.414   3.588  52.326  1.00  0.00    -0.267 OA
HETATM   22  N1  UNL     1      23.185   1.437  53.085  1.00  0.00    -0.322 N 
HETATM   23  C15 UNL     1      24.394   0.686  52.907  1.00  0.00     0.046 A 
HETATM   24  H19 UNL     1      22.363   1.093  53.652  1.00  0.00     0.169 HD
HETATM   25  C16 UNL     1      24.761  -0.556  53.382  1.00  0.00     0.030 A 
HETATM   26  C17 UNL     1      26.007  -1.093  53.076  1.00  0.00     0.002 A 
HETATM   27  C18 UNL     1      26.895  -0.372  52.281  1.00  0.00     0.001 A 
HETATM   28  C19 UNL     1      26.527   0.860  51.812  1.00  0.00     0.014 A 
ENDBRANCH  16  17
ENDBRANCH   1  16
TORSDOF 7
ENDMDL
MODEL 9
REMARK VINA RESULT:      -8.2      3.338      6.244
REMARK  7 active torsions:
REMARK  status: ('A' for Active; 'I' for Inactive)
REMARK    1  A    between atoms: C2_2  and  C4_4 
REMARK    2  A    between atoms: C4_4  and  C5_5 
REMARK    3  A    between atoms: C6_6  and  S1_7 
REMARK    4  A    between atoms: C8_9  and  C9_10 
REMARK    5  A    between atoms: C9_10  and  C11_12 
REMARK    6  A    between atoms: C11_12  and  C12_13 
REMARK    7  A    between atoms: C21_24  and  O2_25 
ROOT
HETATM    1  C9  UNL     1      22.431  -0.464  52.705  1.00  0.00     0.017 C 
HETATM    2  C10 UNL     1      21.859  -1.521  53.605  1.00  0.00     0.015 C 
ENDROOT
BRANCH   1   3
HETATM    3  C8  UNL     1      21.420   0.200  51.872  1.00  0.00    -0.042 A 
HETATM    4  C7  UNL     1      20.172   0.579  52.031  1.00  0.00     0.024 A 
HETATM    5  C6  UNL     1      19.665   1.211  50.810  1.00  0.00     0.003 A 
HETATM    6  C5  UNL     1      20.633   1.214  49.891  1.00  0.00    -0.030 A 
HETATM    7  C21 UNL     1      21.850   0.559  50.504  1.00  0.00     0.178 A 
BRANCH   5   8
HETATM    8  S1  UNL     1      17.969   1.774  50.897  1.00  0.00    -0.143 SA
HETATM    9  H10 UNL     1      17.856   2.500  52.120  1.00  0.00     0.107 HD
ENDBRANCH   5   8
BRANCH   6  10
HETATM   10  C4  UNL     1      20.763   1.669  48.546  1.00  0.00     0.042 C 
BRANCH  10  11
HETATM   11  C2  UNL     1      20.569   3.089  48.196  1.00  0.00    -0.019 C 
HETATM   12  C1  UNL     1      21.843   3.880  48.023  1.00  0.00     0.010 C 
HETATM   13  C3  UNL     1      19.601   3.309  47.049  1.00  0.00     0.010 C 
ENDBRANCH  10  11
ENDBRANCH   6  10
BRANCH   7  14
HETATM   14  O2  UNL     1      22.895   1.470  50.594  1.00  0.00    -0.387 OA
HETATM   15  H25 UNL     1      23.439   1.201  51.383  1.00  0.00     0.210 HD
ENDBRANCH   7  14
ENDBRANCH   1   3
BRANCH   1  16
HETATM   16  C11 UNL     1      23.247   0.487  53.555  1.00  0.00     0.037 C 
BRANCH  16  17
HETATM   17  C12 UNL     1      24.671   0.090  53.510  1.00  0.00    -0.008 C 
HETATM   18  C13 UNL     1      25.773   0.811  53.592  1.00  0.00     0.041 A 
HETATM   19  C14 UNL     1      25.829   2.255  53.756  1.00  0.00     0.256 A 
HETATM   20  C20 UNL     1      27.089   0.211  53.523  1.00  0.00     0.006 A 
HETATM   21  O1  UNL     1      24.914   3.103  53.852  1.00  0.00    -0.267 OA
HETATM   22  N1  UNL     1      27.247   2.514  53.785  1.00  0.00    -0.322 N 
HETATM   23  C15 UNL     1      27.965   1.279  53.645  1.00  0.00     0.046 A 
HETATM   24  H19 UNL     1      27.717   3.453  53.891  1.00  0.00     0.169 HD
HETATM   25  C16 UNL     1      29.320   1.024  53.615  1.00  0.00     0.030 A 
HETATM   26  C17 UNL     1      29.795  -0.275  53.467  1.00  0.00     0.002 A 
HETATM   27  C18 UNL     1      28.894  -1.332  53.347  1.00  0.00     0.001 A 
HETATM   28  C19 UNL     1      27.551  -1.074  53.376  1.00  0.00     0.014 A 
ENDBRANCH  16  17
ENDBRANCH   1  16
TORSDOF 7
ENDMDL
