MODEL 1
REMARK VINA RESULT:      -8.6      0.000      0.000
REMARK  6 active torsions:
REMARK  status: ('A' for Active; 'I' for Inactive)
REMARK       I    between atoms: N1_2  and  C2_3 
REMARK    1  A    between atoms: C2_3  and  O2_5 
REMARK    2  A    between atoms: O2_5  and  C3_6 
REMARK    3  A    between atoms: C6_10  and  O3_11 
REMARK    4  A    between atoms: C11_16  and  N3_17 
REMARK    5  A    between atoms: N3_17  and  C12_18 
REMARK    6  A    between atoms: C15_21  and  N4_22 
ROOT
HETATM    1  C3  UNL     1      24.725   5.133  50.492  1.00  0.00     0.246 C 
HETATM    2  C4  UNL     1      24.053   4.697  49.261  1.00  0.00     0.168 C 
HETATM    3  N2  UNL     1      23.354   3.399  49.290  1.00  0.00    -0.403 N 
HETATM    4  C5  UNL     1      22.703   2.871  50.492  1.00  0.00     0.099 A 
HETATM    5  C6  UNL     1      21.935   3.507  51.437  1.00  0.00     0.155 A 
HETATM    6  C8  UNL     1      23.130   3.130  52.142  1.00  0.00     0.112 A 
HETATM    7  C9  UNL     1      24.247   2.746  52.675  1.00  0.00     0.018 C 
HETATM    8  C10 UNL     1      23.689   1.290  52.178  1.00  0.00    -0.041 C 
HETATM    9  C11 UNL     1      23.795   0.083  52.743  1.00  0.00     0.095 C 
HETATM   10  C18 UNL     1      22.949   1.376  50.802  1.00  0.00     0.076 C 
HETATM   11  N5  UNL     1      24.390   4.221  51.718  1.00  0.00    -0.378 N 
HETATM   12  H8  UNL     1      23.235   2.696  48.498  1.00  0.00     0.154 HD
HETATM   13  H22 UNL     1      25.273   4.562  52.316  1.00  0.00     0.157 HD
ENDROOT
BRANCH   9  14
HETATM   14  N3  UNL     1      24.473  -0.117  53.970  1.00  0.00    -0.365 N 
HETATM   15  H14 UNL     1      24.030  -0.140  54.899  1.00  0.00     0.165 HD
BRANCH  14  16
HETATM   16  C12 UNL     1      25.896  -0.304  53.906  1.00  0.00     0.035 A 
HETATM   17  C13 UNL     1      26.465  -1.197  53.009  1.00  0.00     0.032 A 
HETATM   18  C14 UNL     1      27.823  -1.425  52.897  1.00  0.00     0.034 A 
HETATM   19  C15 UNL     1      28.671  -0.714  53.735  1.00  0.00     0.065 A 
HETATM   20  C16 UNL     1      28.123   0.184  54.637  1.00  0.00     0.144 A 
HETATM   21  F1  UNL     1      28.983   0.861  55.441  1.00  0.00    -0.204 F 
HETATM   22  C17 UNL     1      26.753   0.392  54.729  1.00  0.00     0.074 A 
BRANCH  19  23
HETATM   23  N4  UNL     1      30.074  -0.941  53.627  1.00  0.00    -0.397 N 
HETATM   24  H17 UNL     1      30.601  -1.330  54.443  1.00  0.00     0.156 HD
HETATM   25  H18 UNL     1      30.513  -0.694  52.700  1.00  0.00     0.156 HD
ENDBRANCH  19  23
ENDBRANCH  14  16
ENDBRANCH   9  14
BRANCH   5  26
HETATM   26  O3  UNL     1      20.830   4.199  52.024  1.00  0.00    -0.376 OA
HETATM   27  C7  UNL     1      19.528   3.957  51.542  1.00  0.00     0.203 C 
ENDBRANCH   5  26
BRANCH   1  28
HETATM   28  O2  UNL     1      24.435   6.393  50.990  1.00  0.00    -0.277 OA
BRANCH  28  29
HETATM   29  C2  UNL     1      25.043   7.568  50.550  1.00  0.00     0.362 C 
HETATM   30  N1  UNL     1      26.428   7.806  50.578  1.00  0.00    -0.341 N 
HETATM   31  C1  UNL     1      26.992   9.051  50.105  1.00  0.00     0.151 C 
HETATM   32  H4  UNL     1      27.070   7.074  50.948  1.00  0.00     0.164 HD
HETATM   33  O1  UNL     1      24.200   8.398  50.120  1.00  0.00    -0.238 OA
ENDBRANCH  28  29
ENDBRANCH   1  28
TORSDOF 6
ENDMDL
MODEL 2
REMARK VINA RESULT:      -8.5      2.740      4.316
REMARK  6 active torsions:
REMARK  status: ('A' for Active; 'I' for Inactive)
REMARK       I    between atoms: N1_2  and  C2_3 
REMARK    1  A    between atoms: C2_3  and  O2_5 
REMARK    2  A    between atoms: O2_5  and  C3_6 
REMARK    3  A    between atoms: C6_10  and  O3_11 
REMARK    4  A    between atoms: C11_16  and  N3_17 
REMARK    5  A    between atoms: N3_17  and  C12_18 
REMARK    6  A    between atoms: C15_21  and  N4_22 
ROOT
HETATM    1  C3  UNL     1      21.423   4.754  51.830  1.00  0.00     0.246 C 
HETATM    2  C4  UNL     1      21.614   5.294  50.477  1.00  0.00     0.168 C 
HETATM    3  N2  UNL     1      22.836   4.897  49.752  1.00  0.00    -0.403 N 
HETATM    4  C5  UNL     1      23.471   3.588  49.919  1.00  0.00     0.099 A 
HETATM    5  C6  UNL     1      22.913   2.337  50.024  1.00  0.00     0.155 A 
HETATM    6  C8  UNL     1      23.492   2.579  51.317  1.00  0.00     0.112 A 
HETATM    7  C9  UNL     1      24.048   2.904  52.442  1.00  0.00     0.018 C 
HETATM    8  C10 UNL     1      25.361   3.010  51.471  1.00  0.00    -0.041 C 
HETATM    9  C11 UNL     1      26.642   2.710  51.711  1.00  0.00     0.095 C 
HETATM   10  C18 UNL     1      25.011   3.589  50.061  1.00  0.00     0.076 C 
HETATM   11  N5  UNL     1      22.469   3.649  52.192  1.00  0.00    -0.378 N 
HETATM   12  H8  UNL     1      23.403   5.468  49.054  1.00  0.00     0.154 HD
HETATM   13  H22 UNL     1      22.299   3.734  53.295  1.00  0.00     0.157 HD
ENDROOT
BRANCH   9  14
HETATM   14  N3  UNL     1      27.077   2.211  52.962  1.00  0.00    -0.365 N 
HETATM   15  H14 UNL     1      27.127   2.752  53.836  1.00  0.00     0.165 HD
BRANCH  14  16
HETATM   16  C12 UNL     1      27.478   0.832  53.010  1.00  0.00     0.035 A 
HETATM   17  C13 UNL     1      26.630  -0.181  52.584  1.00  0.00     0.032 A 
HETATM   18  C14 UNL     1      26.953  -1.524  52.605  1.00  0.00     0.034 A 
HETATM   19  C15 UNL     1      28.207  -1.882  53.082  1.00  0.00     0.065 A 
HETATM   20  C16 UNL     1      29.069  -0.886  53.511  1.00  0.00     0.144 A 
HETATM   21  F1  UNL     1      30.287  -1.274  53.971  1.00  0.00    -0.204 F 
HETATM   22  C17 UNL     1      28.718   0.457  53.480  1.00  0.00     0.074 A 
BRANCH  19  23
HETATM   23  N4  UNL     1      28.550  -3.265  53.106  1.00  0.00    -0.397 N 
HETATM   24  H17 UNL     1      29.485  -3.574  52.752  1.00  0.00     0.156 HD
HETATM   25  H18 UNL     1      27.817  -3.917  53.492  1.00  0.00     0.156 HD
ENDBRANCH  19  23
ENDBRANCH  14  16
ENDBRANCH   9  14
BRANCH   5  26
HETATM   26  O3  UNL     1      22.217   1.144  49.657  1.00  0.00    -0.376 OA
HETATM   27  C7  UNL     1      21.550   1.085  48.416  1.00  0.00     0.203 C 
ENDBRANCH   5  26
BRANCH   1  28
HETATM   28  O2  UNL     1      20.227   4.118  52.121  1.00  0.00    -0.277 OA
BRANCH  28  29
HETATM   29  C2  UNL     1      20.090   2.739  52.274  1.00  0.00     0.362 C 
HETATM   30  N1  UNL     1      19.641   1.868  51.266  1.00  0.00    -0.341 N 
HETATM   31  C1  UNL     1      19.522   0.445  51.493  1.00  0.00     0.151 C 
HETATM   32  H4  UNL     1      19.385   2.249  50.331  1.00  0.00     0.164 HD
HETATM   33  O1  UNL     1      20.419   2.361  53.428  1.00  0.00    -0.238 OA
ENDBRANCH  28  29
ENDBRANCH   1  28
TORSDOF 6
ENDMDL
MODEL 3
REMARK VINA RESULT:      -8.2      2.273      3.232
REMARK  6 active torsions:
REMARK  status: ('A' for Active; 'I' for Inactive)
REMARK       I    between atoms: N1_2  and  C2_3 
REMARK    1  A    between atoms: C2_3  and  O2_5 
REMARK    2  A    between atoms: O2_5  and  C3_6 
REMARK    3  A    between atoms: C6_10  and  O3_11 
REMARK    4  A    between atoms: C11_16  and  N3_17 
REMARK    5  A    between atoms: N3_17  and  C12_18 
REMARK    6  A    between atoms: C15_21  and  N4_22 
ROOT
HETATM    1  C3  UNL     1      22.455   2.859  48.701  1.00  0.00     0.246 C 
HETATM    2  C4  UNL     1      21.246   2.808  49.534  1.00  0.00     0.168 C 
HETATM    3  N2  UNL     1      21.424   2.874  50.997  1.00  0.00    -0.403 N 
HETATM    4  C5  UNL     1      22.504   3.632  51.634  1.00  0.00     0.099 A 
HETATM    5  C6  UNL     1      23.012   4.872  51.338  1.00  0.00     0.155 A 
HETATM    6  C8  UNL     1      24.082   3.964  51.026  1.00  0.00     0.112 A 
HETATM    7  C9  UNL     1      24.974   3.058  50.776  1.00  0.00     0.018 C 
HETATM    8  C10 UNL     1      24.741   2.754  52.368  1.00  0.00    -0.041 C 
HETATM    9  C11 UNL     1      25.608   2.370  53.311  1.00  0.00     0.095 C 
HETATM   10  C18 UNL     1      23.245   2.923  52.792  1.00  0.00     0.076 C 
HETATM   11  N5  UNL     1      23.741   3.201  49.523  1.00  0.00    -0.378 N 
HETATM   12  H8  UNL     1      20.839   2.405  51.754  1.00  0.00     0.154 HD
HETATM   13  H22 UNL     1      24.442   2.812  48.743  1.00  0.00     0.157 HD
ENDROOT
BRANCH   9  14
HETATM   14  N3  UNL     1      26.979   2.155  53.032  1.00  0.00    -0.365 N 
HETATM   15  H14 UNL     1      27.664   2.889  52.805  1.00  0.00     0.165 HD
BRANCH  14  16
HETATM   16  C12 UNL     1      27.446   0.797  53.071  1.00  0.00     0.035 A 
HETATM   17  C13 UNL     1      26.641  -0.254  52.655  1.00  0.00     0.032 A 
HETATM   18  C14 UNL     1      27.027  -1.580  52.669  1.00  0.00     0.034 A 
HETATM   19  C15 UNL     1      28.304  -1.880  53.127  1.00  0.00     0.065 A 
HETATM   20  C16 UNL     1      29.124  -0.844  53.546  1.00  0.00     0.144 A 
HETATM   21  F1  UNL     1      30.365  -1.174  53.988  1.00  0.00    -0.204 F 
HETATM   22  C17 UNL     1      28.709   0.481  53.523  1.00  0.00     0.074 A 
BRANCH  19  23
HETATM   23  N4  UNL     1      28.712  -3.245  53.144  1.00  0.00    -0.397 N 
HETATM   24  H17 UNL     1      29.194  -3.631  53.989  1.00  0.00     0.156 HD
HETATM   25  H18 UNL     1      28.500  -3.802  52.275  1.00  0.00     0.156 HD
ENDBRANCH  19  23
ENDBRANCH  14  16
ENDBRANCH   9  14
BRANCH   5  26
HETATM   26  O3  UNL     1      23.084   6.293  51.190  1.00  0.00    -0.376 OA
HETATM   27  C7  UNL     1      24.344   6.914  51.078  1.00  0.00     0.203 C 
ENDBRANCH   5  26
BRANCH   1  28
HETATM   28  O2  UNL     1      22.513   3.795  47.681  1.00  0.00    -0.277 OA
BRANCH  28  29
HETATM   29  C2  UNL     1      22.505   5.174  47.882  1.00  0.00     0.362 C 
HETATM   30  N1  UNL     1      21.343   5.948  48.044  1.00  0.00    -0.341 N 
HETATM   31  C1  UNL     1      21.409   7.378  48.249  1.00  0.00     0.151 C 
HETATM   32  H4  UNL     1      20.409   5.489  48.015  1.00  0.00     0.164 HD
HETATM   33  O1  UNL     1      23.670   5.650  47.905  1.00  0.00    -0.238 OA
ENDBRANCH  28  29
ENDBRANCH   1  28
TORSDOF 6
ENDMDL
MODEL 4
REMARK VINA RESULT:      -7.9      2.449      3.782
REMARK  6 active torsions:
REMARK  status: ('A' for Active; 'I' for Inactive)
REMARK       I    between atoms: N1_2  and  C2_3 
REMARK    1  A    between atoms: C2_3  and  O2_5 
REMARK    2  A    between atoms: O2_5  and  C3_6 
REMARK    3  A    between atoms: C6_10  and  O3_11 
REMARK    4  A    between atoms: C11_16  and  N3_17 
REMARK    5  A    between atoms: N3_17  and  C12_18 
REMARK    6  A    between atoms: C15_21  and  N4_22 
ROOT
HETATM    1  C3  UNL     1      23.069   6.759  50.638  1.00  0.00     0.246 C 
HETATM    2  C4  UNL     1      23.662   7.069  49.331  1.00  0.00     0.168 C 
HETATM    3  N2  UNL     1      24.655   6.120  48.791  1.00  0.00    -0.403 N 
HETATM    4  C5  UNL     1      24.600   4.679  49.046  1.00  0.00     0.099 A 
HETATM    5  C6  UNL     1      23.527   3.821  49.064  1.00  0.00     0.155 A 
HETATM    6  C8  UNL     1      23.976   3.859  50.429  1.00  0.00     0.112 A 
HETATM    7  C9  UNL     1      24.464   3.971  51.624  1.00  0.00     0.018 C 
HETATM    8  C10 UNL     1      25.799   3.415  50.857  1.00  0.00    -0.041 C 
HETATM    9  C11 UNL     1      26.760   2.588  51.282  1.00  0.00     0.095 C 
HETATM   10  C18 UNL     1      25.939   3.998  49.412  1.00  0.00     0.076 C 
HETATM   11  N5  UNL     1      23.443   5.328  51.147  1.00  0.00    -0.378 N 
HETATM   12  H8  UNL     1      25.506   6.331  48.186  1.00  0.00     0.154 HD
HETATM   13  H22 UNL     1      23.185   5.551  52.213  1.00  0.00     0.157 HD
ENDROOT
BRANCH   9  14
HETATM   14  N3  UNL     1      26.751   2.028  52.582  1.00  0.00    -0.365 N 
HETATM   15  H14 UNL     1      26.432   2.506  53.436  1.00  0.00     0.165 HD
BRANCH  14  16
HETATM   16  C12 UNL     1      27.228   0.679  52.714  1.00  0.00     0.035 A 
HETATM   17  C13 UNL     1      28.386   0.391  53.424  1.00  0.00     0.032 A 
HETATM   18  C14 UNL     1      28.899  -0.882  53.587  1.00  0.00     0.034 A 
HETATM   19  C15 UNL     1      28.211  -1.938  53.004  1.00  0.00     0.065 A 
HETATM   20  C16 UNL     1      27.053  -1.671  52.292  1.00  0.00     0.144 A 
HETATM   21  F1  UNL     1      26.408  -2.729  51.737  1.00  0.00    -0.204 F 
HETATM   22  C17 UNL     1      26.560  -0.382  52.143  1.00  0.00     0.074 A 
BRANCH  19  23
HETATM   23  N4  UNL     1      28.732  -3.255  53.168  1.00  0.00    -0.397 N 
HETATM   24  H17 UNL     1      28.885  -3.635  54.131  1.00  0.00     0.156 HD
HETATM   25  H18 UNL     1      28.941  -3.784  52.281  1.00  0.00     0.156 HD
ENDBRANCH  19  23
ENDBRANCH  14  16
ENDBRANCH   9  14
BRANCH   5  26
HETATM   26  O3  UNL     1      22.422   3.046  48.594  1.00  0.00    -0.376 OA
HETATM   27  C7  UNL     1      22.072   1.859  49.270  1.00  0.00     0.203 C 
ENDBRANCH   5  26
BRANCH   1  28
HETATM   28  O2  UNL     1      21.688   6.747  50.749  1.00  0.00    -0.277 OA
BRANCH  28  29
HETATM   29  C2  UNL     1      20.874   5.716  50.283  1.00  0.00     0.362 C 
HETATM   30  N1  UNL     1      20.378   5.626  48.970  1.00  0.00    -0.341 N 
HETATM   31  C1  UNL     1      19.536   4.527  48.554  1.00  0.00     0.151 C 
HETATM   32  H4  UNL     1      20.618   6.364  48.276  1.00  0.00     0.164 HD
HETATM   33  O1  UNL     1      20.633   4.868  51.180  1.00  0.00    -0.238 OA
ENDBRANCH  28  29
ENDBRANCH   1  28
TORSDOF 6
ENDMDL
MODEL 5
REMARK VINA RESULT:      -7.8      2.732      3.968
REMARK  6 active torsions:
REMARK  status: ('A' for Active; 'I' for Inactive)
REMARK       I    between atoms: N1_2  and  C2_3 
REMARK    1  A    between atoms: C2_3  and  O2_5 
REMARK    2  A    between atoms: O2_5  and  C3_6 
REMARK    3  A    between atoms: C6_10  and  O3_11 
REMARK    4  A    between atoms: C11_16  and  N3_17 
REMARK    5  A    between atoms: N3_17  and  C12_18 
REMARK    6  A    between atoms: C15_21  and  N4_22 
ROOT
HETATM    1  C3  UNL     1      20.071   1.320  49.572  1.00  0.00     0.246 C 
HETATM    2  C4  UNL     1      18.984   1.519  50.539  1.00  0.00     0.168 C 
HETATM    3  N2  UNL     1      19.319   1.416  51.973  1.00  0.00    -0.403 N 
HETATM    4  C5  UNL     1      20.622   1.810  52.515  1.00  0.00     0.099 A 
HETATM    5  C6  UNL     1      21.412   2.895  52.226  1.00  0.00     0.155 A 
HETATM    6  C8  UNL     1      22.161   1.768  51.741  1.00  0.00     0.112 A 
HETATM    7  C9  UNL     1      22.747   0.684  51.340  1.00  0.00     0.018 C 
HETATM    8  C10 UNL     1      22.603   0.321  52.930  1.00  0.00    -0.041 C 
HETATM    9  C11 UNL     1      23.425  -0.351  53.743  1.00  0.00     0.095 C 
HETATM   10  C18 UNL     1      21.258   0.840  53.538  1.00  0.00     0.076 C 
HETATM   11  N5  UNL     1      21.478   1.246  50.252  1.00  0.00    -0.378 N 
HETATM   12  H8  UNL     1      18.709   1.055  52.768  1.00  0.00     0.154 HD
HETATM   13  H22 UNL     1      21.966   0.752  49.375  1.00  0.00     0.157 HD
ENDROOT
BRANCH   9  14
HETATM   14  N3  UNL     1      24.652  -0.893  53.291  1.00  0.00    -0.365 N 
HETATM   15  H14 UNL     1      24.780  -1.837  52.900  1.00  0.00     0.165 HD
BRANCH  14  16
HETATM   16  C12 UNL     1      25.812  -0.051  53.389  1.00  0.00     0.035 A 
HETATM   17  C13 UNL     1      25.694   1.321  53.560  1.00  0.00     0.032 A 
HETATM   18  C14 UNL     1      26.766   2.186  53.660  1.00  0.00     0.034 A 
HETATM   19  C15 UNL     1      28.044   1.647  53.585  1.00  0.00     0.065 A 
HETATM   20  C16 UNL     1      28.184   0.279  53.416  1.00  0.00     0.144 A 
HETATM   21  F1  UNL     1      29.448  -0.212  53.347  1.00  0.00    -0.204 F 
HETATM   22  C17 UNL     1      27.088  -0.567  53.317  1.00  0.00     0.074 A 
BRANCH  19  23
HETATM   23  N4  UNL     1      29.157   2.531  53.688  1.00  0.00    -0.397 N 
HETATM   24  H17 UNL     1      29.728   2.747  52.838  1.00  0.00     0.156 HD
HETATM   25  H18 UNL     1      29.346   2.928  54.646  1.00  0.00     0.156 HD
ENDBRANCH  19  23
ENDBRANCH  14  16
ENDBRANCH   9  14
BRANCH   5  26
HETATM   26  O3  UNL     1      21.848   4.255  52.145  1.00  0.00    -0.376 OA
HETATM   27  C7  UNL     1      23.204   4.562  52.374  1.00  0.00     0.203 C 
ENDBRANCH   5  26
BRANCH   1  28
HETATM   28  O2  UNL     1      20.275   2.289  48.603  1.00  0.00    -0.277 OA
BRANCH  28  29
HETATM   29  C2  UNL     1      21.493   2.930  48.381  1.00  0.00     0.362 C 
HETATM   30  N1  UNL     1      21.823   4.203  48.879  1.00  0.00    -0.341 N 
HETATM   31  C1  UNL     1      23.107   4.811  48.609  1.00  0.00     0.151 C 
HETATM   32  H4  UNL     1      21.132   4.727  49.456  1.00  0.00     0.164 HD
HETATM   33  O1  UNL     1      22.268   2.232  47.679  1.00  0.00    -0.238 OA
ENDBRANCH  28  29
ENDBRANCH   1  28
TORSDOF 6
ENDMDL
MODEL 6
REMARK VINA RESULT:      -7.5      2.630      3.838
REMARK  6 active torsions:
REMARK  status: ('A' for Active; 'I' for Inactive)
REMARK       I    between atoms: N1_2  and  C2_3 
REMARK    1  A    between atoms: C2_3  and  O2_5 
REMARK    2  A    between atoms: O2_5  and  C3_6 
REMARK    3  A    between atoms: C6_10  and  O3_11 
REMARK    4  A    between atoms: C11_16  and  N3_17 
REMARK    5  A    between atoms: N3_17  and  C12_18 
REMARK    6  A    between atoms: C15_21  and  N4_22 
ROOT
HETATM    1  C3  UNL     1      21.919   2.173  48.184  1.00  0.00     0.246 C 
HETATM    2  C4  UNL     1      20.726   2.079  49.036  1.00  0.00     0.168 C 
HETATM    3  N2  UNL     1      20.905   2.296  50.484  1.00  0.00    -0.403 N 
HETATM    4  C5  UNL     1      21.908   3.210  51.035  1.00  0.00     0.099 A 
HETATM    5  C6  UNL     1      22.288   4.463  50.621  1.00  0.00     0.155 A 
HETATM    6  C8  UNL     1      23.441   3.640  50.376  1.00  0.00     0.112 A 
HETATM    7  C9  UNL     1      24.417   2.807  50.196  1.00  0.00     0.018 C 
HETATM    8  C10 UNL     1      24.225   2.627  51.812  1.00  0.00    -0.041 C 
HETATM    9  C11 UNL     1      25.131   2.418  52.773  1.00  0.00     0.095 C 
HETATM   10  C18 UNL     1      22.722   2.686  52.241  1.00  0.00     0.076 C 
HETATM   11  N5  UNL     1      23.169   2.714  48.953  1.00  0.00    -0.378 N 
HETATM   12  H8  UNL     1      20.374   1.842  51.289  1.00  0.00     0.154 HD
HETATM   13  H22 UNL     1      23.901   2.326  48.201  1.00  0.00     0.157 HD
ENDROOT
BRANCH   9  14
HETATM   14  N3  UNL     1      26.515   2.314  52.494  1.00  0.00    -0.365 N 
HETATM   15  H14 UNL     1      27.117   3.082  52.164  1.00  0.00     0.165 HD
BRANCH  14  16
HETATM   16  C12 UNL     1      27.124   1.028  52.691  1.00  0.00     0.035 A 
HETATM   17  C13 UNL     1      28.325   0.897  53.375  1.00  0.00     0.032 A 
HETATM   18  C14 UNL     1      28.964  -0.307  53.597  1.00  0.00     0.034 A 
HETATM   19  C15 UNL     1      28.365  -1.460  53.106  1.00  0.00     0.065 A 
HETATM   20  C16 UNL     1      27.165  -1.351  52.422  1.00  0.00     0.144 A 
HETATM   21  F1  UNL     1      26.608  -2.499  51.956  1.00  0.00    -0.204 F 
HETATM   22  C17 UNL     1      26.545  -0.126  52.212  1.00  0.00     0.074 A 
BRANCH  19  23
HETATM   23  N4  UNL     1      29.016  -2.707  53.331  1.00  0.00    -0.397 N 
HETATM   24  H17 UNL     1      29.060  -3.415  52.562  1.00  0.00     0.156 HD
HETATM   25  H18 UNL     1      29.426  -2.849  54.292  1.00  0.00     0.156 HD
ENDBRANCH  19  23
ENDBRANCH  14  16
ENDBRANCH   9  14
BRANCH   5  26
HETATM   26  O3  UNL     1      22.218   5.864  50.345  1.00  0.00    -0.376 OA
HETATM   27  C7  UNL     1      23.169   6.732  50.920  1.00  0.00     0.203 C 
ENDBRANCH   5  26
BRANCH   1  28
HETATM   28  O2  UNL     1      21.878   3.013  47.084  1.00  0.00    -0.277 OA
BRANCH  28  29
HETATM   29  C2  UNL     1      21.640   4.385  47.154  1.00  0.00     0.362 C 
HETATM   30  N1  UNL     1      20.364   4.968  47.239  1.00  0.00    -0.341 N 
HETATM   31  C1  UNL     1      20.190   6.402  47.308  1.00  0.00     0.151 C 
HETATM   32  H4  UNL     1      19.518   4.360  47.251  1.00  0.00     0.164 HD
HETATM   33  O1  UNL     1      22.710   5.047  47.134  1.00  0.00    -0.238 OA
ENDBRANCH  28  29
ENDBRANCH   1  28
TORSDOF 6
ENDMDL
MODEL 7
REMARK VINA RESULT:      -7.5      3.686      5.904
REMARK  6 active torsions:
REMARK  status: ('A' for Active; 'I' for Inactive)
REMARK       I    between atoms: N1_2  and  C2_3 
REMARK    1  A    between atoms: C2_3  and  O2_5 
REMARK    2  A    between atoms: O2_5  and  C3_6 
REMARK    3  A    between atoms: C6_10  and  O3_11 
REMARK    4  A    between atoms: C11_16  and  N3_17 
REMARK    5  A    between atoms: N3_17  and  C12_18 
REMARK    6  A    between atoms: C15_21  and  N4_22 
ROOT
HETATM    1  C3  UNL     1      18.689   0.796  51.550  1.00  0.00     0.246 C 
HETATM    2  C4  UNL     1      18.686   2.253  51.364  1.00  0.00     0.168 C 
HETATM    3  N2  UNL     1      19.979   2.956  51.469  1.00  0.00    -0.403 N 
HETATM    4  C5  UNL     1      21.250   2.350  51.064  1.00  0.00     0.099 A 
HETATM    5  C6  UNL     1      21.556   1.578  49.971  1.00  0.00     0.155 A 
HETATM    6  C8  UNL     1      21.698   0.686  51.089  1.00  0.00     0.112 A 
HETATM    7  C9  UNL     1      21.793  -0.028  52.167  1.00  0.00     0.018 C 
HETATM    8  C10 UNL     1      22.884   1.135  52.536  1.00  0.00    -0.041 C 
HETATM    9  C11 UNL     1      24.041   1.057  53.203  1.00  0.00     0.095 C 
HETATM   10  C18 UNL     1      22.440   2.548  52.032  1.00  0.00     0.076 C 
HETATM   11  N5  UNL     1      20.134   0.199  51.612  1.00  0.00    -0.378 N 
HETATM   12  H8  UNL     1      20.167   3.938  51.838  1.00  0.00     0.154 HD
HETATM   13  H22 UNL     1      19.807  -0.754  52.099  1.00  0.00     0.157 HD
ENDROOT
BRANCH   9  14
HETATM   14  N3  UNL     1      24.523  -0.164  53.733  1.00  0.00    -0.365 N 
HETATM   15  H14 UNL     1      23.940  -0.924  54.108  1.00  0.00     0.165 HD
BRANCH  14  16
HETATM   16  C12 UNL     1      25.948  -0.352  53.742  1.00  0.00     0.035 A 
HETATM   17  C13 UNL     1      26.561  -1.257  52.887  1.00  0.00     0.032 A 
HETATM   18  C14 UNL     1      27.922  -1.486  52.847  1.00  0.00     0.034 A 
HETATM   19  C15 UNL     1      28.728  -0.764  53.717  1.00  0.00     0.065 A 
HETATM   20  C16 UNL     1      28.136   0.146  54.578  1.00  0.00     0.144 A 
HETATM   21  F1  UNL     1      28.956   0.834  55.414  1.00  0.00    -0.204 F 
HETATM   22  C17 UNL     1      26.764   0.356  54.598  1.00  0.00     0.074 A 
BRANCH  19  23
HETATM   23  N4  UNL     1      30.134  -0.993  53.682  1.00  0.00    -0.397 N 
HETATM   24  H17 UNL     1      30.598  -1.235  52.775  1.00  0.00     0.156 HD
HETATM   25  H18 UNL     1      30.641  -0.903  54.602  1.00  0.00     0.156 HD
ENDBRANCH  19  23
ENDBRANCH  14  16
ENDBRANCH   9  14
BRANCH   5  26
HETATM   26  O3  UNL     1      21.781   1.212  48.607  1.00  0.00    -0.376 OA
HETATM   27  C7  UNL     1      22.550   2.057  47.781  1.00  0.00     0.203 C 
ENDBRANCH   5  26
BRANCH   1  28
HETATM   28  O2  UNL     1      18.099   0.007  50.576  1.00  0.00    -0.277 OA
BRANCH  28  29
HETATM   29  C2  UNL     1      16.808   0.200  50.087  1.00  0.00     0.362 C 
HETATM   30  N1  UNL     1      16.506   0.587  48.770  1.00  0.00    -0.341 N 
HETATM   31  C1  UNL     1      15.141   0.770  48.330  1.00  0.00     0.151 C 
HETATM   32  H4  UNL     1      17.277   0.750  48.089  1.00  0.00     0.164 HD
HETATM   33  O1  UNL     1      15.937  -0.016  50.969  1.00  0.00    -0.238 OA
ENDBRANCH  28  29
ENDBRANCH   1  28
TORSDOF 6
ENDMDL
MODEL 8
REMARK VINA RESULT:      -7.5      3.378      7.625
REMARK  6 active torsions:
REMARK  status: ('A' for Active; 'I' for Inactive)
REMARK       I    between atoms: N1_2  and  C2_3 
REMARK    1  A    between atoms: C2_3  and  O2_5 
REMARK    2  A    between atoms: O2_5  and  C3_6 
REMARK    3  A    between atoms: C6_10  and  O3_11 
REMARK    4  A    between atoms: C11_16  and  N3_17 
REMARK    5  A    between atoms: N3_17  and  C12_18 
REMARK    6  A    between atoms: C15_21  and  N4_22 
ROOT
HETATM    1  C3  UNL     1      26.490   2.124  52.902  1.00  0.00     0.246 C 
HETATM    2  C4  UNL     1      25.397   2.461  53.822  1.00  0.00     0.168 C 
HETATM    3  N2  UNL     1      24.400   3.449  53.365  1.00  0.00    -0.403 N 
HETATM    4  C5  UNL     1      24.004   3.587  51.961  1.00  0.00     0.099 A 
HETATM    5  C6  UNL     1      23.752   2.629  51.011  1.00  0.00     0.155 A 
HETATM    6  C8  UNL     1      24.944   3.286  50.548  1.00  0.00     0.112 A 
HETATM    7  C9  UNL     1      26.013   3.945  50.229  1.00  0.00     0.018 C 
HETATM    8  C10 UNL     1      24.950   5.190  50.272  1.00  0.00    -0.041 C 
HETATM    9  C11 UNL     1      24.872   6.289  49.515  1.00  0.00     0.095 C 
HETATM   10  C18 UNL     1      23.899   5.033  51.421  1.00  0.00     0.076 C 
HETATM   11  N5  UNL     1      26.282   2.723  51.472  1.00  0.00    -0.378 N 
HETATM   12  H8  UNL     1      23.866   4.164  53.946  1.00  0.00     0.154 HD
HETATM   13  H22 UNL     1      27.357   2.619  51.183  1.00  0.00     0.157 HD
ENDROOT
BRANCH   9  14
HETATM   14  N3  UNL     1      25.790   6.549  48.469  1.00  0.00    -0.365 N 
HETATM   15  H14 UNL     1      25.721   6.186  47.509  1.00  0.00     0.165 HD
BRANCH  14  16
HETATM   16  C12 UNL     1      26.910   7.394  48.781  1.00  0.00     0.035 A 
HETATM   17  C13 UNL     1      26.786   8.458  49.663  1.00  0.00     0.032 A 
HETATM   18  C14 UNL     1      27.821   9.307  50.005  1.00  0.00     0.034 A 
HETATM   19  C15 UNL     1      29.064   9.080  49.429  1.00  0.00     0.065 A 
HETATM   20  C16 UNL     1      29.209   8.022  48.546  1.00  0.00     0.144 A 
HETATM   21  F1  UNL     1      30.439   7.830  48.003  1.00  0.00    -0.204 F 
HETATM   22  C17 UNL     1      28.151   7.184  48.220  1.00  0.00     0.074 A 
BRANCH  19  23
HETATM   23  N4  UNL     1      30.138   9.951  49.776  1.00  0.00    -0.397 N 
HETATM   24  H17 UNL     1      30.239  10.869  49.285  1.00  0.00     0.156 HD
HETATM   25  H18 UNL     1      30.788   9.606  50.530  1.00  0.00     0.156 HD
ENDBRANCH  19  23
ENDBRANCH  14  16
ENDBRANCH   9  14
BRANCH   5  26
HETATM   26  O3  UNL     1      23.105   1.550  50.332  1.00  0.00    -0.376 OA
HETATM   27  C7  UNL     1      21.930   0.994  50.879  1.00  0.00     0.203 C 
ENDBRANCH   5  26
BRANCH   1  28
HETATM   28  O2  UNL     1      26.722   0.788  52.617  1.00  0.00    -0.277 OA
BRANCH  28  29
HETATM   29  C2  UNL     1      27.879   0.099  52.977  1.00  0.00     0.362 C 
HETATM   30  N1  UNL     1      27.986  -1.301  53.034  1.00  0.00    -0.341 N 
HETATM   31  C1  UNL     1      29.220  -1.951  53.417  1.00  0.00     0.151 C 
HETATM   32  H4  UNL     1      27.161  -1.892  52.799  1.00  0.00     0.164 HD
HETATM   33  O1  UNL     1      28.826   0.884  53.244  1.00  0.00    -0.238 OA
ENDBRANCH  28  29
ENDBRANCH   1  28
TORSDOF 6
ENDMDL
MODEL 9
REMARK VINA RESULT:      -7.5      3.181      4.533
REMARK  6 active torsions:
REMARK  status: ('A' for Active; 'I' for Inactive)
REMARK       I    between atoms: N1_2  and  C2_3 
REMARK    1  A    between atoms: C2_3  and  O2_5 
REMARK    2  A    between atoms: O2_5  and  C3_6 
REMARK    3  A    between atoms: C6_10  and  O3_11 
REMARK    4  A    between atoms: C11_16  and  N3_17 
REMARK    5  A    between atoms: N3_17  and  C12_18 
REMARK    6  A    between atoms: C15_21  and  N4_22 
ROOT
HETATM    1  C3  UNL     1      24.868   7.076  50.781  1.00  0.00     0.246 C 
HETATM    2  C4  UNL     1      25.543   6.802  49.505  1.00  0.00     0.168 C 
HETATM    3  N2  UNL     1      25.651   5.393  49.080  1.00  0.00    -0.403 N 
HETATM    4  C5  UNL     1      24.636   4.386  49.396  1.00  0.00     0.099 A 
HETATM    5  C6  UNL     1      23.265   4.471  49.377  1.00  0.00     0.155 A 
HETATM    6  C8  UNL     1      23.594   4.309  50.767  1.00  0.00     0.112 A 
HETATM    7  C9  UNL     1      24.004   4.162  51.987  1.00  0.00     0.018 C 
HETATM    8  C10 UNL     1      24.633   2.796  51.342  1.00  0.00    -0.041 C 
HETATM    9  C11 UNL     1      24.780   1.576  51.870  1.00  0.00     0.095 C 
HETATM   10  C18 UNL     1      25.161   3.016  49.886  1.00  0.00     0.076 C 
HETATM   11  N5  UNL     1      24.171   5.809  51.379  1.00  0.00    -0.378 N 
HETATM   12  H8  UNL     1      26.436   4.930  48.528  1.00  0.00     0.154 HD
HETATM   13  H22 UNL     1      24.107   6.232  52.413  1.00  0.00     0.157 HD
ENDROOT
BRANCH   9  14
HETATM   14  N3  UNL     1      24.369   1.273  53.190  1.00  0.00    -0.365 N 
HETATM   15  H14 UNL     1      24.908   1.473  54.044  1.00  0.00     0.165 HD
BRANCH  14  16
HETATM   16  C12 UNL     1      23.091   0.634  53.345  1.00  0.00     0.035 A 
HETATM   17  C13 UNL     1      21.929   1.223  52.865  1.00  0.00     0.032 A 
HETATM   18  C14 UNL     1      20.671   0.663  52.982  1.00  0.00     0.034 A 
HETATM   19  C15 UNL     1      20.564  -0.566  53.619  1.00  0.00     0.065 A 
HETATM   20  C16 UNL     1      21.713  -1.171  54.103  1.00  0.00     0.144 A 
HETATM   21  F1  UNL     1      21.569  -2.373  54.720  1.00  0.00    -0.204 F 
HETATM   22  C17 UNL     1      22.965  -0.585  53.973  1.00  0.00     0.074 A 
BRANCH  19  23
HETATM   23  N4  UNL     1      19.271  -1.152  53.743  1.00  0.00    -0.397 N 
HETATM   24  H17 UNL     1      19.156  -2.047  54.273  1.00  0.00     0.156 HD
HETATM   25  H18 UNL     1      18.480  -0.632  53.277  1.00  0.00     0.156 HD
ENDBRANCH  19  23
ENDBRANCH  14  16
ENDBRANCH   9  14
BRANCH   5  26
HETATM   26  O3  UNL     1      21.936   4.600  48.867  1.00  0.00    -0.376 OA
HETATM   27  C7  UNL     1      20.866   4.002  49.563  1.00  0.00     0.203 C 
ENDBRANCH   5  26
BRANCH   1  28
HETATM   28  O2  UNL     1      23.836   7.999  50.795  1.00  0.00    -0.277 OA
BRANCH  28  29
HETATM   29  C2  UNL     1      22.596   7.798  50.190  1.00  0.00     0.362 C 
HETATM   30  N1  UNL     1      22.327   8.029  48.830  1.00  0.00    -0.341 N 
HETATM   31  C1  UNL     1      21.015   7.800  48.268  1.00  0.00     0.151 C 
HETATM   32  H4  UNL     1      23.086   8.375  48.205  1.00  0.00     0.164 HD
HETATM   33  O1  UNL     1      21.738   7.381  51.010  1.00  0.00    -0.238 OA
ENDBRANCH  28  29
ENDBRANCH   1  28
TORSDOF 6
ENDMDL
