MODEL 1
REMARK VINA RESULT:      -8.1      0.000      0.000
REMARK  6 active torsions:
REMARK  status: ('A' for Active; 'I' for Inactive)
REMARK    1  A    between atoms: C2_2  and  C3_3 
REMARK    2  A    between atoms: C3_3  and  N1_4 
REMARK    3  A    between atoms: C4_6  and  C5_7 
REMARK    4  A    between atoms: C9_11  and  O1_12 
REMARK    5  A    between atoms: C11_14  and  N3_15 
REMARK    6  A    between atoms: C14_18  and  N4_19 
ROOT
HETATM    1  N1  UNL     1      22.829   1.207  51.984  1.00  0.00    -0.251 N 
HETATM    2  N2  UNL     1      23.772   0.724  52.776  1.00  0.00    -0.170 NA
HETATM    3  C4  UNL     1      24.966   1.278  52.523  1.00  0.00     0.096 A 
HETATM    4  C13 UNL     1      24.689   2.162  51.491  1.00  0.00     0.087 A 
HETATM    5  C14 UNL     1      25.469   3.044  50.766  1.00  0.00     0.139 A 
HETATM    6  N5  UNL     1      24.992   3.830  49.783  1.00  0.00    -0.224 NA
HETATM    7  C15 UNL     1      23.664   3.768  49.469  1.00  0.00     0.237 A 
HETATM    8  N6  UNL     1      22.887   2.917  50.162  1.00  0.00    -0.222 NA
HETATM    9  C16 UNL     1      23.355   2.136  51.135  1.00  0.00     0.163 A 
ENDROOT
BRANCH   3  10
HETATM   10  C5  UNL     1      26.291   1.107  53.091  1.00  0.00     0.048 C 
HETATM   11  C6  UNL     1      26.945  -0.043  53.067  1.00  0.00    -0.006 C 
HETATM   12  C7  UNL     1      26.385  -1.245  52.463  1.00  0.00     0.016 C 
HETATM   13  C11 UNL     1      28.271  -0.150  53.654  1.00  0.00     0.052 C 
HETATM   14  C8  UNL     1      27.113  -2.364  52.482  1.00  0.00     0.038 C 
HETATM   15  C9  UNL     1      28.439  -2.349  53.105  1.00  0.00     0.079 C 
HETATM   16  C10 UNL     1      29.006  -1.169  53.250  1.00  0.00     0.040 C 
BRANCH  15  17
HETATM   17  O1  UNL     1      29.086  -3.518  53.530  1.00  0.00    -0.360 OA
HETATM   18  H11 UNL     1      29.252  -3.644  54.517  1.00  0.00     0.217 HD
ENDBRANCH  15  17
BRANCH  13  19
HETATM   19  N3  UNL     1      28.691   0.815  54.601  1.00  0.00    -0.393 N 
HETATM   20  C12 UNL     1      29.487   2.007  54.818  1.00  0.00     0.146 C 
HETATM   21  H12 UNL     1      28.250   0.581  55.536  1.00  0.00     0.159 HD
ENDBRANCH  13  19
ENDBRANCH   3  10
BRANCH   1  22
HETATM   22  C3  UNL     1      21.448   0.803  52.021  1.00  0.00     0.153 C 
BRANCH  22  23
HETATM   23  C2  UNL     1      21.241  -0.278  53.062  1.00  0.00     0.018 C 
HETATM   24  C1  UNL     1      20.721   0.299  54.347  1.00  0.00     0.007 C 
ENDBRANCH  22  23
ENDBRANCH   1  22
BRANCH   5  25
HETATM   25  N4  UNL     1      26.858   3.183  51.019  1.00  0.00    -0.383 N 
HETATM   26  H16 UNL     1      27.831   3.273  50.679  1.00  0.00     0.157 HD
HETATM   27  H17 UNL     1      27.271   3.239  51.997  1.00  0.00     0.157 HD
ENDBRANCH   5  25
TORSDOF 6
ENDMDL
MODEL 2
REMARK VINA RESULT:      -7.8      3.306      7.014
REMARK  6 active torsions:
REMARK  status: ('A' for Active; 'I' for Inactive)
REMARK    1  A    between atoms: C2_2  and  C3_3 
REMARK    2  A    between atoms: C3_3  and  N1_4 
REMARK    3  A    between atoms: C4_6  and  C5_7 
REMARK    4  A    between atoms: C9_11  and  O1_12 
REMARK    5  A    between atoms: C11_14  and  N3_15 
REMARK    6  A    between atoms: C14_18  and  N4_19 
ROOT
HETATM    1  N1  UNL     1      26.637   0.203  54.100  1.00  0.00    -0.251 N 
HETATM    2  N2  UNL     1      26.453   0.933  53.013  1.00  0.00    -0.170 NA
HETATM    3  C4  UNL     1      25.172   0.921  52.616  1.00  0.00     0.096 A 
HETATM    4  C13 UNL     1      24.560   0.109  53.560  1.00  0.00     0.087 A 
HETATM    5  C14 UNL     1      23.258  -0.317  53.738  1.00  0.00     0.139 A 
HETATM    6  N5  UNL     1      22.865  -1.121  54.744  1.00  0.00    -0.224 NA
HETATM    7  C15 UNL     1      23.791  -1.551  55.651  1.00  0.00     0.237 A 
HETATM    8  N6  UNL     1      25.065  -1.148  55.496  1.00  0.00    -0.222 NA
HETATM    9  C16 UNL     1      25.458  -0.353  54.501  1.00  0.00     0.163 A 
ENDROOT
BRANCH   3  10
HETATM   10  C5  UNL     1      24.457   1.540  51.515  1.00  0.00     0.048 C 
HETATM   11  C6  UNL     1      23.919   2.746  51.591  1.00  0.00    -0.006 C 
HETATM   12  C7  UNL     1      23.999   3.562  52.796  1.00  0.00     0.016 C 
HETATM   13  C11 UNL     1      23.214   3.313  50.452  1.00  0.00     0.052 C 
HETATM   14  C8  UNL     1      23.428   4.768  52.787  1.00  0.00     0.038 C 
HETATM   15  C9  UNL     1      22.743   5.230  51.576  1.00  0.00     0.079 C 
HETATM   16  C10 UNL     1      23.064   4.623  50.453  1.00  0.00     0.040 C 
BRANCH  15  17
HETATM   17  O1  UNL     1      21.794   6.263  51.594  1.00  0.00    -0.360 OA
HETATM   18  H11 UNL     1      21.166   6.324  52.381  1.00  0.00     0.217 HD
ENDBRANCH  15  17
BRANCH  13  19
HETATM   19  N3  UNL     1      22.737   2.452  49.433  1.00  0.00    -0.393 N 
HETATM   20  C12 UNL     1      21.749   1.452  49.081  1.00  0.00     0.146 C 
HETATM   21  H12 UNL     1      23.340   2.586  48.571  1.00  0.00     0.159 HD
ENDBRANCH  13  19
ENDBRANCH   3  10
BRANCH   1  22
HETATM   22  C3  UNL     1      27.905   0.027  54.757  1.00  0.00     0.153 C 
BRANCH  22  23
HETATM   23  C2  UNL     1      29.041   0.389  53.822  1.00  0.00     0.018 C 
HETATM   24  C1  UNL     1      29.928  -0.794  53.563  1.00  0.00     0.007 C 
ENDBRANCH  22  23
ENDBRANCH   1  22
BRANCH   5  25
HETATM   25  N4  UNL     1      22.222   0.077  52.851  1.00  0.00    -0.383 N 
HETATM   26  H16 UNL     1      21.217   0.170  52.625  1.00  0.00     0.157 HD
HETATM   27  H17 UNL     1      22.403   0.515  51.899  1.00  0.00     0.157 HD
ENDBRANCH   5  25
TORSDOF 6
ENDMDL
MODEL 3
REMARK VINA RESULT:      -7.5      3.274      6.018
REMARK  6 active torsions:
REMARK  status: ('A' for Active; 'I' for Inactive)
REMARK    1  A    between atoms: C2_2  and  C3_3 
REMARK    2  A    between atoms: C3_3  and  N1_4 
REMARK    3  A    between atoms: C4_6  and  C5_7 
REMARK    4  A    between atoms: C9_11  and  O1_12 
REMARK    5  A    between atoms: C11_14  and  N3_15 
REMARK    6  A    between atoms: C14_18  and  N4_19 
ROOT
HETATM    1  N1  UNL     1      25.292   0.139  53.046  1.00  0.00    -0.251 N 
HETATM    2  N2  UNL     1      25.180   0.980  52.032  1.00  0.00    -0.170 NA
HETATM    3  C4  UNL     1      26.232   1.809  51.956  1.00  0.00     0.096 A 
HETATM    4  C13 UNL     1      27.023   1.410  53.023  1.00  0.00     0.087 A 
HETATM    5  C14 UNL     1      28.240   1.844  53.512  1.00  0.00     0.139 A 
HETATM    6  N5  UNL     1      28.850   1.307  54.586  1.00  0.00    -0.224 NA
HETATM    7  C15 UNL     1      28.247   0.272  55.243  1.00  0.00     0.237 A 
HETATM    8  N6  UNL     1      27.062  -0.166  54.783  1.00  0.00    -0.222 NA
HETATM    9  C16 UNL     1      26.455   0.363  53.722  1.00  0.00     0.163 A 
ENDROOT
BRANCH   3  10
HETATM   10  C5  UNL     1      26.595   2.889  51.056  1.00  0.00     0.048 C 
HETATM   11  C6  UNL     1      25.708   3.570  50.350  1.00  0.00    -0.006 C 
HETATM   12  C7  UNL     1      24.279   3.292  50.417  1.00  0.00     0.016 C 
HETATM   13  C11 UNL     1      26.136   4.642  49.464  1.00  0.00     0.052 C 
HETATM   14  C8  UNL     1      23.453   4.029  49.670  1.00  0.00     0.038 C 
HETATM   15  C9  UNL     1      24.004   5.083  48.814  1.00  0.00     0.079 C 
HETATM   16  C10 UNL     1      25.210   5.515  49.118  1.00  0.00     0.040 C 
BRANCH  15  17
HETATM   17  O1  UNL     1      23.298   5.615  47.725  1.00  0.00    -0.360 OA
HETATM   18  H11 UNL     1      23.763   5.669  46.832  1.00  0.00     0.217 HD
ENDBRANCH  15  17
BRANCH  13  19
HETATM   19  N3  UNL     1      27.483   4.688  49.031  1.00  0.00    -0.393 N 
HETATM   20  C12 UNL     1      28.498   5.486  48.373  1.00  0.00     0.146 C 
HETATM   21  H12 UNL     1      27.950   3.771  49.288  1.00  0.00     0.159 HD
ENDBRANCH  13  19
ENDBRANCH   3  10
BRANCH   1  22
HETATM   22  C3  UNL     1      24.318  -0.868  53.378  1.00  0.00     0.153 C 
BRANCH  22  23
HETATM   23  C2  UNL     1      22.977  -0.229  53.676  1.00  0.00     0.018 C 
HETATM   24  C1  UNL     1      22.169  -1.077  54.617  1.00  0.00     0.007 C 
ENDBRANCH  22  23
ENDBRANCH   1  22
BRANCH   5  25
HETATM   25  N4  UNL     1      28.947   2.911  52.898  1.00  0.00    -0.383 N 
HETATM   26  H16 UNL     1      28.956   3.782  52.341  1.00  0.00     0.157 HD
HETATM   27  H17 UNL     1      30.005   3.011  52.939  1.00  0.00     0.157 HD
ENDBRANCH   5  25
TORSDOF 6
ENDMDL
MODEL 4
REMARK VINA RESULT:      -7.3      2.309      4.601
REMARK  6 active torsions:
REMARK  status: ('A' for Active; 'I' for Inactive)
REMARK    1  A    between atoms: C2_2  and  C3_3 
REMARK    2  A    between atoms: C3_3  and  N1_4 
REMARK    3  A    between atoms: C4_6  and  C5_7 
REMARK    4  A    between atoms: C9_11  and  O1_12 
REMARK    5  A    between atoms: C11_14  and  N3_15 
REMARK    6  A    between atoms: C14_18  and  N4_19 
ROOT
HETATM    1  N1  UNL     1      24.276   4.636  50.197  1.00  0.00    -0.251 N 
HETATM    2  N2  UNL     1      24.481   3.957  51.313  1.00  0.00    -0.170 NA
HETATM    3  C4  UNL     1      23.780   2.814  51.335  1.00  0.00     0.096 A 
HETATM    4  C13 UNL     1      23.109   2.835  50.121  1.00  0.00     0.087 A 
HETATM    5  C14 UNL     1      22.223   1.964  49.515  1.00  0.00     0.139 A 
HETATM    6  N5  UNL     1      21.675   2.178  48.304  1.00  0.00    -0.224 NA
HETATM    7  C15 UNL     1      21.999   3.315  47.620  1.00  0.00     0.237 A 
HETATM    8  N6  UNL     1      22.859   4.176  48.192  1.00  0.00    -0.222 NA
HETATM    9  C16 UNL     1      23.404   3.968  49.390  1.00  0.00     0.163 A 
ENDROOT
BRANCH   3  10
HETATM   10  C5  UNL     1      23.651   1.735  52.297  1.00  0.00     0.048 C 
HETATM   11  C6  UNL     1      24.605   0.844  52.516  1.00  0.00    -0.006 C 
HETATM   12  C7  UNL     1      25.876   0.872  51.805  1.00  0.00     0.016 C 
HETATM   13  C11 UNL     1      24.415  -0.215  53.495  1.00  0.00     0.052 C 
HETATM   14  C8  UNL     1      26.784  -0.065  52.088  1.00  0.00     0.038 C 
HETATM   15  C9  UNL     1      26.476  -1.083  53.095  1.00  0.00     0.079 C 
HETATM   16  C10 UNL     1      25.510  -0.797  53.943  1.00  0.00     0.040 C 
BRANCH  15  17
HETATM   17  O1  UNL     1      27.163  -2.304  53.167  1.00  0.00    -0.360 OA
HETATM   18  H11 UNL     1      27.783  -2.461  53.947  1.00  0.00     0.217 HD
ENDBRANCH  15  17
BRANCH  13  19
HETATM   19  N3  UNL     1      23.102  -0.558  53.901  1.00  0.00    -0.393 N 
HETATM   20  C12 UNL     1      22.303  -1.302  54.854  1.00  0.00     0.146 C 
HETATM   21  H12 UNL     1      22.414  -0.081  53.249  1.00  0.00     0.159 HD
ENDBRANCH  13  19
ENDBRANCH   3  10
BRANCH   1  22
HETATM   22  C3  UNL     1      24.892   5.900  49.890  1.00  0.00     0.153 C 
BRANCH  22  23
HETATM   23  C2  UNL     1      25.783   5.773  48.671  1.00  0.00     0.018 C 
HETATM   24  C1  UNL     1      26.927   4.834  48.931  1.00  0.00     0.007 C 
ENDBRANCH  22  23
ENDBRANCH   1  22
BRANCH   5  25
HETATM   25  N4  UNL     1      21.826   0.756  50.144  1.00  0.00    -0.383 N 
HETATM   26  H16 UNL     1      21.898  -0.271  50.249  1.00  0.00     0.157 HD
HETATM   27  H17 UNL     1      21.096   0.712  50.916  1.00  0.00     0.157 HD
ENDBRANCH   5  25
TORSDOF 6
ENDMDL
MODEL 5
REMARK VINA RESULT:      -7.1      3.081      6.322
REMARK  6 active torsions:
REMARK  status: ('A' for Active; 'I' for Inactive)
REMARK    1  A    between atoms: C2_2  and  C3_3 
REMARK    2  A    between atoms: C3_3  and  N1_4 
REMARK    3  A    between atoms: C4_6  and  C5_7 
REMARK    4  A    between atoms: C9_11  and  O1_12 
REMARK    5  A    between atoms: C11_14  and  N3_15 
REMARK    6  A    between atoms: C14_18  and  N4_19 
ROOT
HETATM    1  N1  UNL     1      26.350   2.493  51.333  1.00  0.00    -0.251 N 
HETATM    2  N2  UNL     1      25.146   1.961  51.469  1.00  0.00    -0.170 NA
HETATM    3  C4  UNL     1      25.057   1.210  52.576  1.00  0.00     0.096 A 
HETATM    4  C13 UNL     1      26.324   1.317  53.130  1.00  0.00     0.087 A 
HETATM    5  C14 UNL     1      26.905   0.793  54.269  1.00  0.00     0.139 A 
HETATM    6  N5  UNL     1      28.180   1.027  54.634  1.00  0.00    -0.224 NA
HETATM    7  C15 UNL     1      28.960   1.826  53.847  1.00  0.00     0.237 A 
HETATM    8  N6  UNL     1      28.413   2.347  52.734  1.00  0.00    -0.222 NA
HETATM    9  C16 UNL     1      27.153   2.117  52.369  1.00  0.00     0.163 A 
ENDROOT
BRANCH   3  10
HETATM   10  C5  UNL     1      23.990   0.430  53.175  1.00  0.00     0.048 C 
HETATM   11  C6  UNL     1      22.729   0.508  52.783  1.00  0.00    -0.006 C 
HETATM   12  C7  UNL     1      22.302   1.392  51.705  1.00  0.00     0.016 C 
HETATM   13  C11 UNL     1      21.704  -0.301  53.423  1.00  0.00     0.052 C 
HETATM   14  C8  UNL     1      21.009   1.409  51.372  1.00  0.00     0.038 C 
HETATM   15  C9  UNL     1      20.069   0.547  52.094  1.00  0.00     0.079 C 
HETATM   16  C10 UNL     1      20.588  -0.474  52.742  1.00  0.00     0.040 C 
BRANCH  15  17
HETATM   17  O1  UNL     1      18.686   0.783  52.104  1.00  0.00    -0.360 OA
HETATM   18  H11 UNL     1      18.095   0.151  52.622  1.00  0.00     0.217 HD
ENDBRANCH  15  17
BRANCH  13  19
HETATM   19  N3  UNL     1      21.950  -0.842  54.709  1.00  0.00    -0.393 N 
HETATM   20  C12 UNL     1      22.845  -1.651  55.512  1.00  0.00     0.146 C 
HETATM   21  H12 UNL     1      21.168  -0.536  55.357  1.00  0.00     0.159 HD
ENDBRANCH  13  19
ENDBRANCH   3  10
BRANCH   1  22
HETATM   22  C3  UNL     1      26.744   3.346  50.243  1.00  0.00     0.153 C 
BRANCH  22  23
HETATM   23  C2  UNL     1      25.583   4.216  49.805  1.00  0.00     0.018 C 
HETATM   24  C1  UNL     1      26.062   5.411  49.032  1.00  0.00     0.007 C 
ENDBRANCH  22  23
ENDBRANCH   1  22
BRANCH   5  25
HETATM   25  N4  UNL     1      26.178  -0.047  55.153  1.00  0.00    -0.383 N 
HETATM   26  H16 UNL     1      25.748  -0.224  56.077  1.00  0.00     0.157 HD
HETATM   27  H17 UNL     1      25.822  -1.011  54.881  1.00  0.00     0.157 HD
ENDBRANCH   5  25
TORSDOF 6
ENDMDL
MODEL 6
REMARK VINA RESULT:      -7.1      3.203      6.249
REMARK  6 active torsions:
REMARK  status: ('A' for Active; 'I' for Inactive)
REMARK    1  A    between atoms: C2_2  and  C3_3 
REMARK    2  A    between atoms: C3_3  and  N1_4 
REMARK    3  A    between atoms: C4_6  and  C5_7 
REMARK    4  A    between atoms: C9_11  and  O1_12 
REMARK    5  A    between atoms: C11_14  and  N3_15 
REMARK    6  A    between atoms: C14_18  and  N4_19 
ROOT
HETATM    1  N1  UNL     1      23.798  -0.369  53.796  1.00  0.00    -0.251 N 
HETATM    2  N2  UNL     1      23.155   0.334  52.879  1.00  0.00    -0.170 NA
HETATM    3  C4  UNL     1      23.998   1.032  52.105  1.00  0.00     0.096 A 
HETATM    4  C13 UNL     1      25.243   0.702  52.621  1.00  0.00     0.087 A 
HETATM    5  C14 UNL     1      26.532   1.071  52.289  1.00  0.00     0.139 A 
HETATM    6  N5  UNL     1      27.628   0.624  52.932  1.00  0.00    -0.224 NA
HETATM    7  C15 UNL     1      27.477  -0.244  53.976  1.00  0.00     0.237 A 
HETATM    8  N6  UNL     1      26.230  -0.616  54.316  1.00  0.00    -0.222 NA
HETATM    9  C16 UNL     1      25.143  -0.175  53.682  1.00  0.00     0.163 A 
ENDROOT
BRANCH   3  10
HETATM   10  C5  UNL     1      23.816   1.936  50.984  1.00  0.00     0.048 C 
HETATM   11  C6  UNL     1      23.635   3.239  51.127  1.00  0.00    -0.006 C 
HETATM   12  C7  UNL     1      23.604   3.881  52.435  1.00  0.00     0.016 C 
HETATM   13  C11 UNL     1      23.458   4.092  49.963  1.00  0.00     0.052 C 
HETATM   14  C8  UNL     1      23.417   5.202  52.490  1.00  0.00     0.038 C 
HETATM   15  C9  UNL     1      23.249   5.957  51.244  1.00  0.00     0.079 C 
HETATM   16  C10 UNL     1      23.685   5.378  50.145  1.00  0.00     0.040 C 
BRANCH  15  17
HETATM   17  O1  UNL     1      22.658   7.228  51.207  1.00  0.00    -0.360 OA
HETATM   18  H11 UNL     1      23.150   7.999  51.632  1.00  0.00     0.217 HD
ENDBRANCH  15  17
BRANCH  13  19
HETATM   19  N3  UNL     1      23.060   3.514  48.733  1.00  0.00    -0.393 N 
HETATM   20  C12 UNL     1      22.278   3.696  47.527  1.00  0.00     0.146 C 
HETATM   21  H12 UNL     1      23.513   2.559  48.649  1.00  0.00     0.159 HD
ENDBRANCH  13  19
ENDBRANCH   3  10
BRANCH   1  22
HETATM   22  C3  UNL     1      23.159  -1.215  54.769  1.00  0.00     0.153 C 
BRANCH  22  23
HETATM   23  C2  UNL     1      21.715  -0.801  54.964  1.00  0.00     0.018 C 
HETATM   24  C1  UNL     1      20.785  -1.706  54.207  1.00  0.00     0.007 C 
ENDBRANCH  22  23
ENDBRANCH   1  22
BRANCH   5  25
HETATM   25  N4  UNL     1      26.794   1.966  51.218  1.00  0.00    -0.383 N 
HETATM   26  H16 UNL     1      26.514   2.764  50.623  1.00  0.00     0.157 HD
HETATM   27  H17 UNL     1      27.680   1.932  50.632  1.00  0.00     0.157 HD
ENDBRANCH   5  25
TORSDOF 6
ENDMDL
MODEL 7
REMARK VINA RESULT:      -7.1      2.288      4.907
REMARK  6 active torsions:
REMARK  status: ('A' for Active; 'I' for Inactive)
REMARK    1  A    between atoms: C2_2  and  C3_3 
REMARK    2  A    between atoms: C3_3  and  N1_4 
REMARK    3  A    between atoms: C4_6  and  C5_7 
REMARK    4  A    between atoms: C9_11  and  O1_12 
REMARK    5  A    between atoms: C11_14  and  N3_15 
REMARK    6  A    between atoms: C14_18  and  N4_19 
ROOT
HETATM    1  N1  UNL     1      25.043   4.786  50.187  1.00  0.00    -0.251 N 
HETATM    2  N2  UNL     1      25.272   3.655  50.834  1.00  0.00    -0.170 NA
HETATM    3  C4  UNL     1      24.183   3.228  51.489  1.00  0.00     0.096 A 
HETATM    4  C13 UNL     1      23.239   4.201  51.194  1.00  0.00     0.087 A 
HETATM    5  C14 UNL     1      21.914   4.371  51.549  1.00  0.00     0.139 A 
HETATM    6  N5  UNL     1      21.159   5.409  51.144  1.00  0.00    -0.224 NA
HETATM    7  C15 UNL     1      21.715   6.361  50.337  1.00  0.00     0.237 A 
HETATM    8  N6  UNL     1      23.004   6.214  49.980  1.00  0.00    -0.222 NA
HETATM    9  C16 UNL     1      23.755   5.188  50.379  1.00  0.00     0.163 A 
ENDROOT
BRANCH   3  10
HETATM   10  C5  UNL     1      23.903   2.076  52.326  1.00  0.00     0.048 C 
HETATM   11  C6  UNL     1      24.770   1.096  52.520  1.00  0.00    -0.006 C 
HETATM   12  C7  UNL     1      26.091   1.091  51.904  1.00  0.00     0.016 C 
HETATM   13  C11 UNL     1      24.431  -0.034  53.371  1.00  0.00     0.052 C 
HETATM   14  C8  UNL     1      26.905   0.063  52.153  1.00  0.00     0.038 C 
HETATM   15  C9  UNL     1      26.448  -1.020  53.028  1.00  0.00     0.079 C 
HETATM   16  C10 UNL     1      25.444  -0.740  53.832  1.00  0.00     0.040 C 
BRANCH  15  17
HETATM   17  O1  UNL     1      27.038  -2.293  53.024  1.00  0.00    -0.360 OA
HETATM   18  H11 UNL     1      27.135  -2.774  52.143  1.00  0.00     0.217 HD
ENDBRANCH  15  17
BRANCH  13  19
HETATM   19  N3  UNL     1      23.069  -0.309  53.648  1.00  0.00    -0.393 N 
HETATM   20  C12 UNL     1      22.118  -1.315  54.074  1.00  0.00     0.146 C 
HETATM   21  H12 UNL     1      22.508   0.575  53.480  1.00  0.00     0.159 HD
ENDBRANCH  13  19
ENDBRANCH   3  10
BRANCH   1  22
HETATM   22  C3  UNL     1      26.023   5.483  49.396  1.00  0.00     0.153 C 
BRANCH  22  23
HETATM   23  C2  UNL     1      27.126   4.537  48.965  1.00  0.00     0.018 C 
HETATM   24  C1  UNL     1      28.300   5.291  48.410  1.00  0.00     0.007 C 
ENDBRANCH  22  23
ENDBRANCH   1  22
BRANCH   5  25
HETATM   25  N4  UNL     1      21.244   3.436  52.381  1.00  0.00    -0.383 N 
HETATM   26  H16 UNL     1      20.677   2.580  52.499  1.00  0.00     0.157 HD
HETATM   27  H17 UNL     1      21.218   3.513  53.442  1.00  0.00     0.157 HD
ENDBRANCH   5  25
TORSDOF 6
ENDMDL
MODEL 8
REMARK VINA RESULT:      -6.9      3.134      5.993
REMARK  6 active torsions:
REMARK  status: ('A' for Active; 'I' for Inactive)
REMARK    1  A    between atoms: C2_2  and  C3_3 
REMARK    2  A    between atoms: C3_3  and  N1_4 
REMARK    3  A    between atoms: C4_6  and  C5_7 
REMARK    4  A    between atoms: C9_11  and  O1_12 
REMARK    5  A    between atoms: C11_14  and  N3_15 
REMARK    6  A    between atoms: C14_18  and  N4_19 
ROOT
HETATM    1  N1  UNL     1      23.766   0.174  53.563  1.00  0.00    -0.251 N 
HETATM    2  N2  UNL     1      23.156   1.217  53.026  1.00  0.00    -0.170 NA
HETATM    3  C4  UNL     1      24.026   2.058  52.446  1.00  0.00     0.096 A 
HETATM    4  C13 UNL     1      25.249   1.444  52.669  1.00  0.00     0.087 A 
HETATM    5  C14 UNL     1      26.549   1.778  52.335  1.00  0.00     0.139 A 
HETATM    6  N5  UNL     1      27.619   1.025  52.653  1.00  0.00    -0.224 NA
HETATM    7  C15 UNL     1      27.431  -0.137  53.345  1.00  0.00     0.237 A 
HETATM    8  N6  UNL     1      26.174  -0.481  53.679  1.00  0.00    -0.222 NA
HETATM    9  C16 UNL     1      25.113   0.261  53.367  1.00  0.00     0.163 A 
ENDROOT
BRANCH   3  10
HETATM   10  C5  UNL     1      23.883   3.314  51.734  1.00  0.00     0.048 C 
HETATM   11  C6  UNL     1      23.370   3.402  50.518  1.00  0.00    -0.006 C 
HETATM   12  C7  UNL     1      22.900   2.233  49.785  1.00  0.00     0.016 C 
HETATM   13  C11 UNL     1      23.253   4.692  49.856  1.00  0.00     0.052 C 
HETATM   14  C8  UNL     1      22.394   2.411  48.562  1.00  0.00     0.038 C 
HETATM   15  C9  UNL     1      22.331   3.762  47.999  1.00  0.00     0.079 C 
HETATM   16  C10 UNL     1      22.394   4.758  48.858  1.00  0.00     0.040 C 
BRANCH  15  17
HETATM   17  O1  UNL     1      22.208   4.001  46.623  1.00  0.00    -0.360 OA
HETATM   18  H11 UNL     1      21.328   3.795  46.176  1.00  0.00     0.217 HD
ENDBRANCH  15  17
BRANCH  13  19
HETATM   19  N3  UNL     1      24.048   5.775  50.304  1.00  0.00    -0.393 N 
HETATM   20  C12 UNL     1      24.077   6.984  51.103  1.00  0.00     0.146 C 
HETATM   21  H12 UNL     1      25.020   5.670  49.894  1.00  0.00     0.159 HD
ENDBRANCH  13  19
ENDBRANCH   3  10
BRANCH   1  22
HETATM   22  C3  UNL     1      23.094  -0.895  54.253  1.00  0.00     0.153 C 
BRANCH  22  23
HETATM   23  C2  UNL     1      21.701  -0.465  54.667  1.00  0.00     0.018 C 
HETATM   24  C1  UNL     1      20.660  -1.401  54.122  1.00  0.00     0.007 C 
ENDBRANCH  22  23
ENDBRANCH   1  22
BRANCH   5  25
HETATM   25  N4  UNL     1      26.847   2.964  51.616  1.00  0.00    -0.383 N 
HETATM   26  H16 UNL     1      26.592   3.916  51.303  1.00  0.00     0.157 HD
HETATM   27  H17 UNL     1      27.748   3.104  51.068  1.00  0.00     0.157 HD
ENDBRANCH   5  25
TORSDOF 6
ENDMDL
MODEL 9
REMARK VINA RESULT:      -6.8      3.459      6.104
REMARK  6 active torsions:
REMARK  status: ('A' for Active; 'I' for Inactive)
REMARK    1  A    between atoms: C2_2  and  C3_3 
REMARK    2  A    between atoms: C3_3  and  N1_4 
REMARK    3  A    between atoms: C4_6  and  C5_7 
REMARK    4  A    between atoms: C9_11  and  O1_12 
REMARK    5  A    between atoms: C11_14  and  N3_15 
REMARK    6  A    between atoms: C14_18  and  N4_19 
ROOT
HETATM    1  N1  UNL     1      23.465   0.561  52.476  1.00  0.00    -0.251 N 
HETATM    2  N2  UNL     1      23.601   1.478  51.533  1.00  0.00    -0.170 NA
HETATM    3  C4  UNL     1      24.787   2.097  51.609  1.00  0.00     0.096 A 
HETATM    4  C13 UNL     1      25.393   1.482  52.695  1.00  0.00     0.087 A 
HETATM    5  C14 UNL     1      26.619   1.645  53.310  1.00  0.00     0.139 A 
HETATM    6  N5  UNL     1      27.022   0.928  54.377  1.00  0.00    -0.224 NA
HETATM    7  C15 UNL     1      26.184  -0.018  54.895  1.00  0.00     0.237 A 
HETATM    8  N6  UNL     1      24.986  -0.193  54.310  1.00  0.00    -0.222 NA
HETATM    9  C16 UNL     1      24.583   0.515  53.255  1.00  0.00     0.163 A 
ENDROOT
BRANCH   3  10
HETATM   10  C5  UNL     1      25.420   3.150  50.835  1.00  0.00     0.048 C 
HETATM   11  C6  UNL     1      24.941   4.381  50.761  1.00  0.00    -0.006 C 
HETATM   12  C7  UNL     1      23.726   4.787  51.456  1.00  0.00     0.016 C 
HETATM   13  C11 UNL     1      25.622   5.392  49.968  1.00  0.00     0.052 C 
HETATM   14  C8  UNL     1      23.313   6.050  51.328  1.00  0.00     0.038 C 
HETATM   15  C9  UNL     1      24.085   6.978  50.498  1.00  0.00     0.079 C 
HETATM   16  C10 UNL     1      25.336   6.647  50.254  1.00  0.00     0.040 C 
BRANCH  15  17
HETATM   17  O1  UNL     1      23.537   8.162  49.982  1.00  0.00    -0.360 OA
HETATM   18  H11 UNL     1      22.544   8.198  49.812  1.00  0.00     0.217 HD
ENDBRANCH  15  17
BRANCH  13  19
HETATM   19  N3  UNL     1      26.528   4.987  48.957  1.00  0.00    -0.393 N 
HETATM   20  C12 UNL     1      27.908   5.004  48.516  1.00  0.00     0.146 C 
HETATM   21  H12 UNL     1      25.989   4.452  48.218  1.00  0.00     0.159 HD
ENDBRANCH  13  19
ENDBRANCH   3  10
BRANCH   1  22
HETATM   22  C3  UNL     1      22.299  -0.266  52.646  1.00  0.00     0.153 C 
BRANCH  22  23
HETATM   23  C2  UNL     1      21.261   0.060  51.592  1.00  0.00     0.018 C 
HETATM   24  C1  UNL     1      19.898   0.216  52.203  1.00  0.00     0.007 C 
ENDBRANCH  22  23
ENDBRANCH   1  22
BRANCH   5  25
HETATM   25  N4  UNL     1      27.560   2.600  52.846  1.00  0.00    -0.383 N 
HETATM   26  H16 UNL     1      27.998   3.535  52.904  1.00  0.00     0.157 HD
HETATM   27  H17 UNL     1      28.226   2.418  52.037  1.00  0.00     0.157 HD
ENDBRANCH   5  25
TORSDOF 6
ENDMDL
