MODEL 1
REMARK VINA RESULT:      -7.9      0.000      0.000
REMARK  7 active torsions:
REMARK  status: ('A' for Active; 'I' for Inactive)
REMARK    1  A    between atoms: C2_2  and  C3_3 
REMARK    2  A    between atoms: C4_4  and  C5_5 
REMARK    3  A    between atoms: C4_4  and  N1_8 
REMARK    4  A    between atoms: N1_8  and  C7_9 
REMARK    5  A    between atoms: C7_9  and  C8_10 
REMARK    6  A    between atoms: C10_12  and  N2_13 
REMARK    7  A    between atoms: C13_16  and  O1_17 
ROOT
HETATM    1  C8  UNL     1      23.026   2.284  52.404  1.00  0.00     0.059 A 
HETATM    2  C9  UNL     1      22.773   1.199  53.099  1.00  0.00     0.108 A 
HETATM    3  C10 UNL     1      24.025   0.578  53.426  1.00  0.00     0.061 A 
HETATM    4  C16 UNL     1      23.970  -0.564  54.140  1.00  0.00     0.033 A 
HETATM    5  C17 UNL     1      22.667  -1.133  54.557  1.00  0.00     0.022 A 
HETATM    6  C18 UNL     1      21.525  -0.516  54.227  1.00  0.00     0.119 A 
HETATM    7  N3  UNL     1      21.534   0.676  53.483  1.00  0.00    -0.240 N 
HETATM    8  N4  UNL     1      20.413   1.405  53.077  1.00  0.00    -0.163 NA
HETATM    9  C19 UNL     1      20.511   2.493  52.389  1.00  0.00     0.230 A 
HETATM   10  N5  UNL     1      21.816   2.986  52.018  1.00  0.00    -0.349 N 
HETATM   11  H22 UNL     1      21.707   3.865  51.471  1.00  0.00     0.166 HD
ENDROOT
BRANCH   1  12
HETATM   12  C7  UNL     1      24.147   3.031  51.873  1.00  0.00     0.179 C 
BRANCH  12  13
HETATM   13  N1  UNL     1      24.083   2.900  50.372  1.00  0.00    -0.384 N 
HETATM   14  H7  UNL     1      23.620   2.091  49.918  1.00  0.00     0.160 HD
BRANCH  13  15
HETATM   15  C4  UNL     1      24.686   3.936  49.635  1.00  0.00     0.029 C 
HETATM   16  C3  UNL     1      26.000   4.121  49.655  1.00  0.00     0.028 C 
BRANCH  16  17
HETATM   17  C2  UNL     1      26.671   5.156  48.926  1.00  0.00    -0.008 C 
HETATM   18  C1  UNL     1      27.918   5.039  48.554  1.00  0.00     0.011 C 
ENDBRANCH  16  17
BRANCH  15  19
HETATM   19  C5  UNL     1      23.847   4.819  48.837  1.00  0.00     0.041 C 
HETATM   20  C6  UNL     1      23.136   5.767  49.404  1.00  0.00     0.087 C 
HETATM   21 CL1  UNL     1      22.921   6.289  51.060  1.00  0.00    -0.097 Cl
ENDBRANCH  15  19
ENDBRANCH  13  15
ENDBRANCH  12  13
ENDBRANCH   1  12
BRANCH   3  22
HETATM   22  N2  UNL     1      25.417   0.807  53.247  1.00  0.00    -0.375 N 
HETATM   23  C11 UNL     1      25.991   0.241  52.002  1.00  0.00     0.153 C 
HETATM   24  C12 UNL     1      27.049  -0.745  52.335  1.00  0.00     0.025 C 
HETATM   25  C13 UNL     1      27.630  -0.583  53.531  1.00  0.00     0.042 C 
HETATM   26  C14 UNL     1      27.421   0.404  54.611  1.00  0.00     0.083 C 
HETATM   27  C15 UNL     1      26.458   1.444  54.096  1.00  0.00     0.130 C 
BRANCH  25  28
HETATM   28  O1  UNL     1      28.631  -1.475  53.902  1.00  0.00    -0.365 OA
HETATM   29  H13 UNL     1      28.754  -1.625  54.904  1.00  0.00     0.217 HD
ENDBRANCH  25  28
ENDBRANCH   3  22
TORSDOF 7
ENDMDL
MODEL 2
REMARK VINA RESULT:      -7.5      2.718      4.747
REMARK  7 active torsions:
REMARK  status: ('A' for Active; 'I' for Inactive)
REMARK    1  A    between atoms: C2_2  and  C3_3 
REMARK    2  A    between atoms: C4_4  and  C5_5 
REMARK    3  A    between atoms: C4_4  and  N1_8 
REMARK    4  A    between atoms: N1_8  and  C7_9 
REMARK    5  A    between atoms: C7_9  and  C8_10 
REMARK    6  A    between atoms: C10_12  and  N2_13 
REMARK    7  A    between atoms: C13_16  and  O1_17 
ROOT
HETATM    1  C8  UNL     1      24.738   0.708  52.570  1.00  0.00     0.059 A 
HETATM    2  C9  UNL     1      23.937   0.084  53.402  1.00  0.00     0.108 A 
HETATM    3  C10 UNL     1      22.585   0.358  53.007  1.00  0.00     0.061 A 
HETATM    4  C16 UNL     1      21.608  -0.199  53.753  1.00  0.00     0.033 A 
HETATM    5  C17 UNL     1      21.940  -1.050  54.920  1.00  0.00     0.022 A 
HETATM    6  C18 UNL     1      23.219  -1.276  55.247  1.00  0.00     0.119 A 
HETATM    7  N3  UNL     1      24.269  -0.717  54.500  1.00  0.00    -0.240 N 
HETATM    8  N4  UNL     1      25.635  -0.877  54.746  1.00  0.00    -0.163 NA
HETATM    9  C19 UNL     1      26.538  -0.321  54.009  1.00  0.00     0.230 A 
HETATM   10  N5  UNL     1      26.138   0.497  52.888  1.00  0.00    -0.349 N 
HETATM   11  H22 UNL     1      26.988   0.861  52.410  1.00  0.00     0.166 HD
ENDROOT
BRANCH   1  12
HETATM   12  C7  UNL     1      24.685   1.571  51.408  1.00  0.00     0.179 C 
BRANCH  12  13
HETATM   13  N1  UNL     1      25.341   2.870  51.803  1.00  0.00    -0.384 N 
HETATM   14  H7  UNL     1      25.651   3.047  52.777  1.00  0.00     0.160 HD
BRANCH  13  15
HETATM   15  C4  UNL     1      25.504   3.818  50.776  1.00  0.00     0.029 C 
HETATM   16  C3  UNL     1      26.572   3.802  49.987  1.00  0.00     0.028 C 
BRANCH  16  17
HETATM   17  C2  UNL     1      26.793   4.740  48.926  1.00  0.00    -0.008 C 
HETATM   18  C1  UNL     1      27.996   5.054  48.525  1.00  0.00     0.011 C 
ENDBRANCH  16  17
BRANCH  15  19
HETATM   19  C5  UNL     1      24.480   4.834  50.580  1.00  0.00     0.041 C 
HETATM   20  C6  UNL     1      23.463   4.619  49.776  1.00  0.00     0.087 C 
HETATM   21 CL1  UNL     1      22.980   3.270  48.773  1.00  0.00    -0.097 Cl
ENDBRANCH  15  19
ENDBRANCH  13  15
ENDBRANCH  12  13
ENDBRANCH   1  12
BRANCH   3  22
HETATM   22  N2  UNL     1      21.884   1.063  51.991  1.00  0.00    -0.375 N 
HETATM   23  C11 UNL     1      21.604   2.487  52.294  1.00  0.00     0.153 C 
HETATM   24  C12 UNL     1      20.140   2.726  52.301  1.00  0.00     0.025 C 
HETATM   25  C13 UNL     1      19.413   1.862  51.581  1.00  0.00     0.042 C 
HETATM   26  C14 UNL     1      19.788   0.688  50.763  1.00  0.00     0.083 C 
HETATM   27  C15 UNL     1      21.293   0.648  50.690  1.00  0.00     0.130 C 
BRANCH  25  28
HETATM   28  O1  UNL     1      18.032   2.032  51.547  1.00  0.00    -0.365 OA
HETATM   29  H13 UNL     1      17.595   2.355  52.411  1.00  0.00     0.217 HD
ENDBRANCH  25  28
ENDBRANCH   3  22
TORSDOF 7
ENDMDL
MODEL 3
REMARK VINA RESULT:      -7.2      1.439      1.999
REMARK  7 active torsions:
REMARK  status: ('A' for Active; 'I' for Inactive)
REMARK    1  A    between atoms: C2_2  and  C3_3 
REMARK    2  A    between atoms: C4_4  and  C5_5 
REMARK    3  A    between atoms: C4_4  and  N1_8 
REMARK    4  A    between atoms: N1_8  and  C7_9 
REMARK    5  A    between atoms: C7_9  and  C8_10 
REMARK    6  A    between atoms: C10_12  and  N2_13 
REMARK    7  A    between atoms: C13_16  and  O1_17 
ROOT
HETATM    1  C8  UNL     1      23.228   1.500  52.340  1.00  0.00     0.059 A 
HETATM    2  C9  UNL     1      23.154   0.602  53.295  1.00  0.00     0.108 A 
HETATM    3  C10 UNL     1      24.487   0.168  53.602  1.00  0.00     0.061 A 
HETATM    4  C16 UNL     1      24.617  -0.768  54.565  1.00  0.00     0.033 A 
HETATM    5  C17 UNL     1      23.424  -1.307  55.260  1.00  0.00     0.022 A 
HETATM    6  C18 UNL     1      22.201  -0.869  54.937  1.00  0.00     0.119 A 
HETATM    7  N3  UNL     1      22.017   0.104  53.941  1.00  0.00    -0.240 N 
HETATM    8  N4  UNL     1      20.796   0.632  53.516  1.00  0.00    -0.163 NA
HETATM    9  C19 UNL     1      20.717   1.524  52.585  1.00  0.00     0.230 A 
HETATM   10  N5  UNL     1      21.923   2.001  51.952  1.00  0.00    -0.349 N 
HETATM   11  H22 UNL     1      21.673   2.711  51.232  1.00  0.00     0.166 HD
ENDROOT
BRANCH   1  12
HETATM   12  C7  UNL     1      24.211   2.171  51.516  1.00  0.00     0.179 C 
BRANCH  12  13
HETATM   13  N1  UNL     1      24.339   3.575  52.053  1.00  0.00    -0.384 N 
HETATM   14  H7  UNL     1      24.696   3.760  53.008  1.00  0.00     0.160 HD
BRANCH  13  15
HETATM   15  C4  UNL     1      23.947   4.608  51.181  1.00  0.00     0.029 C 
HETATM   16  C3  UNL     1      23.651   5.819  51.637  1.00  0.00     0.028 C 
BRANCH  16  17
HETATM   17  C2  UNL     1      23.246   6.910  50.801  1.00  0.00    -0.008 C 
HETATM   18  C1  UNL     1      23.968   7.992  50.684  1.00  0.00     0.011 C 
ENDBRANCH  16  17
BRANCH  15  19
HETATM   19  C5  UNL     1      23.866   4.338  49.753  1.00  0.00     0.041 C 
HETATM   20  C6  UNL     1      24.932   4.423  48.989  1.00  0.00     0.087 C 
HETATM   21 CL1  UNL     1      26.607   4.823  49.293  1.00  0.00    -0.097 Cl
ENDBRANCH  15  19
ENDBRANCH  13  15
ENDBRANCH  12  13
ENDBRANCH   1  12
BRANCH   3  22
HETATM   22  N2  UNL     1      25.825   0.442  53.205  1.00  0.00    -0.375 N 
HETATM   23  C11 UNL     1      26.377  -0.480  52.183  1.00  0.00     0.153 C 
HETATM   24  C12 UNL     1      27.569  -1.179  52.723  1.00  0.00     0.025 C 
HETATM   25  C13 UNL     1      28.206  -0.546  53.716  1.00  0.00     0.042 C 
HETATM   26  C14 UNL     1      27.952   0.740  54.399  1.00  0.00     0.083 C 
HETATM   27  C15 UNL     1      26.836   1.433  53.660  1.00  0.00     0.130 C 
BRANCH  25  28
HETATM   28  O1  UNL     1      29.333  -1.151  54.265  1.00  0.00    -0.365 OA
HETATM   29  H13 UNL     1      30.234  -0.866  53.877  1.00  0.00     0.217 HD
ENDBRANCH  25  28
ENDBRANCH   3  22
TORSDOF 7
ENDMDL
MODEL 4
REMARK VINA RESULT:      -7.2      2.404      5.841
REMARK  7 active torsions:
REMARK  status: ('A' for Active; 'I' for Inactive)
REMARK    1  A    between atoms: C2_2  and  C3_3 
REMARK    2  A    between atoms: C4_4  and  C5_5 
REMARK    3  A    between atoms: C4_4  and  N1_8 
REMARK    4  A    between atoms: N1_8  and  C7_9 
REMARK    5  A    between atoms: C7_9  and  C8_10 
REMARK    6  A    between atoms: C10_12  and  N2_13 
REMARK    7  A    between atoms: C13_16  and  O1_17 
ROOT
HETATM    1  C8  UNL     1      22.967   2.649  51.483  1.00  0.00     0.059 A 
HETATM    2  C9  UNL     1      24.106   2.923  50.890  1.00  0.00     0.108 A 
HETATM    3  C10 UNL     1      25.145   2.200  51.567  1.00  0.00     0.061 A 
HETATM    4  C16 UNL     1      26.401   2.359  51.100  1.00  0.00     0.033 A 
HETATM    5  C17 UNL     1      26.670   3.244  49.942  1.00  0.00     0.022 A 
HETATM    6  C18 UNL     1      25.665   3.896  49.344  1.00  0.00     0.119 A 
HETATM    7  N3  UNL     1      24.342   3.762  49.795  1.00  0.00    -0.240 N 
HETATM    8  N4  UNL     1      23.217   4.392  49.258  1.00  0.00    -0.163 NA
HETATM    9  C19 UNL     1      22.032   4.215  49.740  1.00  0.00     0.230 A 
HETATM   10  N5  UNL     1      21.847   3.339  50.872  1.00  0.00    -0.349 N 
HETATM   11  H22 UNL     1      20.836   3.315  51.124  1.00  0.00     0.166 HD
ENDROOT
BRANCH   1  12
HETATM   12  C7  UNL     1      22.444   1.867  52.584  1.00  0.00     0.179 C 
BRANCH  12  13
HETATM   13  N1  UNL     1      21.551   0.812  51.980  1.00  0.00    -0.384 N 
HETATM   14  H7  UNL     1      21.717   0.443  51.025  1.00  0.00     0.160 HD
BRANCH  13  15
HETATM   15  C4  UNL     1      20.488   0.365  52.786  1.00  0.00     0.029 C 
HETATM   16  C3  UNL     1      19.383  -0.140  52.252  1.00  0.00     0.028 C 
BRANCH  16  17
HETATM   17  C2  UNL     1      18.269  -0.611  53.020  1.00  0.00    -0.008 C 
HETATM   18  C1  UNL     1      18.109  -1.877  53.296  1.00  0.00     0.011 C 
ENDBRANCH  16  17
BRANCH  15  19
HETATM   19  C5  UNL     1      20.608   0.462  54.234  1.00  0.00     0.041 C 
HETATM   20  C6  UNL     1      21.245  -0.461  54.921  1.00  0.00     0.087 C 
HETATM   21 CL1  UNL     1      22.075  -1.936  54.481  1.00  0.00    -0.097 Cl
ENDBRANCH  15  19
ENDBRANCH  13  15
ENDBRANCH  12  13
ENDBRANCH   1  12
BRANCH   3  22
HETATM   22  N2  UNL     1      25.290   1.280  52.641  1.00  0.00    -0.375 N 
HETATM   23  C11 UNL     1      25.927   1.834  53.860  1.00  0.00     0.153 C 
HETATM   24  C12 UNL     1      27.176   1.091  54.161  1.00  0.00     0.025 C 
HETATM   25  C13 UNL     1      27.235  -0.155  53.673  1.00  0.00     0.042 C 
HETATM   26  C14 UNL     1      26.283  -0.956  52.874  1.00  0.00     0.083 C 
HETATM   27  C15 UNL     1      24.998  -0.172  52.780  1.00  0.00     0.130 C 
BRANCH  25  28
HETATM   28  O1  UNL     1      28.381  -0.905  53.922  1.00  0.00    -0.365 OA
HETATM   29  H13 UNL     1      29.264  -0.498  53.609  1.00  0.00     0.217 HD
ENDBRANCH  25  28
ENDBRANCH   3  22
TORSDOF 7
ENDMDL
MODEL 5
REMARK VINA RESULT:      -7.1      2.911      4.909
REMARK  7 active torsions:
REMARK  status: ('A' for Active; 'I' for Inactive)
REMARK    1  A    between atoms: C2_2  and  C3_3 
REMARK    2  A    between atoms: C4_4  and  C5_5 
REMARK    3  A    between atoms: C4_4  and  N1_8 
REMARK    4  A    between atoms: N1_8  and  C7_9 
REMARK    5  A    between atoms: C7_9  and  C8_10 
REMARK    6  A    between atoms: C10_12  and  N2_13 
REMARK    7  A    between atoms: C13_16  and  O1_17 
ROOT
HETATM    1  C8  UNL     1      25.379   2.569  51.270  1.00  0.00     0.059 A 
HETATM    2  C9  UNL     1      24.813   1.611  51.966  1.00  0.00     0.108 A 
HETATM    3  C10 UNL     1      23.451   1.488  51.527  1.00  0.00     0.061 A 
HETATM    4  C16 UNL     1      22.698   0.549  52.136  1.00  0.00     0.033 A 
HETATM    5  C17 UNL     1      23.271  -0.304  53.203  1.00  0.00     0.022 A 
HETATM    6  C18 UNL     1      24.548  -0.151  53.577  1.00  0.00     0.119 A 
HETATM    7  N3  UNL     1      25.370   0.814  52.972  1.00  0.00    -0.240 N 
HETATM    8  N4  UNL     1      26.709   1.068  53.278  1.00  0.00    -0.163 NA
HETATM    9  C19 UNL     1      27.393   1.982  52.674  1.00  0.00     0.230 A 
HETATM   10  N5  UNL     1      26.766   2.776  51.643  1.00  0.00    -0.349 N 
HETATM   11  H22 UNL     1      27.459   3.457  51.268  1.00  0.00     0.166 HD
ENDROOT
BRANCH   1  12
HETATM   12  C7  UNL     1      25.067   3.522  50.225  1.00  0.00     0.179 C 
BRANCH  12  13
HETATM   13  N1  UNL     1      25.004   4.879  50.882  1.00  0.00    -0.384 N 
HETATM   14  H7  UNL     1      24.642   4.998  51.846  1.00  0.00     0.160 HD
BRANCH  13  15
HETATM   15  C4  UNL     1      25.464   5.961  50.110  1.00  0.00     0.029 C 
HETATM   16  C3  UNL     1      26.092   5.767  48.957  1.00  0.00     0.028 C 
BRANCH  16  17
HETATM   17  C2  UNL     1      26.583   6.828  48.127  1.00  0.00    -0.008 C 
HETATM   18  C1  UNL     1      27.859   6.994  47.906  1.00  0.00     0.011 C 
ENDBRANCH  16  17
BRANCH  15  19
HETATM   19  C5  UNL     1      25.245   7.318  50.590  1.00  0.00     0.041 C 
HETATM   20  C6  UNL     1      24.028   7.790  50.745  1.00  0.00     0.087 C 
HETATM   21 CL1  UNL     1      22.432   7.122  50.490  1.00  0.00    -0.097 Cl
ENDBRANCH  15  19
ENDBRANCH  13  15
ENDBRANCH  12  13
ENDBRANCH   1  12
BRANCH   3  22
HETATM   22  N2  UNL     1      22.575   2.066  50.568  1.00  0.00    -0.375 N 
HETATM   23  C11 UNL     1      21.564   2.997  51.123  1.00  0.00     0.153 C 
HETATM   24  C12 UNL     1      20.199   2.496  50.830  1.00  0.00     0.025 C 
HETATM   25  C13 UNL     1      20.100   1.682  49.771  1.00  0.00     0.042 C 
HETATM   26  C14 UNL     1      21.104   1.169  48.816  1.00  0.00     0.083 C 
HETATM   27  C15 UNL     1      22.406   1.874  49.103  1.00  0.00     0.130 C 
BRANCH  25  28
HETATM   28  O1  UNL     1      18.845   1.178  49.444  1.00  0.00    -0.365 OA
HETATM   29  H13 UNL     1      18.794   0.603  48.602  1.00  0.00     0.217 HD
ENDBRANCH  25  28
ENDBRANCH   3  22
TORSDOF 7
ENDMDL
MODEL 6
REMARK VINA RESULT:      -7.1      3.632      5.851
REMARK  7 active torsions:
REMARK  status: ('A' for Active; 'I' for Inactive)
REMARK    1  A    between atoms: C2_2  and  C3_3 
REMARK    2  A    between atoms: C4_4  and  C5_5 
REMARK    3  A    between atoms: C4_4  and  N1_8 
REMARK    4  A    between atoms: N1_8  and  C7_9 
REMARK    5  A    between atoms: C7_9  and  C8_10 
REMARK    6  A    between atoms: C10_12  and  N2_13 
REMARK    7  A    between atoms: C13_16  and  O1_17 
ROOT
HETATM    1  C8  UNL     1      22.415   0.184  53.216  1.00  0.00     0.059 A 
HETATM    2  C9  UNL     1      21.166  -0.204  53.092  1.00  0.00     0.108 A 
HETATM    3  C10 UNL     1      20.585   0.513  51.993  1.00  0.00     0.061 A 
HETATM    4  C16 UNL     1      19.292   0.252  51.711  1.00  0.00     0.033 A 
HETATM    5  C17 UNL     1      18.528  -0.734  52.512  1.00  0.00     0.022 A 
HETATM    6  C18 UNL     1      19.117  -1.378  53.528  1.00  0.00     0.119 A 
HETATM    7  N3  UNL     1      20.460  -1.138  53.859  1.00  0.00    -0.240 N 
HETATM    8  N4  UNL     1      21.177  -1.741  54.895  1.00  0.00    -0.163 NA
HETATM    9  C19 UNL     1      22.414  -1.457  55.133  1.00  0.00     0.230 A 
HETATM   10  N5  UNL     1      23.093  -0.484  54.311  1.00  0.00    -0.349 N 
HETATM   11  H22 UNL     1      24.075  -0.382  54.643  1.00  0.00     0.166 HD
ENDROOT
BRANCH   1  12
HETATM   12  C7  UNL     1      23.365   1.091  52.608  1.00  0.00     0.179 C 
BRANCH  12  13
HETATM   13  N1  UNL     1      24.737   0.629  53.034  1.00  0.00    -0.384 N 
HETATM   14  H7  UNL     1      24.863  -0.070  53.789  1.00  0.00     0.160 HD
BRANCH  13  15
HETATM   15  C4  UNL     1      25.823   1.203  52.348  1.00  0.00     0.029 C 
HETATM   16  C3  UNL     1      25.633   2.051  51.344  1.00  0.00     0.028 C 
BRANCH  16  17
HETATM   17  C2  UNL     1      26.698   2.667  50.608  1.00  0.00    -0.008 C 
HETATM   18  C1  UNL     1      26.468   3.418  49.564  1.00  0.00     0.011 C 
ENDBRANCH  16  17
BRANCH  15  19
HETATM   19  C5  UNL     1      27.179   0.856  52.749  1.00  0.00     0.041 C 
HETATM   20  C6  UNL     1      27.574  -0.397  52.775  1.00  0.00     0.087 C 
HETATM   21 CL1  UNL     1      26.792  -1.918  52.408  1.00  0.00    -0.097 Cl
ENDBRANCH  15  19
ENDBRANCH  13  15
ENDBRANCH  12  13
ENDBRANCH   1  12
BRANCH   3  22
HETATM   22  N2  UNL     1      20.966   1.470  51.012  1.00  0.00    -0.375 N 
HETATM   23  C11 UNL     1      20.277   2.779  51.113  1.00  0.00     0.153 C 
HETATM   24  C12 UNL     1      19.516   3.047  49.867  1.00  0.00     0.025 C 
HETATM   25  C13 UNL     1      19.958   2.412  48.775  1.00  0.00     0.042 C 
HETATM   26  C14 UNL     1      21.078   1.472  48.558  1.00  0.00     0.083 C 
HETATM   27  C15 UNL     1      21.874   1.411  49.837  1.00  0.00     0.130 C 
BRANCH  25  28
HETATM   28  O1  UNL     1      19.287   2.622  47.574  1.00  0.00    -0.365 OA
HETATM   29  H13 UNL     1      19.804   2.399  46.722  1.00  0.00     0.217 HD
ENDBRANCH  25  28
ENDBRANCH   3  22
TORSDOF 7
ENDMDL
MODEL 7
REMARK VINA RESULT:      -7.0      3.649      6.070
REMARK  7 active torsions:
REMARK  status: ('A' for Active; 'I' for Inactive)
REMARK    1  A    between atoms: C2_2  and  C3_3 
REMARK    2  A    between atoms: C4_4  and  C5_5 
REMARK    3  A    between atoms: C4_4  and  N1_8 
REMARK    4  A    between atoms: N1_8  and  C7_9 
REMARK    5  A    between atoms: C7_9  and  C8_10 
REMARK    6  A    between atoms: C10_12  and  N2_13 
REMARK    7  A    between atoms: C13_16  and  O1_17 
ROOT
HETATM    1  C8  UNL     1      22.317   0.150  52.995  1.00  0.00     0.059 A 
HETATM    2  C9  UNL     1      21.033  -0.059  52.815  1.00  0.00     0.108 A 
HETATM    3  C10 UNL     1      20.608   0.726  51.691  1.00  0.00     0.061 A 
HETATM    4  C16 UNL     1      19.305   0.648  51.351  1.00  0.00     0.033 A 
HETATM    5  C17 UNL     1      18.375  -0.215  52.117  1.00  0.00     0.022 A 
HETATM    6  C18 UNL     1      18.821  -0.929  53.159  1.00  0.00     0.119 A 
HETATM    7  N3  UNL     1      20.169  -0.879  53.550  1.00  0.00    -0.240 N 
HETATM    8  N4  UNL     1      20.747  -1.571  54.617  1.00  0.00    -0.163 NA
HETATM    9  C19 UNL     1      22.000  -1.462  54.910  1.00  0.00     0.230 A 
HETATM   10  N5  UNL     1      22.845  -0.600  54.119  1.00  0.00    -0.349 N 
HETATM   11  H22 UNL     1      23.816  -0.635  54.494  1.00  0.00     0.166 HD
ENDROOT
BRANCH   1  12
HETATM   12  C7  UNL     1      23.412   0.909  52.429  1.00  0.00     0.179 C 
BRANCH  12  13
HETATM   13  N1  UNL     1      24.571   0.776  53.386  1.00  0.00    -0.384 N 
HETATM   14  H7  UNL     1      24.459   0.955  54.401  1.00  0.00     0.160 HD
BRANCH  13  15
HETATM   15  C4  UNL     1      25.801   0.397  52.819  1.00  0.00     0.029 C 
HETATM   16  C3  UNL     1      26.410  -0.726  53.180  1.00  0.00     0.028 C 
BRANCH  16  17
HETATM   17  C2  UNL     1      27.662  -1.164  52.639  1.00  0.00    -0.008 C 
HETATM   18  C1  UNL     1      28.731  -1.278  53.381  1.00  0.00     0.011 C 
ENDBRANCH  16  17
BRANCH  15  19
HETATM   19  C5  UNL     1      26.415   1.258  51.817  1.00  0.00     0.041 C 
HETATM   20  C6  UNL     1      27.355   2.114  52.149  1.00  0.00     0.087 C 
HETATM   21 CL1  UNL     1      28.137   2.524  53.659  1.00  0.00    -0.097 Cl
ENDBRANCH  15  19
ENDBRANCH  13  15
ENDBRANCH  12  13
ENDBRANCH   1  12
BRANCH   3  22
HETATM   22  N2  UNL     1      21.163   1.613  50.728  1.00  0.00    -0.375 N 
HETATM   23  C11 UNL     1      21.044   3.053  51.060  1.00  0.00     0.153 C 
HETATM   24  C12 UNL     1      20.256   3.750  50.013  1.00  0.00     0.025 C 
HETATM   25  C13 UNL     1      20.249   3.161  48.811  1.00  0.00     0.042 C 
HETATM   26  C14 UNL     1      20.882   1.924  48.307  1.00  0.00     0.083 C 
HETATM   27  C15 UNL     1      21.786   1.401  49.394  1.00  0.00     0.130 C 
BRANCH  25  28
HETATM   28  O1  UNL     1      19.527   3.766  47.786  1.00  0.00    -0.365 OA
HETATM   29  H13 UNL     1      19.176   3.147  47.054  1.00  0.00     0.217 HD
ENDBRANCH  25  28
ENDBRANCH   3  22
TORSDOF 7
ENDMDL
MODEL 8
REMARK VINA RESULT:      -6.9      1.882      5.291
REMARK  7 active torsions:
REMARK  status: ('A' for Active; 'I' for Inactive)
REMARK    1  A    between atoms: C2_2  and  C3_3 
REMARK    2  A    between atoms: C4_4  and  C5_5 
REMARK    3  A    between atoms: C4_4  and  N1_8 
REMARK    4  A    between atoms: N1_8  and  C7_9 
REMARK    5  A    between atoms: C7_9  and  C8_10 
REMARK    6  A    between atoms: C10_12  and  N2_13 
REMARK    7  A    between atoms: C13_16  and  O1_17 
ROOT
HETATM    1  C8  UNL     1      23.362   3.783  51.729  1.00  0.00     0.059 A 
HETATM    2  C9  UNL     1      24.451   3.759  50.996  1.00  0.00     0.108 A 
HETATM    3  C10 UNL     1      25.320   2.745  51.524  1.00  0.00     0.061 A 
HETATM    4  C16 UNL     1      26.504   2.573  50.901  1.00  0.00     0.033 A 
HETATM    5  C17 UNL     1      26.868   3.402  49.729  1.00  0.00     0.022 A 
HETATM    6  C18 UNL     1      26.022   4.335  49.274  1.00  0.00     0.119 A 
HETATM    7  N3  UNL     1      24.779   4.551  49.891  1.00  0.00    -0.240 N 
HETATM    8  N4  UNL     1      23.821   5.494  49.511  1.00  0.00    -0.163 NA
HETATM    9  C19 UNL     1      22.701   5.629  50.140  1.00  0.00     0.230 A 
HETATM   10  N5  UNL     1      22.415   4.785  51.276  1.00  0.00    -0.349 N 
HETATM   11  H22 UNL     1      21.477   5.030  51.656  1.00  0.00     0.166 HD
ENDROOT
BRANCH   1  12
HETATM   12  C7  UNL     1      22.777   3.125  52.879  1.00  0.00     0.179 C 
BRANCH  12  13
HETATM   13  N1  UNL     1      21.427   2.613  52.443  1.00  0.00    -0.384 N 
HETATM   14  H7  UNL     1      20.680   3.257  52.123  1.00  0.00     0.160 HD
BRANCH  13  15
HETATM   15  C4  UNL     1      21.247   1.218  52.500  1.00  0.00     0.029 C 
HETATM   16  C3  UNL     1      20.957   0.607  53.642  1.00  0.00     0.028 C 
BRANCH  16  17
HETATM   17  C2  UNL     1      20.763  -0.808  53.762  1.00  0.00    -0.008 C 
HETATM   18  C1  UNL     1      21.573  -1.557  54.461  1.00  0.00     0.011 C 
ENDBRANCH  16  17
BRANCH  15  19
HETATM   19  C5  UNL     1      21.383   0.436  51.279  1.00  0.00     0.041 C 
HETATM   20  C6  UNL     1      20.518   0.562  50.298  1.00  0.00     0.087 C 
HETATM   21 CL1  UNL     1      19.087   1.540  50.067  1.00  0.00    -0.097 Cl
ENDBRANCH  15  19
ENDBRANCH  13  15
ENDBRANCH  12  13
ENDBRANCH   1  12
BRANCH   3  22
HETATM   22  N2  UNL     1      25.329   1.771  52.560  1.00  0.00    -0.375 N 
HETATM   23  C11 UNL     1      26.052   2.170  53.791  1.00  0.00     0.153 C 
HETATM   24  C12 UNL     1      27.174   1.233  54.046  1.00  0.00     0.025 C 
HETATM   25  C13 UNL     1      27.037   0.014  53.509  1.00  0.00     0.042 C 
HETATM   26  C14 UNL     1      25.968  -0.598  52.692  1.00  0.00     0.083 C 
HETATM   27  C15 UNL     1      24.819   0.377  52.645  1.00  0.00     0.130 C 
BRANCH  25  28
HETATM   28  O1  UNL     1      28.056  -0.913  53.713  1.00  0.00    -0.365 OA
HETATM   29  H13 UNL     1      27.763  -1.876  53.883  1.00  0.00     0.217 HD
ENDBRANCH  25  28
ENDBRANCH   3  22
TORSDOF 7
ENDMDL
MODEL 9
REMARK VINA RESULT:      -6.9      2.880      5.124
REMARK  7 active torsions:
REMARK  status: ('A' for Active; 'I' for Inactive)
REMARK    1  A    between atoms: C2_2  and  C3_3 
REMARK    2  A    between atoms: C4_4  and  C5_5 
REMARK    3  A    between atoms: C4_4  and  N1_8 
REMARK    4  A    between atoms: N1_8  and  C7_9 
REMARK    5  A    between atoms: C7_9  and  C8_10 
REMARK    6  A    between atoms: C10_12  and  N2_13 
REMARK    7  A    between atoms: C13_16  and  O1_17 
ROOT
HETATM    1  C8  UNL     1      25.435   2.528  51.631  1.00  0.00     0.059 A 
HETATM    2  C9  UNL     1      25.109   1.535  52.425  1.00  0.00     0.108 A 
HETATM    3  C10 UNL     1      23.707   1.276  52.260  1.00  0.00     0.061 A 
HETATM    4  C16 UNL     1      23.179   0.283  53.005  1.00  0.00     0.033 A 
HETATM    5  C17 UNL     1      24.027  -0.492  53.941  1.00  0.00     0.022 A 
HETATM    6  C18 UNL     1      25.332  -0.212  54.058  1.00  0.00     0.119 A 
HETATM    7  N3  UNL     1      25.924   0.813  53.304  1.00  0.00    -0.240 N 
HETATM    8  N4  UNL     1      27.267   1.198  53.343  1.00  0.00    -0.163 NA
HETATM    9  C19 UNL     1      27.729   2.160  52.616  1.00  0.00     0.230 A 
HETATM   10  N5  UNL     1      26.842   2.871  51.727  1.00  0.00    -0.349 N 
HETATM   11  H22 UNL     1      27.380   3.607  51.223  1.00  0.00     0.166 HD
ENDROOT
BRANCH   1  12
HETATM   12  C7  UNL     1      24.836   3.427  50.667  1.00  0.00     0.179 C 
BRANCH  12  13
HETATM   13  N1  UNL     1      25.557   4.745  50.798  1.00  0.00    -0.384 N 
HETATM   14  H7  UNL     1      26.546   4.794  51.105  1.00  0.00     0.160 HD
BRANCH  13  15
HETATM   15  C4  UNL     1      24.809   5.894  50.479  1.00  0.00     0.029 C 
HETATM   16  C3  UNL     1      23.503   5.824  50.256  1.00  0.00     0.028 C 
BRANCH  16  17
HETATM   17  C2  UNL     1      22.688   6.957  49.928  1.00  0.00    -0.008 C 
HETATM   18  C1  UNL     1      21.721   7.358  50.708  1.00  0.00     0.011 C 
ENDBRANCH  16  17
BRANCH  15  19
HETATM   19  C5  UNL     1      25.486   7.180  50.393  1.00  0.00     0.041 C 
HETATM   20  C6  UNL     1      26.418   7.392  49.491  1.00  0.00     0.087 C 
HETATM   21 CL1  UNL     1      27.126   6.407  48.232  1.00  0.00    -0.097 Cl
ENDBRANCH  15  19
ENDBRANCH  13  15
ENDBRANCH  12  13
ENDBRANCH   1  12
BRANCH   3  22
HETATM   22  N2  UNL     1      22.609   1.750  51.490  1.00  0.00    -0.375 N 
HETATM   23  C11 UNL     1      21.807   2.819  52.132  1.00  0.00     0.153 C 
HETATM   24  C12 UNL     1      20.405   2.364  52.306  1.00  0.00     0.025 C 
HETATM   25  C13 UNL     1      20.004   1.402  51.466  1.00  0.00     0.042 C 
HETATM   26  C14 UNL     1      20.697   0.684  50.375  1.00  0.00     0.083 C 
HETATM   27  C15 UNL     1      22.039   1.342  50.179  1.00  0.00     0.130 C 
BRANCH  25  28
HETATM   28  O1  UNL     1      18.699   0.933  51.578  1.00  0.00    -0.365 OA
HETATM   29  H13 UNL     1      17.995   1.618  51.856  1.00  0.00     0.217 HD
ENDBRANCH  25  28
ENDBRANCH   3  22
TORSDOF 7
ENDMDL
