MODEL 1
REMARK VINA RESULT:      -8.6      0.000      0.000
REMARK  6 active torsions:
REMARK  status: ('A' for Active; 'I' for Inactive)
REMARK    1  A    between atoms: O1_2  and  C2_3 
REMARK    2  A    between atoms: C2_3  and  C3_4 
REMARK    3  A    between atoms: C3_4  and  O2_5 
REMARK    4  A    between atoms: O2_5  and  C4_6 
REMARK    5  A    between atoms: C15_20  and  N3_21 
REMARK    6  A    between atoms: N3_21  and  C16_22 
ROOT
HETATM    1  C4  UNL     1      19.774   2.167  52.282  1.00  0.00     0.067 C 
HETATM    2  C5  UNL     1      20.861   1.616  52.773  1.00  0.00     0.019 C 
HETATM    3  C6  UNL     1      21.965   0.880  53.357  1.00  0.00     0.045 C 
HETATM    4  C7  UNL     1      21.830  -0.650  53.289  1.00  0.00     0.039 C 
HETATM    5  C8  UNL     1      22.783  -1.139  54.367  1.00  0.00     0.169 C 
HETATM    6  O3  UNL     1      24.049  -0.587  54.187  1.00  0.00    -0.387 OA
HETATM    7  C9  UNL     1      24.180   0.115  53.022  1.00  0.00     0.203 C 
HETATM    8  C10 UNL     1      23.255   1.254  52.828  1.00  0.00    -0.031 C 
HETATM    9  C11 UNL     1      23.763   2.318  52.239  1.00  0.00     0.063 A 
HETATM   10  C12 UNL     1      23.107   3.561  51.906  1.00  0.00     0.165 A 
HETATM   11  N1  UNL     1      22.301   4.508  51.620  1.00  0.00    -0.240 NA
HETATM   12  C13 UNL     1      20.923   4.188  51.524  1.00  0.00     0.122 C 
HETATM   13  C14 UNL     1      19.803   3.469  51.660  1.00  0.00     0.055 C 
HETATM   14  N2  UNL     1      24.346   4.085  51.471  1.00  0.00    -0.210 NA
HETATM   15  C15 UNL     1      24.987   3.000  51.743  1.00  0.00     0.145 A 
ENDROOT
BRANCH  15  16
HETATM   16  N3  UNL     1      26.362   2.712  51.561  1.00  0.00    -0.340 N 
HETATM   17  H18 UNL     1      26.857   3.154  50.750  1.00  0.00     0.167 HD
BRANCH  16  18
HETATM   18  C16 UNL     1      27.150   1.858  52.382  1.00  0.00     0.035 A 
HETATM   19  C17 UNL     1      28.046   2.334  53.315  1.00  0.00     0.032 A 
HETATM   20  C18 UNL     1      28.810   1.441  54.086  1.00  0.00     0.046 A 
HETATM   21  C19 UNL     1      28.677   0.097  53.923  1.00  0.00     0.138 A 
HETATM   22  F1  UNL     1      29.393  -0.812  54.644  1.00  0.00    -0.204 F 
HETATM   23  C20 UNL     1      27.783  -0.408  52.989  1.00  0.00     0.074 A 
HETATM   24 CL1  UNL     1      27.566  -2.147  52.730  1.00  0.00    -0.081 Cl
HETATM   25  C21 UNL     1      27.070   0.489  52.273  1.00  0.00     0.056 A 
ENDBRANCH  16  18
ENDBRANCH  15  16
BRANCH   1  26
HETATM   26  O2  UNL     1      18.412   2.097  52.027  1.00  0.00    -0.349 OA
BRANCH  26  27
HETATM   27  C3  UNL     1      18.026   1.284  50.902  1.00  0.00     0.201 C 
BRANCH  27  28
HETATM   28  C2  UNL     1      17.963  -0.159  51.286  1.00  0.00     0.193 C 
BRANCH  28  29
HETATM   29  O1  UNL     1      17.416  -0.287  52.542  1.00  0.00    -0.394 OA
HETATM   30  C1  UNL     1      17.868  -1.432  53.162  1.00  0.00     0.201 C 
ENDBRANCH  28  29
ENDBRANCH  27  28
ENDBRANCH  26  27
ENDBRANCH   1  26
TORSDOF 6
ENDMDL
MODEL 2
REMARK VINA RESULT:      -8.5      3.914      8.049
REMARK  6 active torsions:
REMARK  status: ('A' for Active; 'I' for Inactive)
REMARK    1  A    between atoms: O1_2  and  C2_3 
REMARK    2  A    between atoms: C2_3  and  C3_4 
REMARK    3  A    between atoms: C3_4  and  O2_5 
REMARK    4  A    between atoms: O2_5  and  C4_6 
REMARK    5  A    between atoms: C15_20  and  N3_21 
REMARK    6  A    between atoms: N3_21  and  C16_22 
ROOT
HETATM    1  C4  UNL     1      25.577   0.059  52.995  1.00  0.00     0.067 C 
HETATM    2  C5  UNL     1      24.278  -0.105  53.104  1.00  0.00     0.019 C 
HETATM    3  C6  UNL     1      22.879  -0.412  53.326  1.00  0.00     0.045 C 
HETATM    4  C7  UNL     1      22.560  -1.020  54.702  1.00  0.00     0.039 C 
HETATM    5  C8  UNL     1      21.216  -1.695  54.489  1.00  0.00     0.169 C 
HETATM    6  O3  UNL     1      20.299  -0.799  53.944  1.00  0.00    -0.387 OA
HETATM    7  C9  UNL     1      20.760   0.486  53.883  1.00  0.00     0.203 C 
HETATM    8  C10 UNL     1      21.997   0.709  53.101  1.00  0.00    -0.031 C 
HETATM    9  C11 UNL     1      22.046   1.825  52.402  1.00  0.00     0.063 A 
HETATM   10  C12 UNL     1      23.116   2.315  51.564  1.00  0.00     0.165 A 
HETATM   11  N1  UNL     1      24.217   2.587  50.979  1.00  0.00    -0.240 NA
HETATM   12  C13 UNL     1      25.391   1.961  51.470  1.00  0.00     0.122 C 
HETATM   13  C14 UNL     1      26.139   1.095  52.164  1.00  0.00     0.055 C 
HETATM   14  N2  UNL     1      22.296   3.397  51.170  1.00  0.00    -0.210 NA
HETATM   15  C15 UNL     1      21.307   3.014  51.902  1.00  0.00     0.145 A 
ENDROOT
BRANCH  15  16
HETATM   16  N3  UNL     1      20.040   3.624  52.073  1.00  0.00    -0.340 N 
HETATM   17  H18 UNL     1      19.962   4.419  52.751  1.00  0.00     0.167 HD
BRANCH  16  18
HETATM   18  C16 UNL     1      18.839   3.251  51.408  1.00  0.00     0.035 A 
HETATM   19  C17 UNL     1      17.882   4.165  51.020  1.00  0.00     0.032 A 
HETATM   20  C18 UNL     1      16.707   3.734  50.381  1.00  0.00     0.046 A 
HETATM   21  C19 UNL     1      16.496   2.412  50.137  1.00  0.00     0.138 A 
HETATM   22  F1  UNL     1      15.374   1.941  49.521  1.00  0.00    -0.204 F 
HETATM   23  C20 UNL     1      17.442   1.472  50.520  1.00  0.00     0.074 A 
HETATM   24 CL1  UNL     1      17.224  -0.263  50.231  1.00  0.00    -0.081 Cl
HETATM   25  C21 UNL     1      18.556   1.934  51.130  1.00  0.00     0.056 A 
ENDBRANCH  16  18
ENDBRANCH  15  16
BRANCH   1  26
HETATM   26  O2  UNL     1      26.862  -0.331  53.344  1.00  0.00    -0.349 OA
BRANCH  26  27
HETATM   27  C3  UNL     1      27.305   0.070  54.656  1.00  0.00     0.201 C 
BRANCH  27  28
HETATM   28  C2  UNL     1      28.766   0.381  54.650  1.00  0.00     0.193 C 
BRANCH  28  29
HETATM   29  O1  UNL     1      28.961   1.720  54.901  1.00  0.00    -0.394 OA
HETATM   30  C1  UNL     1      28.886   2.455  53.737  1.00  0.00     0.201 C 
ENDBRANCH  28  29
ENDBRANCH  27  28
ENDBRANCH  26  27
ENDBRANCH   1  26
TORSDOF 6
ENDMDL
MODEL 3
REMARK VINA RESULT:      -8.5      4.763      8.708
REMARK  6 active torsions:
REMARK  status: ('A' for Active; 'I' for Inactive)
REMARK    1  A    between atoms: O1_2  and  C2_3 
REMARK    2  A    between atoms: C2_3  and  C3_4 
REMARK    3  A    between atoms: C3_4  and  O2_5 
REMARK    4  A    between atoms: O2_5  and  C4_6 
REMARK    5  A    between atoms: C15_20  and  N3_21 
REMARK    6  A    between atoms: N3_21  and  C16_22 
ROOT
HETATM    1  C4  UNL     1      25.185  -0.225  54.220  1.00  0.00     0.067 C 
HETATM    2  C5  UNL     1      24.469   0.562  53.450  1.00  0.00     0.019 C 
HETATM    3  C6  UNL     1      23.822   1.488  52.541  1.00  0.00     0.045 C 
HETATM    4  C7  UNL     1      24.614   1.797  51.260  1.00  0.00     0.039 C 
HETATM    5  C8  UNL     1      24.011   3.105  50.776  1.00  0.00     0.169 C 
HETATM    6  O3  UNL     1      22.626   2.997  50.675  1.00  0.00    -0.387 OA
HETATM    7  C9  UNL     1      22.160   1.727  50.872  1.00  0.00     0.203 C 
HETATM    8  C10 UNL     1      22.482   1.097  52.172  1.00  0.00    -0.031 C 
HETATM    9  C11 UNL     1      21.538   0.344  52.700  1.00  0.00     0.063 A 
HETATM   10  C12 UNL     1      21.568  -0.401  53.937  1.00  0.00     0.165 A 
HETATM   11  N1  UNL     1      21.865  -1.049  54.995  1.00  0.00    -0.240 NA
HETATM   12  C13 UNL     1      23.239  -1.282  55.256  1.00  0.00     0.122 C 
HETATM   13  C14 UNL     1      24.566  -1.148  55.139  1.00  0.00     0.055 C 
HETATM   14  N2  UNL     1      20.212  -0.749  53.747  1.00  0.00    -0.210 NA
HETATM   15  C15 UNL     1      20.123  -0.106  52.633  1.00  0.00     0.145 A 
ENDROOT
BRANCH  15  16
HETATM   16  N3  UNL     1      19.010   0.019  51.766  1.00  0.00    -0.340 N 
HETATM   17  H18 UNL     1      18.772  -0.793  51.148  1.00  0.00     0.167 HD
BRANCH  16  18
HETATM   18  C16 UNL     1      18.173   1.162  51.644  1.00  0.00     0.035 A 
HETATM   19  C17 UNL     1      18.666   2.449  51.584  1.00  0.00     0.032 A 
HETATM   20  C18 UNL     1      17.787   3.541  51.481  1.00  0.00     0.046 A 
HETATM   21  C19 UNL     1      16.441   3.346  51.440  1.00  0.00     0.138 A 
HETATM   22  F1  UNL     1      15.546   4.370  51.342  1.00  0.00    -0.204 F 
HETATM   23  C20 UNL     1      15.920   2.062  51.502  1.00  0.00     0.074 A 
HETATM   24 CL1  UNL     1      14.177   1.744  51.455  1.00  0.00    -0.081 Cl
HETATM   25  C21 UNL     1      16.804   1.043  51.599  1.00  0.00     0.056 A 
ENDBRANCH  16  18
ENDBRANCH  15  16
BRANCH   1  26
HETATM   26  O2  UNL     1      26.429  -0.670  54.642  1.00  0.00    -0.349 OA
BRANCH  26  27
HETATM   27  C3  UNL     1      27.563  -0.109  53.952  1.00  0.00     0.201 C 
BRANCH  27  28
HETATM   28  C2  UNL     1      28.664   0.210  54.911  1.00  0.00     0.193 C 
BRANCH  28  29
HETATM   29  O1  UNL     1      28.929   1.560  54.888  1.00  0.00    -0.394 OA
HETATM   30  C1  UNL     1      28.638   2.098  53.652  1.00  0.00     0.201 C 
ENDBRANCH  28  29
ENDBRANCH  27  28
ENDBRANCH  26  27
ENDBRANCH   1  26
TORSDOF 6
ENDMDL
MODEL 4
REMARK VINA RESULT:      -8.4      3.294      4.826
REMARK  6 active torsions:
REMARK  status: ('A' for Active; 'I' for Inactive)
REMARK    1  A    between atoms: O1_2  and  C2_3 
REMARK    2  A    between atoms: C2_3  and  C3_4 
REMARK    3  A    between atoms: C3_4  and  O2_5 
REMARK    4  A    between atoms: O2_5  and  C4_6 
REMARK    5  A    between atoms: C15_20  and  N3_21 
REMARK    6  A    between atoms: N3_21  and  C16_22 
ROOT
HETATM    1  C4  UNL     1      21.791   3.787  48.592  1.00  0.00     0.067 C 
HETATM    2  C5  UNL     1      23.006   3.516  49.010  1.00  0.00     0.019 C 
HETATM    3  C6  UNL     1      24.398   3.345  49.381  1.00  0.00     0.045 C 
HETATM    4  C7  UNL     1      25.223   4.642  49.409  1.00  0.00     0.039 C 
HETATM    5  C8  UNL     1      26.658   4.153  49.307  1.00  0.00     0.169 C 
HETATM    6  O3  UNL     1      26.918   3.194  50.283  1.00  0.00    -0.387 OA
HETATM    7  C9  UNL     1      25.902   3.040  51.183  1.00  0.00     0.203 C 
HETATM    8  C10 UNL     1      24.582   2.653  50.635  1.00  0.00    -0.031 C 
HETATM    9  C11 UNL     1      23.879   1.809  51.362  1.00  0.00     0.063 A 
HETATM   10  C12 UNL     1      22.566   1.269  51.093  1.00  0.00     0.165 A 
HETATM   11  N1  UNL     1      21.378   1.015  50.702  1.00  0.00    -0.240 NA
HETATM   12  C13 UNL     1      20.759   1.953  49.838  1.00  0.00     0.122 C 
HETATM   13  C14 UNL     1      20.658   2.993  49.001  1.00  0.00     0.055 C 
HETATM   14  N2  UNL     1      22.684   0.446  52.236  1.00  0.00    -0.210 NA
HETATM   15  C15 UNL     1      23.857   0.892  52.531  1.00  0.00     0.145 A 
ENDROOT
BRANCH  15  16
HETATM   16  N3  UNL     1      24.690   0.545  53.622  1.00  0.00    -0.340 N 
HETATM   17  H18 UNL     1      24.275   0.555  54.584  1.00  0.00     0.167 HD
BRANCH  16  18
HETATM   18  C16 UNL     1      26.064   0.185  53.539  1.00  0.00     0.035 A 
HETATM   19  C17 UNL     1      26.492  -1.024  53.032  1.00  0.00     0.032 A 
HETATM   20  C18 UNL     1      27.863  -1.330  52.992  1.00  0.00     0.046 A 
HETATM   21  C19 UNL     1      28.786  -0.443  53.452  1.00  0.00     0.138 A 
HETATM   22  F1  UNL     1      30.126  -0.691  53.436  1.00  0.00    -0.204 F 
HETATM   23  C20 UNL     1      28.381   0.780  53.969  1.00  0.00     0.074 A 
HETATM   24 CL1  UNL     1      29.533   1.977  54.584  1.00  0.00    -0.081 Cl
HETATM   25  C21 UNL     1      27.052   1.030  53.986  1.00  0.00     0.056 A 
ENDBRANCH  16  18
ENDBRANCH  15  16
BRANCH   1  26
HETATM   26  O2  UNL     1      20.938   4.583  47.843  1.00  0.00    -0.349 OA
BRANCH  26  27
HETATM   27  C3  UNL     1      20.142   5.525  48.589  1.00  0.00     0.201 C 
BRANCH  27  28
HETATM   28  C2  UNL     1      20.940   6.741  48.931  1.00  0.00     0.193 C 
BRANCH  28  29
HETATM   29  O1  UNL     1      21.067   6.849  50.297  1.00  0.00    -0.394 OA
HETATM   30  C1  UNL     1      22.388   7.016  50.656  1.00  0.00     0.201 C 
ENDBRANCH  28  29
ENDBRANCH  27  28
ENDBRANCH  26  27
ENDBRANCH   1  26
TORSDOF 6
ENDMDL
MODEL 5
REMARK VINA RESULT:      -8.2      4.684      8.484
REMARK  6 active torsions:
REMARK  status: ('A' for Active; 'I' for Inactive)
REMARK    1  A    between atoms: O1_2  and  C2_3 
REMARK    2  A    between atoms: C2_3  and  C3_4 
REMARK    3  A    between atoms: C3_4  and  O2_5 
REMARK    4  A    between atoms: O2_5  and  C4_6 
REMARK    5  A    between atoms: C15_20  and  N3_21 
REMARK    6  A    between atoms: N3_21  and  C16_22 
ROOT
HETATM    1  C4  UNL     1      24.890  -0.344  54.444  1.00  0.00     0.067 C 
HETATM    2  C5  UNL     1      24.274   0.444  53.592  1.00  0.00     0.019 C 
HETATM    3  C6  UNL     1      23.744   1.365  52.605  1.00  0.00     0.045 C 
HETATM    4  C7  UNL     1      24.661   1.617  51.397  1.00  0.00     0.039 C 
HETATM    5  C8  UNL     1      24.148   2.929  50.829  1.00  0.00     0.169 C 
HETATM    6  O3  UNL     1      22.775   2.860  50.602  1.00  0.00    -0.387 OA
HETATM    7  C9  UNL     1      22.252   1.611  50.784  1.00  0.00     0.203 C 
HETATM    8  C10 UNL     1      22.432   1.005  52.123  1.00  0.00    -0.031 C 
HETATM    9  C11 UNL     1      21.419   0.295  52.577  1.00  0.00     0.063 A 
HETATM   10  C12 UNL     1      21.311  -0.418  53.828  1.00  0.00     0.165 A 
HETATM   11  N1  UNL     1      21.487  -1.048  54.924  1.00  0.00    -0.240 NA
HETATM   12  C13 UNL     1      22.823  -1.315  55.317  1.00  0.00     0.122 C 
HETATM   13  C14 UNL     1      24.158  -1.224  55.321  1.00  0.00     0.055 C 
HETATM   14  N2  UNL     1      19.967  -0.730  53.520  1.00  0.00    -0.210 NA
HETATM   15  C15 UNL     1      20.002  -0.114  52.389  1.00  0.00     0.145 A 
ENDROOT
BRANCH  15  16
HETATM   16  N3  UNL     1      18.979   0.022  51.419  1.00  0.00    -0.340 N 
HETATM   17  H18 UNL     1      18.498  -0.846  51.084  1.00  0.00     0.167 HD
BRANCH  16  18
HETATM   18  C16 UNL     1      18.539   1.244  50.839  1.00  0.00     0.035 A 
HETATM   19  C17 UNL     1      18.906   1.648  49.572  1.00  0.00     0.032 A 
HETATM   20  C18 UNL     1      18.451   2.875  49.060  1.00  0.00     0.046 A 
HETATM   21  C19 UNL     1      17.646   3.681  49.803  1.00  0.00     0.138 A 
HETATM   22  F1  UNL     1      17.178   4.880  49.353  1.00  0.00    -0.204 F 
HETATM   23  C20 UNL     1      17.264   3.299  51.081  1.00  0.00     0.074 A 
HETATM   24 CL1  UNL     1      16.218   4.305  52.097  1.00  0.00    -0.081 Cl
HETATM   25  C21 UNL     1      17.724   2.110  51.530  1.00  0.00     0.056 A 
ENDBRANCH  16  18
ENDBRANCH  15  16
BRANCH   1  26
HETATM   26  O2  UNL     1      26.074  -0.816  54.989  1.00  0.00    -0.349 OA
BRANCH  26  27
HETATM   27  C3  UNL     1      27.209   0.067  54.885  1.00  0.00     0.201 C 
BRANCH  27  28
HETATM   28  C2  UNL     1      27.991  -0.218  53.644  1.00  0.00     0.193 C 
BRANCH  28  29
HETATM   29  O1  UNL     1      28.771  -1.337  53.829  1.00  0.00    -0.394 OA
HETATM   30  C1  UNL     1      30.103  -1.048  53.617  1.00  0.00     0.201 C 
ENDBRANCH  28  29
ENDBRANCH  27  28
ENDBRANCH  26  27
ENDBRANCH   1  26
TORSDOF 6
ENDMDL
MODEL 6
REMARK VINA RESULT:      -8.1      4.470      8.692
REMARK  6 active torsions:
REMARK  status: ('A' for Active; 'I' for Inactive)
REMARK    1  A    between atoms: O1_2  and  C2_3 
REMARK    2  A    between atoms: C2_3  and  C3_4 
REMARK    3  A    between atoms: C3_4  and  O2_5 
REMARK    4  A    between atoms: O2_5  and  C4_6 
REMARK    5  A    between atoms: C15_20  and  N3_21 
REMARK    6  A    between atoms: N3_21  and  C16_22 
ROOT
HETATM    1  C4  UNL     1      25.356  -0.332  54.207  1.00  0.00     0.067 C 
HETATM    2  C5  UNL     1      24.602   0.499  53.523  1.00  0.00     0.019 C 
HETATM    3  C6  UNL     1      23.910   1.469  52.698  1.00  0.00     0.045 C 
HETATM    4  C7  UNL     1      24.590   1.778  51.354  1.00  0.00     0.039 C 
HETATM    5  C8  UNL     1      23.996   3.118  50.954  1.00  0.00     0.169 C 
HETATM    6  O3  UNL     1      22.604   3.064  50.984  1.00  0.00    -0.387 OA
HETATM    7  C9  UNL     1      22.109   1.808  51.199  1.00  0.00     0.203 C 
HETATM    8  C10 UNL     1      22.527   1.137  52.451  1.00  0.00    -0.031 C 
HETATM    9  C11 UNL     1      21.607   0.408  53.050  1.00  0.00     0.063 A 
HETATM   10  C12 UNL     1      21.724  -0.366  54.265  1.00  0.00     0.165 A 
HETATM   11  N1  UNL     1      22.093  -1.049  55.277  1.00  0.00    -0.240 NA
HETATM   12  C13 UNL     1      23.476  -1.339  55.402  1.00  0.00     0.122 C 
HETATM   13  C14 UNL     1      24.790  -1.252  55.162  1.00  0.00     0.055 C 
HETATM   14  N2  UNL     1      20.343  -0.659  54.197  1.00  0.00    -0.210 NA
HETATM   15  C15 UNL     1      20.175   0.013  53.110  1.00  0.00     0.145 A 
ENDROOT
BRANCH  15  16
HETATM   16  N3  UNL     1      18.992   0.199  52.354  1.00  0.00    -0.340 N 
HETATM   17  H18 UNL     1      18.919   1.053  51.752  1.00  0.00     0.167 HD
BRANCH  16  18
HETATM   18  C16 UNL     1      17.868  -0.673  52.338  1.00  0.00     0.035 A 
HETATM   19  C17 UNL     1      16.699  -0.378  51.669  1.00  0.00     0.032 A 
HETATM   20  C18 UNL     1      15.617  -1.272  51.704  1.00  0.00     0.046 A 
HETATM   21  C19 UNL     1      15.704  -2.440  52.398  1.00  0.00     0.138 A 
HETATM   22  F1  UNL     1      14.683  -3.341  52.465  1.00  0.00    -0.204 F 
HETATM   23  C20 UNL     1      16.868  -2.760  53.082  1.00  0.00     0.074 A 
HETATM   24 CL1  UNL     1      17.043  -4.263  54.003  1.00  0.00    -0.081 Cl
HETATM   25  C21 UNL     1      17.883  -1.869  53.018  1.00  0.00     0.056 A 
ENDBRANCH  16  18
ENDBRANCH  15  16
BRANCH   1  26
HETATM   26  O2  UNL     1      26.616  -0.833  54.500  1.00  0.00    -0.349 OA
BRANCH  26  27
HETATM   27  C3  UNL     1      27.663   0.146  54.646  1.00  0.00     0.201 C 
BRANCH  27  28
HETATM   28  C2  UNL     1      28.630   0.063  53.509  1.00  0.00     0.193 C 
BRANCH  28  29
HETATM   29  O1  UNL     1      29.006   1.329  53.121  1.00  0.00    -0.394 OA
HETATM   30  C1  UNL     1      27.918   2.175  53.083  1.00  0.00     0.201 C 
ENDBRANCH  28  29
ENDBRANCH  27  28
ENDBRANCH  26  27
ENDBRANCH   1  26
TORSDOF 6
ENDMDL
MODEL 7
REMARK VINA RESULT:      -8.1      4.190      6.276
REMARK  6 active torsions:
REMARK  status: ('A' for Active; 'I' for Inactive)
REMARK    1  A    between atoms: O1_2  and  C2_3 
REMARK    2  A    between atoms: C2_3  and  C3_4 
REMARK    3  A    between atoms: C3_4  and  O2_5 
REMARK    4  A    between atoms: O2_5  and  C4_6 
REMARK    5  A    between atoms: C15_20  and  N3_21 
REMARK    6  A    between atoms: N3_21  and  C16_22 
ROOT
HETATM    1  C4  UNL     1      23.765   0.044  53.447  1.00  0.00     0.067 C 
HETATM    2  C5  UNL     1      23.364   0.920  52.554  1.00  0.00     0.019 C 
HETATM    3  C6  UNL     1      22.768   1.861  51.626  1.00  0.00     0.045 C 
HETATM    4  C7  UNL     1      21.495   2.556  52.136  1.00  0.00     0.039 C 
HETATM    5  C8  UNL     1      20.823   3.045  50.864  1.00  0.00     0.169 C 
HETATM    6  O3  UNL     1      21.713   3.796  50.099  1.00  0.00    -0.387 OA
HETATM    7  C9  UNL     1      22.899   4.048  50.729  1.00  0.00     0.203 C 
HETATM    8  C10 UNL     1      23.688   2.870  51.155  1.00  0.00    -0.031 C 
HETATM    9  C11 UNL     1      24.996   2.975  51.031  1.00  0.00     0.063 A 
HETATM   10  C12 UNL     1      26.011   2.006  51.373  1.00  0.00     0.165 A 
HETATM   11  N1  UNL     1      26.717   1.053  51.843  1.00  0.00    -0.240 NA
HETATM   12  C13 UNL     1      26.124   0.223  52.828  1.00  0.00     0.122 C 
HETATM   13  C14 UNL     1      25.156  -0.316  53.579  1.00  0.00     0.055 C 
HETATM   14  N2  UNL     1      26.994   2.860  50.825  1.00  0.00    -0.210 NA
HETATM   15  C15 UNL     1      26.136   3.765  50.499  1.00  0.00     0.145 A 
ENDROOT
BRANCH  15  16
HETATM   16  N3  UNL     1      26.359   5.018  49.877  1.00  0.00    -0.340 N 
HETATM   17  H18 UNL     1      27.314   5.217  49.495  1.00  0.00     0.167 HD
BRANCH  16  18
HETATM   18  C16 UNL     1      25.397   6.055  49.724  1.00  0.00     0.035 A 
HETATM   19  C17 UNL     1      25.107   6.962  50.722  1.00  0.00     0.032 A 
HETATM   20  C18 UNL     1      24.133   7.954  50.517  1.00  0.00     0.046 A 
HETATM   21  C19 UNL     1      23.463   8.035  49.335  1.00  0.00     0.138 A 
HETATM   22  F1  UNL     1      22.510   8.977  49.086  1.00  0.00    -0.204 F 
HETATM   23  C20 UNL     1      23.735   7.133  48.316  1.00  0.00     0.074 A 
HETATM   24 CL1  UNL     1      22.897   7.187  46.756  1.00  0.00    -0.081 Cl
HETATM   25  C21 UNL     1      24.680   6.198  48.559  1.00  0.00     0.056 A 
ENDBRANCH  16  18
ENDBRANCH  15  16
BRANCH   1  26
HETATM   26  O2  UNL     1      23.461  -0.830  54.480  1.00  0.00    -0.349 OA
BRANCH  26  27
HETATM   27  C3  UNL     1      22.080  -0.857  54.893  1.00  0.00     0.201 C 
BRANCH  27  28
HETATM   28  C2  UNL     1      21.368  -2.024  54.288  1.00  0.00     0.193 C 
BRANCH  28  29
HETATM   29  O1  UNL     1      20.058  -1.690  54.030  1.00  0.00    -0.394 OA
HETATM   30  C1  UNL     1      19.963  -0.396  53.563  1.00  0.00     0.201 C 
ENDBRANCH  28  29
ENDBRANCH  27  28
ENDBRANCH  26  27
ENDBRANCH   1  26
TORSDOF 6
ENDMDL
MODEL 8
REMARK VINA RESULT:      -8.0      4.643      8.416
REMARK  6 active torsions:
REMARK  status: ('A' for Active; 'I' for Inactive)
REMARK    1  A    between atoms: O1_2  and  C2_3 
REMARK    2  A    between atoms: C2_3  and  C3_4 
REMARK    3  A    between atoms: C3_4  and  O2_5 
REMARK    4  A    between atoms: O2_5  and  C4_6 
REMARK    5  A    between atoms: C15_20  and  N3_21 
REMARK    6  A    between atoms: N3_21  and  C16_22 
ROOT
HETATM    1  C4  UNL     1      25.098   1.437  52.024  1.00  0.00     0.067 C 
HETATM    2  C5  UNL     1      23.899   1.922  52.252  1.00  0.00     0.019 C 
HETATM    3  C6  UNL     1      22.619   2.586  52.408  1.00  0.00     0.045 C 
HETATM    4  C7  UNL     1      22.196   3.465  51.219  1.00  0.00     0.039 C 
HETATM    5  C8  UNL     1      21.158   4.398  51.819  1.00  0.00     0.169 C 
HETATM    6  O3  UNL     1      20.169   3.672  52.477  1.00  0.00    -0.387 OA
HETATM    7  C9  UNL     1      20.269   2.321  52.295  1.00  0.00     0.203 C 
HETATM    8  C10 UNL     1      21.535   1.686  52.726  1.00  0.00    -0.031 C 
HETATM    9  C11 UNL     1      21.426   0.494  53.277  1.00  0.00     0.063 A 
HETATM   10  C12 UNL     1      22.475  -0.365  53.775  1.00  0.00     0.165 A 
HETATM   11  N1  UNL     1      23.559  -0.982  54.045  1.00  0.00    -0.240 NA
HETATM   12  C13 UNL     1      24.729  -0.584  53.349  1.00  0.00     0.122 C 
HETATM   13  C14 UNL     1      25.521   0.178  52.586  1.00  0.00     0.055 C 
HETATM   14  N2  UNL     1      21.495  -1.269  54.245  1.00  0.00    -0.210 NA
HETATM   15  C15 UNL     1      20.515  -0.548  53.819  1.00  0.00     0.145 A 
ENDROOT
BRANCH  15  16
HETATM   16  N3  UNL     1      19.124  -0.802  53.900  1.00  0.00    -0.340 N 
HETATM   17  H18 UNL     1      18.718  -1.034  54.837  1.00  0.00     0.167 HD
BRANCH  16  18
HETATM   18  C16 UNL     1      18.209  -0.780  52.811  1.00  0.00     0.035 A 
HETATM   19  C17 UNL     1      18.505  -0.203  51.594  1.00  0.00     0.032 A 
HETATM   20  C18 UNL     1      17.553  -0.198  50.561  1.00  0.00     0.046 A 
HETATM   21  C19 UNL     1      16.327  -0.759  50.745  1.00  0.00     0.138 A 
HETATM   22  F1  UNL     1      15.368  -0.780  49.776  1.00  0.00    -0.204 F 
HETATM   23  C20 UNL     1      16.003  -1.345  51.960  1.00  0.00     0.074 A 
HETATM   24 CL1  UNL     1      14.425  -2.091  52.261  1.00  0.00    -0.081 Cl
HETATM   25  C21 UNL     1      16.952  -1.327  52.923  1.00  0.00     0.056 A 
ENDBRANCH  16  18
ENDBRANCH  15  16
BRANCH   1  26
HETATM   26  O2  UNL     1      26.338   1.560  51.415  1.00  0.00    -0.349 OA
BRANCH  26  27
HETATM   27  C3  UNL     1      26.723   2.897  51.039  1.00  0.00     0.201 C 
BRANCH  27  28
HETATM   28  C2  UNL     1      26.428   3.149  49.596  1.00  0.00     0.193 C 
BRANCH  28  29
HETATM   29  O1  UNL     1      26.481   4.499  49.335  1.00  0.00    -0.394 OA
HETATM   30  C1  UNL     1      25.472   5.168  49.996  1.00  0.00     0.201 C 
ENDBRANCH  28  29
ENDBRANCH  27  28
ENDBRANCH  26  27
ENDBRANCH   1  26
TORSDOF 6
ENDMDL
MODEL 9
REMARK VINA RESULT:      -7.9      4.712      8.655
REMARK  6 active torsions:
REMARK  status: ('A' for Active; 'I' for Inactive)
REMARK    1  A    between atoms: O1_2  and  C2_3 
REMARK    2  A    between atoms: C2_3  and  C3_4 
REMARK    3  A    between atoms: C3_4  and  O2_5 
REMARK    4  A    between atoms: O2_5  and  C4_6 
REMARK    5  A    between atoms: C15_20  and  N3_21 
REMARK    6  A    between atoms: N3_21  and  C16_22 
ROOT
HETATM    1  C4  UNL     1      26.022   0.029  53.774  1.00  0.00     0.067 C 
HETATM    2  C5  UNL     1      25.513   0.952  52.991  1.00  0.00     0.019 C 
HETATM    3  C6  UNL     1      25.107   2.014  52.091  1.00  0.00     0.045 C 
HETATM    4  C7  UNL     1      26.091   2.302  50.945  1.00  0.00     0.039 C 
HETATM    5  C8  UNL     1      25.718   3.707  50.502  1.00  0.00     0.169 C 
HETATM    6  O3  UNL     1      24.355   3.787  50.226  1.00  0.00    -0.387 OA
HETATM    7  C9  UNL     1      23.718   2.579  50.259  1.00  0.00     0.203 C 
HETATM    8  C10 UNL     1      23.789   1.826  51.532  1.00  0.00    -0.031 C 
HETATM    9  C11 UNL     1      22.700   1.168  51.876  1.00  0.00     0.063 A 
HETATM   10  C12 UNL     1      22.479   0.344  53.042  1.00  0.00     0.165 A 
HETATM   11  N1  UNL     1      22.554  -0.407  54.070  1.00  0.00    -0.240 NA
HETATM   12  C13 UNL     1      23.844  -0.834  54.475  1.00  0.00     0.122 C 
HETATM   13  C14 UNL     1      25.181  -0.866  54.531  1.00  0.00     0.055 C 
HETATM   14  N2  UNL     1      21.126   0.189  52.660  1.00  0.00    -0.210 NA
HETATM   15  C15 UNL     1      21.262   0.912  51.602  1.00  0.00     0.145 A 
ENDROOT
BRANCH  15  16
HETATM   16  N3  UNL     1      20.295   1.239  50.619  1.00  0.00    -0.340 N 
HETATM   17  H18 UNL     1      20.628   1.446  49.648  1.00  0.00     0.167 HD
BRANCH  16  18
HETATM   18  C16 UNL     1      18.890   1.321  50.829  1.00  0.00     0.035 A 
HETATM   19  C17 UNL     1      18.036   0.260  50.613  1.00  0.00     0.032 A 
HETATM   20  C18 UNL     1      16.655   0.408  50.821  1.00  0.00     0.046 A 
HETATM   21  C19 UNL     1      16.139   1.597  51.236  1.00  0.00     0.138 A 
HETATM   22  F1  UNL     1      14.807   1.794  51.452  1.00  0.00    -0.204 F 
HETATM   23  C20 UNL     1      16.977   2.681  51.458  1.00  0.00     0.074 A 
HETATM   24 CL1  UNL     1      16.367   4.254  51.998  1.00  0.00    -0.081 Cl
HETATM   25  C21 UNL     1      18.298   2.491  51.246  1.00  0.00     0.056 A 
ENDBRANCH  16  18
ENDBRANCH  15  16
BRANCH   1  26
HETATM   26  O2  UNL     1      27.138  -0.603  54.304  1.00  0.00    -0.349 OA
BRANCH  26  27
HETATM   27  C3  UNL     1      28.176   0.267  54.797  1.00  0.00     0.201 C 
BRANCH  27  28
HETATM   28  C2  UNL     1      29.299   0.363  53.815  1.00  0.00     0.193 C 
BRANCH  28  29
HETATM   29  O1  UNL     1      29.089   1.425  52.965  1.00  0.00    -0.394 OA
HETATM   30  C1  UNL     1      28.731   2.555  53.670  1.00  0.00     0.201 C 
ENDBRANCH  28  29
ENDBRANCH  27  28
ENDBRANCH  26  27
ENDBRANCH   1  26
TORSDOF 6
ENDMDL
