MODEL 1
REMARK VINA RESULT:      -9.8      0.000      0.000
REMARK  1 active torsions:
REMARK  status: ('A' for Active; 'I' for Inactive)
REMARK    1  A    between atoms: O1_2  and  C2_3 
ROOT
HETATM    1  C2  UNL     1      20.365  -0.078  52.871  1.00  0.00     0.103 A 
HETATM    2  C3  UNL     1      21.074  -0.635  53.914  1.00  0.00     0.072 A 
HETATM    3  C4  UNL     1      22.412  -0.612  54.124  1.00  0.00     0.073 A 
HETATM    4  C5  UNL     1      23.216   0.028  53.220  1.00  0.00     0.020 A 
HETATM    5  C6  UNL     1      22.572   0.614  52.131  1.00  0.00     0.055 A 
HETATM    6  C7  UNL     1      21.205   0.554  51.984  1.00  0.00     0.103 A 
HETATM    7  O2  UNL     1      20.476   1.142  50.912  1.00  0.00    -0.348 OA
HETATM    8  C8  UNL     1      19.802   2.377  51.319  1.00  0.00     0.177 C 
HETATM    9  C9  UNL     1      19.112   2.981  50.149  1.00  0.00     0.046 C 
HETATM   10  C10 UNL     1      20.155   3.379  49.103  1.00  0.00     0.125 C 
HETATM   11  N1  UNL     1      20.980   4.431  49.729  1.00  0.00    -0.381 N 
HETATM   12  C11 UNL     1      20.974   5.315  50.883  1.00  0.00     0.149 C 
HETATM   13  C12 UNL     1      21.146   6.733  50.336  1.00  0.00     0.187 C 
HETATM   14  O3  UNL     1      20.843   6.776  48.973  1.00  0.00    -0.384 OA
HETATM   15  C13 UNL     1      21.509   5.827  48.225  1.00  0.00     0.224 C 
HETATM   16  C14 UNL     1      22.224   4.839  49.082  1.00  0.00     0.028 C 
HETATM   17  C15 UNL     1      23.560   4.574  49.060  1.00  0.00     0.009 C 
HETATM   18  C16 UNL     1      23.958   3.482  50.014  1.00  0.00     0.153 C 
HETATM   19  C17 UNL     1      25.291   3.122  50.080  1.00  0.00     0.125 C 
HETATM   20  F1  UNL     1      26.652   3.253  49.682  1.00  0.00    -0.242 F 
HETATM   21  C18 UNL     1      25.416   2.071  51.121  1.00  0.00     0.033 A 
HETATM   22 CL1  UNL     1      26.951   1.211  51.458  1.00  0.00    -0.171 Cl
HETATM   23  C19 UNL     1      25.446   1.150  52.054  1.00  0.00     0.163 A 
HETATM   24  C20 UNL     1      24.491   0.464  52.987  1.00  0.00     0.042 C 
HETATM   25  N2  UNL     1      25.493   0.394  54.054  1.00  0.00    -0.373 N 
HETATM   26  C21 UNL     1      25.984  -0.260  55.248  1.00  0.00     0.271 C 
HETATM   27  N3  UNL     1      25.061  -1.130  55.861  1.00  0.00    -0.263 NA
HETATM   28  C22 UNL     1      23.880  -1.571  55.940  1.00  0.00     0.229 C 
HETATM   29  N4  UNL     1      22.666  -1.270  55.231  1.00  0.00    -0.242 NA
HETATM   30  H21 UNL     1      26.098   1.236  53.802  1.00  0.00     0.161 HD
ENDROOT
BRANCH   1  31
HETATM   31  O1  UNL     1      18.984  -0.166  52.770  1.00  0.00    -0.353 OA
HETATM   32  C1  UNL     1      18.360  -1.322  53.277  1.00  0.00     0.210 C 
ENDBRANCH   1  31
TORSDOF 1
ENDMDL
MODEL 2
REMARK VINA RESULT:      -9.6      1.904      2.769
REMARK  1 active torsions:
REMARK  status: ('A' for Active; 'I' for Inactive)
REMARK    1  A    between atoms: O1_2  and  C2_3 
ROOT
HETATM    1  C2  UNL     1      23.023  -0.823  53.268  1.00  0.00     0.103 A 
HETATM    2  C3  UNL     1      24.206  -0.744  53.970  1.00  0.00     0.072 A 
HETATM    3  C4  UNL     1      25.277   0.045  53.720  1.00  0.00     0.073 A 
HETATM    4  C5  UNL     1      25.242   0.892  52.645  1.00  0.00     0.020 A 
HETATM    5  C6  UNL     1      24.078   0.867  51.880  1.00  0.00     0.055 A 
HETATM    6  C7  UNL     1      23.025   0.039  52.196  1.00  0.00     0.103 A 
HETATM    7  O2  UNL     1      21.799  -0.030  51.475  1.00  0.00    -0.348 OA
HETATM    8  C8  UNL     1      20.714   0.666  52.169  1.00  0.00     0.177 C 
HETATM    9  C9  UNL     1      19.479   0.618  51.344  1.00  0.00     0.046 C 
HETATM   10  C10 UNL     1      19.718   1.379  50.039  1.00  0.00     0.125 C 
HETATM   11  N1  UNL     1      19.947   2.787  50.422  1.00  0.00    -0.381 N 
HETATM   12  C11 UNL     1      19.804   3.668  51.570  1.00  0.00     0.149 C 
HETATM   13  C12 UNL     1      18.959   4.851  51.097  1.00  0.00     0.187 C 
HETATM   14  O3  UNL     1      18.275   4.531  49.921  1.00  0.00    -0.384 OA
HETATM   15  C13 UNL     1      19.086   4.018  48.929  1.00  0.00     0.224 C 
HETATM   16  C14 UNL     1      20.459   3.722  49.425  1.00  0.00     0.028 C 
HETATM   17  C15 UNL     1      21.620   4.242  48.938  1.00  0.00     0.009 C 
HETATM   18  C16 UNL     1      22.843   3.698  49.624  1.00  0.00     0.153 C 
HETATM   19  C17 UNL     1      24.082   4.151  49.213  1.00  0.00     0.125 C 
HETATM   20  F1  UNL     1      24.920   4.958  48.392  1.00  0.00    -0.242 F 
HETATM   21  C18 UNL     1      25.100   3.501  50.077  1.00  0.00     0.033 A 
HETATM   22 CL1  UNL     1      26.862   3.692  49.818  1.00  0.00    -0.171 Cl
HETATM   23  C19 UNL     1      25.939   2.889  50.879  1.00  0.00     0.163 A 
HETATM   24  C20 UNL     1      25.893   1.925  52.028  1.00  0.00     0.042 C 
HETATM   25  N2  UNL     1      27.031   2.570  52.690  1.00  0.00    -0.373 N 
HETATM   26  C21 UNL     1      28.151   2.470  53.600  1.00  0.00     0.271 C 
HETATM   27  N3  UNL     1      28.134   1.328  54.426  1.00  0.00    -0.263 NA
HETATM   28  C22 UNL     1      27.509   0.322  54.867  1.00  0.00     0.229 C 
HETATM   29  N4  UNL     1      26.192  -0.202  54.629  1.00  0.00    -0.242 NA
HETATM   30  H21 UNL     1      26.936   3.562  52.308  1.00  0.00     0.161 HD
ENDROOT
BRANCH   1  31
HETATM   31  O1  UNL     1      21.989  -1.675  53.630  1.00  0.00    -0.353 OA
HETATM   32  C1  UNL     1      21.460  -1.552  54.929  1.00  0.00     0.210 C 
ENDBRANCH   1  31
TORSDOF 1
ENDMDL
MODEL 3
REMARK VINA RESULT:      -9.4      1.896      2.911
REMARK  1 active torsions:
REMARK  status: ('A' for Active; 'I' for Inactive)
REMARK    1  A    between atoms: O1_2  and  C2_3 
ROOT
HETATM    1  C2  UNL     1      19.848   1.524  50.383  1.00  0.00     0.103 A 
HETATM    2  C3  UNL     1      19.624   0.673  51.444  1.00  0.00     0.072 A 
HETATM    3  C4  UNL     1      20.536   0.109  52.270  1.00  0.00     0.073 A 
HETATM    4  C5  UNL     1      21.864   0.377  52.078  1.00  0.00     0.020 A 
HETATM    5  C6  UNL     1      22.173   1.228  51.019  1.00  0.00     0.055 A 
HETATM    6  C7  UNL     1      21.192   1.769  50.219  1.00  0.00     0.103 A 
HETATM    7  O2  UNL     1      21.427   2.658  49.133  1.00  0.00    -0.348 OA
HETATM    8  C8  UNL     1      21.107   4.045  49.478  1.00  0.00     0.177 C 
HETATM    9  C9  UNL     1      21.431   4.935  48.334  1.00  0.00     0.046 C 
HETATM   10  C10 UNL     1      22.937   4.888  48.073  1.00  0.00     0.125 C 
HETATM   11  N1  UNL     1      23.578   5.455  49.277  1.00  0.00    -0.381 N 
HETATM   12  C11 UNL     1      23.236   6.207  50.474  1.00  0.00     0.149 C 
HETATM   13  C12 UNL     1      24.150   7.433  50.483  1.00  0.00     0.187 C 
HETATM   14  O3  UNL     1      24.685   7.660  49.213  1.00  0.00    -0.384 OA
HETATM   15  C13 UNL     1      25.284   6.548  48.656  1.00  0.00     0.224 C 
HETATM   16  C14 UNL     1      25.021   5.314  49.449  1.00  0.00     0.028 C 
HETATM   17  C15 UNL     1      25.961   4.501  50.005  1.00  0.00     0.009 C 
HETATM   18  C16 UNL     1      25.369   3.305  50.698  1.00  0.00     0.153 C 
HETATM   19  C17 UNL     1      26.227   2.403  51.300  1.00  0.00     0.125 C 
HETATM   20  F1  UNL     1      27.527   1.951  51.661  1.00  0.00    -0.242 F 
HETATM   21  C18 UNL     1      25.391   1.359  51.944  1.00  0.00     0.033 A 
HETATM   22 CL1  UNL     1      26.083  -0.092  52.735  1.00  0.00    -0.171 Cl
HETATM   23  C19 UNL     1      24.587   0.476  52.488  1.00  0.00     0.163 A 
HETATM   24  C20 UNL     1      23.112   0.231  52.618  1.00  0.00     0.042 C 
HETATM   25  N2  UNL     1      23.263  -0.309  53.973  1.00  0.00    -0.373 N 
HETATM   26  C21 UNL     1      22.758  -1.160  55.028  1.00  0.00     0.271 C 
HETATM   27  N3  UNL     1      21.421  -1.572  54.859  1.00  0.00    -0.263 NA
HETATM   28  C22 UNL     1      20.328  -1.463  54.235  1.00  0.00     0.229 C 
HETATM   29  N4  UNL     1      19.895  -0.640  53.139  1.00  0.00    -0.242 NA
HETATM   30  H21 UNL     1      24.149   0.200  54.282  1.00  0.00     0.161 HD
ENDROOT
BRANCH   1  31
HETATM   31  O1  UNL     1      18.821   2.044  49.607  1.00  0.00    -0.353 OA
HETATM   32  C1  UNL     1      17.747   2.667  50.271  1.00  0.00     0.210 C 
ENDBRANCH   1  31
TORSDOF 1
ENDMDL
MODEL 4
REMARK VINA RESULT:      -9.3      2.934      5.835
REMARK  1 active torsions:
REMARK  status: ('A' for Active; 'I' for Inactive)
REMARK    1  A    between atoms: O1_2  and  C2_3 
ROOT
HETATM    1  C2  UNL     1      22.137   4.665  50.818  1.00  0.00     0.103 A 
HETATM    2  C3  UNL     1      23.491   4.428  50.720  1.00  0.00     0.072 A 
HETATM    3  C4  UNL     1      24.202   3.403  51.246  1.00  0.00     0.073 A 
HETATM    4  C5  UNL     1      23.550   2.450  51.980  1.00  0.00     0.020 A 
HETATM    5  C6  UNL     1      22.175   2.622  52.130  1.00  0.00     0.055 A 
HETATM    6  C7  UNL     1      21.516   3.689  51.563  1.00  0.00     0.103 A 
HETATM    7  O2  UNL     1      20.115   3.923  51.657  1.00  0.00    -0.348 OA
HETATM    8  C8  UNL     1      19.416   3.572  50.419  1.00  0.00     0.177 C 
HETATM    9  C9  UNL     1      17.954   3.774  50.593  1.00  0.00     0.046 C 
HETATM   10  C10 UNL     1      17.441   2.815  51.669  1.00  0.00     0.125 C 
HETATM   11  N1  UNL     1      17.645   1.454  51.134  1.00  0.00    -0.381 N 
HETATM   12  C11 UNL     1      17.958   0.781  49.883  1.00  0.00     0.149 C 
HETATM   13  C12 UNL     1      16.848  -0.246  49.661  1.00  0.00     0.187 C 
HETATM   14  O3  UNL     1      15.732   0.055  50.445  1.00  0.00    -0.384 OA
HETATM   15  C13 UNL     1      16.026   0.249  51.779  1.00  0.00     0.224 C 
HETATM   16  C14 UNL     1      17.494   0.308  52.027  1.00  0.00     0.028 C 
HETATM   17  C15 UNL     1      18.204  -0.507  52.855  1.00  0.00     0.009 C 
HETATM   18  C16 UNL     1      19.663  -0.151  52.924  1.00  0.00     0.153 C 
HETATM   19  C17 UNL     1      20.486  -0.908  53.737  1.00  0.00     0.125 C 
HETATM   20  F1  UNL     1      20.718  -1.975  54.649  1.00  0.00    -0.242 F 
HETATM   21  C18 UNL     1      21.866  -0.382  53.583  1.00  0.00     0.033 A 
HETATM   22 CL1  UNL     1      23.249  -0.977  54.553  1.00  0.00    -0.171 Cl
HETATM   23  C19 UNL     1      23.056   0.136  53.393  1.00  0.00     0.163 A 
HETATM   24  C20 UNL     1      23.689   1.230  52.583  1.00  0.00     0.042 C 
HETATM   25  N2  UNL     1      24.913   0.450  52.378  1.00  0.00    -0.373 N 
HETATM   26  C21 UNL     1      26.334   0.427  52.110  1.00  0.00     0.271 C 
HETATM   27  N3  UNL     1      26.859   1.644  51.632  1.00  0.00    -0.263 NA
HETATM   28  C22 UNL     1      26.654   2.809  51.188  1.00  0.00     0.229 C 
HETATM   29  N4  UNL     1      25.463   3.566  50.918  1.00  0.00    -0.242 NA
HETATM   30  H21 UNL     1      24.521  -0.541  52.453  1.00  0.00     0.161 HD
ENDROOT
BRANCH   1  31
HETATM   31  O1  UNL     1      21.520   5.758  50.226  1.00  0.00    -0.353 OA
HETATM   32  C1  UNL     1      21.717   7.023  50.813  1.00  0.00     0.210 C 
ENDBRANCH   1  31
TORSDOF 1
ENDMDL
MODEL 5
REMARK VINA RESULT:      -8.7      1.689      2.306
REMARK  1 active torsions:
REMARK  status: ('A' for Active; 'I' for Inactive)
REMARK    1  A    between atoms: O1_2  and  C2_3 
ROOT
HETATM    1  C2  UNL     1      21.372   0.647  51.472  1.00  0.00     0.103 A 
HETATM    2  C3  UNL     1      22.315   0.271  52.404  1.00  0.00     0.072 A 
HETATM    3  C4  UNL     1      23.594   0.699  52.521  1.00  0.00     0.073 A 
HETATM    4  C5  UNL     1      24.070   1.622  51.629  1.00  0.00     0.020 A 
HETATM    5  C6  UNL     1      23.175   2.050  50.651  1.00  0.00     0.055 A 
HETATM    6  C7  UNL     1      21.886   1.573  50.594  1.00  0.00     0.103 A 
HETATM    7  O2  UNL     1      20.911   1.975  49.637  1.00  0.00    -0.348 OA
HETATM    8  C8  UNL     1      19.932   2.902  50.208  1.00  0.00     0.177 C 
HETATM    9  C9  UNL     1      18.980   3.339  49.154  1.00  0.00     0.046 C 
HETATM   10  C10 UNL     1      19.743   4.118  48.081  1.00  0.00     0.125 C 
HETATM   11  N1  UNL     1      20.260   5.330  48.747  1.00  0.00    -0.381 N 
HETATM   12  C11 UNL     1      20.094   6.084  49.979  1.00  0.00     0.149 C 
HETATM   13  C12 UNL     1      19.767   7.518  49.561  1.00  0.00     0.187 C 
HETATM   14  O3  UNL     1      19.335   7.559  48.233  1.00  0.00    -0.384 OA
HETATM   15  C13 UNL     1      20.185   6.923  47.352  1.00  0.00     0.224 C 
HETATM   16  C14 UNL     1      21.249   6.154  48.057  1.00  0.00     0.028 C 
HETATM   17  C15 UNL     1      22.593   6.325  47.917  1.00  0.00     0.009 C 
HETATM   18  C16 UNL     1      23.399   5.350  48.730  1.00  0.00     0.153 C 
HETATM   19  C17 UNL     1      24.778   5.426  48.667  1.00  0.00     0.125 C 
HETATM   20  F1  UNL     1      25.987   6.006  48.190  1.00  0.00    -0.242 F 
HETATM   21  C18 UNL     1      25.320   4.397  49.590  1.00  0.00     0.033 A 
HETATM   22 CL1  UNL     1      27.070   4.043  49.734  1.00  0.00    -0.171 Cl
HETATM   23  C19 UNL     1      25.723   3.469  50.425  1.00  0.00     0.163 A 
HETATM   24  C20 UNL     1      25.120   2.453  51.351  1.00  0.00     0.042 C 
HETATM   25  N2  UNL     1      26.193   2.628  52.334  1.00  0.00    -0.373 N 
HETATM   26  C21 UNL     1      26.975   2.080  53.422  1.00  0.00     0.271 C 
HETATM   27  N3  UNL     1      26.429   0.923  54.011  1.00  0.00    -0.263 NA
HETATM   28  C22 UNL     1      25.454   0.127  54.129  1.00  0.00     0.229 C 
HETATM   29  N4  UNL     1      24.144   0.079  53.539  1.00  0.00    -0.242 NA
HETATM   30  H21 UNL     1      26.483   3.633  52.124  1.00  0.00     0.161 HD
ENDROOT
BRANCH   1  31
HETATM   31  O1  UNL     1      20.081   0.136  51.459  1.00  0.00    -0.353 OA
HETATM   32  C1  UNL     1      19.437  -0.053  52.697  1.00  0.00     0.210 C 
ENDBRANCH   1  31
TORSDOF 1
ENDMDL
MODEL 6
REMARK VINA RESULT:      -8.3      5.214      8.217
REMARK  1 active torsions:
REMARK  status: ('A' for Active; 'I' for Inactive)
REMARK    1  A    between atoms: O1_2  and  C2_3 
ROOT
HETATM    1  C2  UNL     1      22.571   8.774  48.974  1.00  0.00     0.103 A 
HETATM    2  C3  UNL     1      22.070   7.910  49.923  1.00  0.00     0.072 A 
HETATM    3  C4  UNL     1      22.606   6.747  50.363  1.00  0.00     0.073 A 
HETATM    4  C5  UNL     1      23.795   6.321  49.835  1.00  0.00     0.020 A 
HETATM    5  C6  UNL     1      24.365   7.141  48.863  1.00  0.00     0.055 A 
HETATM    6  C7  UNL     1      23.764   8.314  48.466  1.00  0.00     0.103 A 
HETATM    7  O2  UNL     1      24.292   9.210  47.494  1.00  0.00    -0.348 OA
HETATM    8  C8  UNL     1      24.890  10.397  48.110  1.00  0.00     0.177 C 
HETATM    9  C9  UNL     1      25.481  11.264  47.058  1.00  0.00     0.046 C 
HETATM   10  C10 UNL     1      26.621  10.511  46.370  1.00  0.00     0.125 C 
HETATM   11  N1  UNL     1      27.652  10.295  47.404  1.00  0.00    -0.381 N 
HETATM   12  C11 UNL     1      28.001  10.743  48.742  1.00  0.00     0.149 C 
HETATM   13  C12 UNL     1      29.442  11.250  48.661  1.00  0.00     0.187 C 
HETATM   14  O3  UNL     1      29.800  11.508  47.335  1.00  0.00    -0.384 OA
HETATM   15  C13 UNL     1      29.550  10.455  46.478  1.00  0.00     0.224 C 
HETATM   16  C14 UNL     1      28.755   9.377  47.130  1.00  0.00     0.028 C 
HETATM   17  C15 UNL     1      29.127   8.075  47.270  1.00  0.00     0.009 C 
HETATM   18  C16 UNL     1      28.073   7.229  47.929  1.00  0.00     0.153 C 
HETATM   19  C17 UNL     1      28.336   5.886  48.123  1.00  0.00     0.125 C 
HETATM   20  F1  UNL     1      29.175   4.740  48.026  1.00  0.00    -0.242 F 
HETATM   21  C18 UNL     1      27.167   5.302  48.827  1.00  0.00     0.033 A 
HETATM   22 CL1  UNL     1      27.010   3.551  49.171  1.00  0.00    -0.171 Cl
HETATM   23  C19 UNL     1      26.100   4.861  49.450  1.00  0.00     0.163 A 
HETATM   24  C20 UNL     1      24.796   5.399  49.965  1.00  0.00     0.042 C 
HETATM   25  N2  UNL     1      24.821   4.507  51.127  1.00  0.00    -0.373 N 
HETATM   26  C21 UNL     1      24.093   3.791  52.153  1.00  0.00     0.271 C 
HETATM   27  N3  UNL     1      22.757   4.207  52.320  1.00  0.00    -0.263 NA
HETATM   28  C22 UNL     1      21.844   5.041  52.061  1.00  0.00     0.229 C 
HETATM   29  N4  UNL     1      21.798   6.236  51.264  1.00  0.00    -0.242 NA
HETATM   30  H21 UNL     1      25.873   4.366  51.236  1.00  0.00     0.161 HD
ENDROOT
BRANCH   1  31
HETATM   31  O1  UNL     1      21.925   9.947  48.609  1.00  0.00    -0.353 OA
HETATM   32  C1  UNL     1      20.562  10.077  48.940  1.00  0.00     0.210 C 
ENDBRANCH   1  31
TORSDOF 1
ENDMDL
MODEL 7
REMARK VINA RESULT:      -8.2      2.924      4.898
REMARK  1 active torsions:
REMARK  status: ('A' for Active; 'I' for Inactive)
REMARK    1  A    between atoms: O1_2  and  C2_3 
ROOT
HETATM    1  C2  UNL     1      18.658   2.425  48.910  1.00  0.00     0.103 A 
HETATM    2  C3  UNL     1      17.790   1.679  49.679  1.00  0.00     0.072 A 
HETATM    3  C4  UNL     1      18.087   0.822  50.684  1.00  0.00     0.073 A 
HETATM    4  C5  UNL     1      19.398   0.628  51.026  1.00  0.00     0.020 A 
HETATM    5  C6  UNL     1      20.339   1.346  50.290  1.00  0.00     0.055 A 
HETATM    6  C7  UNL     1      19.964   2.204  49.282  1.00  0.00     0.103 A 
HETATM    7  O2  UNL     1      20.863   2.982  48.500  1.00  0.00    -0.348 OA
HETATM    8  C8  UNL     1      20.872   4.388  48.911  1.00  0.00     0.177 C 
HETATM    9  C9  UNL     1      21.872   5.139  48.108  1.00  0.00     0.046 C 
HETATM   10  C10 UNL     1      23.268   4.590  48.405  1.00  0.00     0.125 C 
HETATM   11  N1  UNL     1      23.528   4.881  49.829  1.00  0.00    -0.381 N 
HETATM   12  C11 UNL     1      22.992   5.679  50.920  1.00  0.00     0.149 C 
HETATM   13  C12 UNL     1      24.156   6.523  51.442  1.00  0.00     0.187 C 
HETATM   14  O3  UNL     1      25.186   6.581  50.501  1.00  0.00    -0.384 OA
HETATM   15  C13 UNL     1      25.585   5.344  50.037  1.00  0.00     0.224 C 
HETATM   16  C14 UNL     1      24.672   4.255  50.487  1.00  0.00     0.028 C 
HETATM   17  C15 UNL     1      25.023   3.160  51.216  1.00  0.00     0.009 C 
HETATM   18  C16 UNL     1      23.874   2.222  51.460  1.00  0.00     0.153 C 
HETATM   19  C17 UNL     1      24.110   1.071  52.188  1.00  0.00     0.125 C 
HETATM   20  F1  UNL     1      24.961   0.197  52.923  1.00  0.00    -0.242 F 
HETATM   21  C18 UNL     1      22.814   0.358  52.323  1.00  0.00     0.033 A 
HETATM   22 CL1  UNL     1      22.665  -1.257  53.083  1.00  0.00    -0.171 Cl
HETATM   23  C19 UNL     1      21.635  -0.210  52.401  1.00  0.00     0.163 A 
HETATM   24  C20 UNL     1      20.227   0.056  51.951  1.00  0.00     0.042 C 
HETATM   25  N2  UNL     1      19.666  -0.530  53.172  1.00  0.00    -0.373 N 
HETATM   26  C21 UNL     1      18.555  -1.181  53.833  1.00  0.00     0.271 C 
HETATM   27  N3  UNL     1      17.334  -1.112  53.133  1.00  0.00    -0.263 NA
HETATM   28  C22 UNL     1      16.661  -0.627  52.180  1.00  0.00     0.229 C 
HETATM   29  N4  UNL     1      16.964   0.317  51.139  1.00  0.00    -0.242 NA
HETATM   30  H21 UNL     1      20.469  -0.359  53.853  1.00  0.00     0.161 HD
ENDROOT
BRANCH   1  31
HETATM   31  O1  UNL     1      18.227   3.278  47.904  1.00  0.00    -0.353 OA
HETATM   32  C1  UNL     1      17.227   4.217  48.221  1.00  0.00     0.210 C 
ENDBRANCH   1  31
TORSDOF 1
ENDMDL
MODEL 8
REMARK VINA RESULT:      -8.1      6.215      9.697
REMARK  1 active torsions:
REMARK  status: ('A' for Active; 'I' for Inactive)
REMARK    1  A    between atoms: O1_2  and  C2_3 
ROOT
HETATM    1  C2  UNL     1      24.342  10.000  47.174  1.00  0.00     0.103 A 
HETATM    2  C3  UNL     1      23.196   9.858  47.926  1.00  0.00     0.072 A 
HETATM    3  C4  UNL     1      22.787   8.780  48.635  1.00  0.00     0.073 A 
HETATM    4  C5  UNL     1      23.568   7.656  48.645  1.00  0.00     0.020 A 
HETATM    5  C6  UNL     1      24.746   7.719  47.903  1.00  0.00     0.055 A 
HETATM    6  C7  UNL     1      25.100   8.852  47.207  1.00  0.00     0.103 A 
HETATM    7  O2  UNL     1      26.292   8.997  46.442  1.00  0.00    -0.348 OA
HETATM    8  C8  UNL     1      27.295   9.807  47.138  1.00  0.00     0.177 C 
HETATM    9  C9  UNL     1      28.538   9.872  46.326  1.00  0.00     0.046 C 
HETATM   10  C10 UNL     1      29.127   8.466  46.198  1.00  0.00     0.125 C 
HETATM   11  N1  UNL     1      29.505   8.054  47.564  1.00  0.00    -0.381 N 
HETATM   12  C11 UNL     1      29.688   8.622  48.890  1.00  0.00     0.149 C 
HETATM   13  C12 UNL     1      31.102   8.238  49.328  1.00  0.00     0.187 C 
HETATM   14  O3  UNL     1      31.874   7.861  48.227  1.00  0.00    -0.384 OA
HETATM   15  C13 UNL     1      31.279   6.903  47.432  1.00  0.00     0.224 C 
HETATM   16  C14 UNL     1      29.859   6.660  47.816  1.00  0.00     0.028 C 
HETATM   17  C15 UNL     1      29.322   5.469  48.199  1.00  0.00     0.009 C 
HETATM   18  C16 UNL     1      27.845   5.549  48.468  1.00  0.00     0.153 C 
HETATM   19  C17 UNL     1      27.186   4.399  48.863  1.00  0.00     0.125 C 
HETATM   20  F1  UNL     1      27.157   3.015  49.194  1.00  0.00    -0.242 F 
HETATM   21  C18 UNL     1      25.768   4.763  49.107  1.00  0.00     0.033 A 
HETATM   22 CL1  UNL     1      24.508   3.555  49.511  1.00  0.00    -0.171 Cl
HETATM   23  C19 UNL     1      24.533   5.161  49.305  1.00  0.00     0.163 A 
HETATM   24  C20 UNL     1      23.737   6.431  49.229  1.00  0.00     0.042 C 
HETATM   25  N2  UNL     1      22.916   6.052  50.383  1.00  0.00    -0.373 N 
HETATM   26  C21 UNL     1      21.667   6.172  51.104  1.00  0.00     0.271 C 
HETATM   27  N3  UNL     1      20.864   7.260  50.707  1.00  0.00    -0.263 NA
HETATM   28  C22 UNL     1      20.743   8.329  50.046  1.00  0.00     0.229 C 
HETATM   29  N4  UNL     1      21.635   9.069  49.195  1.00  0.00    -0.242 NA
HETATM   30  H21 UNL     1      23.597   5.415  50.901  1.00  0.00     0.161 HD
ENDROOT
BRANCH   1  31
HETATM   31  O1  UNL     1      24.654  11.167  46.490  1.00  0.00    -0.353 OA
HETATM   32  C1  UNL     1      24.595  12.381  47.202  1.00  0.00     0.210 C 
ENDBRANCH   1  31
TORSDOF 1
ENDMDL
MODEL 9
REMARK VINA RESULT:      -7.9      3.316      5.334
REMARK  1 active torsions:
REMARK  status: ('A' for Active; 'I' for Inactive)
REMARK    1  A    between atoms: O1_2  and  C2_3 
ROOT
HETATM    1  C2  UNL     1      21.977   0.059  52.378  1.00  0.00     0.103 A 
HETATM    2  C3  UNL     1      23.218   0.658  52.390  1.00  0.00     0.072 A 
HETATM    3  C4  UNL     1      23.738   1.527  51.492  1.00  0.00     0.073 A 
HETATM    4  C5  UNL     1      22.984   1.896  50.411  1.00  0.00     0.020 A 
HETATM    5  C6  UNL     1      21.714   1.328  50.325  1.00  0.00     0.055 A 
HETATM    6  C7  UNL     1      21.249   0.452  51.279  1.00  0.00     0.103 A 
HETATM    7  O2  UNL     1      19.961  -0.154  51.268  1.00  0.00    -0.348 OA
HETATM    8  C8  UNL     1      19.051   0.475  52.229  1.00  0.00     0.177 C 
HETATM    9  C9  UNL     1      17.707  -0.151  52.130  1.00  0.00     0.046 C 
HETATM   10  C10 UNL     1      17.128   0.121  50.740  1.00  0.00     0.125 C 
HETATM   11  N1  UNL     1      16.949   1.584  50.651  1.00  0.00    -0.381 N 
HETATM   12  C11 UNL     1      16.942   2.761  51.504  1.00  0.00     0.149 C 
HETATM   13  C12 UNL     1      15.608   3.465  51.250  1.00  0.00     0.187 C 
HETATM   14  O3  UNL     1      14.697   2.594  50.649  1.00  0.00    -0.384 OA
HETATM   15  C13 UNL     1      15.192   1.959  49.527  1.00  0.00     0.224 C 
HETATM   16  C14 UNL     1      16.655   2.187  49.354  1.00  0.00     0.028 C 
HETATM   17  C15 UNL     1      17.258   2.749  48.271  1.00  0.00     0.009 C 
HETATM   18  C16 UNL     1      18.757   2.787  48.386  1.00  0.00     0.153 C 
HETATM   19  C17 UNL     1      19.482   3.334  47.343  1.00  0.00     0.125 C 
HETATM   20  F1  UNL     1      19.578   3.960  46.068  1.00  0.00    -0.242 F 
HETATM   21  C18 UNL     1      20.915   3.293  47.730  1.00  0.00     0.033 A 
HETATM   22 CL1  UNL     1      22.237   3.779  46.623  1.00  0.00    -0.171 Cl
HETATM   23  C19 UNL     1      22.158   3.224  48.142  1.00  0.00     0.163 A 
HETATM   24  C20 UNL     1      22.916   2.757  49.351  1.00  0.00     0.042 C 
HETATM   25  N2  UNL     1      23.895   3.841  49.227  1.00  0.00    -0.373 N 
HETATM   26  C21 UNL     1      25.229   4.338  49.485  1.00  0.00     0.271 C 
HETATM   27  N3  UNL     1      25.953   3.601  50.444  1.00  0.00    -0.263 NA
HETATM   28  C22 UNL     1      25.964   2.706  51.336  1.00  0.00     0.229 C 
HETATM   29  N4  UNL     1      24.952   1.843  51.880  1.00  0.00    -0.242 NA
HETATM   30  H21 UNL     1      23.301   4.578  48.733  1.00  0.00     0.161 HD
ENDROOT
BRANCH   1  31
HETATM   31  O1  UNL     1      21.555  -0.819  53.367  1.00  0.00    -0.353 OA
HETATM   32  C1  UNL     1      21.722  -0.426  54.709  1.00  0.00     0.210 C 
ENDBRANCH   1  31
TORSDOF 1
ENDMDL
