MODEL 1
REMARK VINA RESULT:      -8.2      0.000      0.000
REMARK  3 active torsions:
REMARK  status: ('A' for Active; 'I' for Inactive)
REMARK    1  A    between atoms: C1_2  and  C2_3 
REMARK    2  A    between atoms: C4_5  and  N1_6 
REMARK    3  A    between atoms: N1_6  and  C5_7 
ROOT
HETATM    1  C2  UNL     1      26.649  -0.425  53.732  1.00  0.00     0.168 A 
HETATM    2  C3  UNL     1      26.170   0.476  52.661  1.00  0.00     0.035 A 
HETATM    3  C4  UNL     1      24.877   0.755  52.468  1.00  0.00     0.043 A 
HETATM    4  C11 UNL     1      23.873   0.164  53.336  1.00  0.00     0.017 A 
HETATM    5  C12 UNL     1      22.583   0.536  53.030  1.00  0.00     0.016 A 
HETATM    6  C13 UNL     1      21.556   0.029  53.796  1.00  0.00     0.001 A 
HETATM    7  C14 UNL     1      21.880  -0.831  54.836  1.00  0.00     0.002 A 
HETATM    8  C15 UNL     1      23.185  -1.191  55.128  1.00  0.00     0.030 A 
HETATM    9  C16 UNL     1      24.212  -0.683  54.360  1.00  0.00     0.041 A 
HETATM   10  N2  UNL     1      25.593  -0.954  54.530  1.00  0.00    -0.375 N 
HETATM   11  H13 UNL     1      25.860  -1.594  55.305  1.00  0.00     0.160 HD
ENDROOT
BRANCH   3  12
HETATM   12  N1  UNL     1      24.745   1.641  51.377  1.00  0.00    -0.356 N 
HETATM   13  H4  UNL     1      24.116   1.298  50.591  1.00  0.00     0.166 HD
BRANCH  12  14
HETATM   14  C5  UNL     1      25.099   2.873  50.813  1.00  0.00     0.034 A 
HETATM   15  C6  UNL     1      24.172   3.861  51.164  1.00  0.00     0.029 A 
HETATM   16  C7  UNL     1      24.319   5.178  50.717  1.00  0.00     0.004 A 
HETATM   17  C8  UNL     1      25.420   5.417  49.924  1.00  0.00     0.024 A 
HETATM   18  C9  UNL     1      26.348   4.469  49.561  1.00  0.00     0.036 A 
HETATM   19 CL1  UNL     1      27.735   4.816  48.549  1.00  0.00    -0.084 Cl
HETATM   20  C10 UNL     1      26.180   3.179  50.016  1.00  0.00     0.053 A 
ENDBRANCH  12  14
ENDBRANCH   3  12
BRANCH   1  21
HETATM   21  C1  UNL     1      27.662   0.264  54.598  1.00  0.00     0.260 C 
HETATM   22  O1  UNL     1      28.550  -0.497  54.934  1.00  0.00    -0.304 OA
ENDBRANCH   1  21
TORSDOF 3
ENDMDL
MODEL 2
REMARK VINA RESULT:      -8.0      3.299      4.906
REMARK  3 active torsions:
REMARK  status: ('A' for Active; 'I' for Inactive)
REMARK    1  A    between atoms: C1_2  and  C2_3 
REMARK    2  A    between atoms: C4_5  and  N1_6 
REMARK    3  A    between atoms: N1_6  and  C5_7 
ROOT
HETATM    1  C2  UNL     1      22.587   2.796  51.308  1.00  0.00     0.168 A 
HETATM    2  C3  UNL     1      23.921   2.162  51.411  1.00  0.00     0.035 A 
HETATM    3  C4  UNL     1      24.177   1.131  52.222  1.00  0.00     0.043 A 
HETATM    4  C11 UNL     1      23.118   0.584  53.051  1.00  0.00     0.017 A 
HETATM    5  C12 UNL     1      23.516  -0.474  53.836  1.00  0.00     0.016 A 
HETATM    6  C13 UNL     1      22.582  -1.066  54.660  1.00  0.00     0.001 A 
HETATM    7  C14 UNL     1      21.290  -0.560  54.652  1.00  0.00     0.002 A 
HETATM    8  C15 UNL     1      20.911   0.505  53.853  1.00  0.00     0.030 A 
HETATM    9  C16 UNL     1      21.846   1.096  53.029  1.00  0.00     0.041 A 
HETATM   10  N2  UNL     1      21.615   2.190  52.157  1.00  0.00    -0.375 N 
HETATM   11  H13 UNL     1      20.654   2.584  52.132  1.00  0.00     0.160 HD
ENDROOT
BRANCH   3  12
HETATM   12  N1  UNL     1      25.532   0.757  52.091  1.00  0.00    -0.356 N 
HETATM   13  H4  UNL     1      25.775   0.248  51.189  1.00  0.00     0.166 HD
BRANCH  12  14
HETATM   14  C5  UNL     1      26.812   0.753  52.660  1.00  0.00     0.034 A 
HETATM   15  C6  UNL     1      27.207   2.053  52.995  1.00  0.00     0.029 A 
HETATM   16  C7  UNL     1      28.452   2.298  53.582  1.00  0.00     0.004 A 
HETATM   17  C8  UNL     1      29.237   1.187  53.797  1.00  0.00     0.024 A 
HETATM   18  C9  UNL     1      28.879  -0.102  53.479  1.00  0.00     0.036 A 
HETATM   19 CL1  UNL     1      29.909  -1.488  53.770  1.00  0.00    -0.084 Cl
HETATM   20  C10 UNL     1      27.646  -0.315  52.903  1.00  0.00     0.053 A 
ENDBRANCH  12  14
ENDBRANCH   3  12
BRANCH   1  21
HETATM   21  C1  UNL     1      22.107   2.803  49.887  1.00  0.00     0.260 C 
HETATM   22  O1  UNL     1      22.523   1.839  49.273  1.00  0.00    -0.304 OA
ENDBRANCH   1  21
TORSDOF 3
ENDMDL
MODEL 3
REMARK VINA RESULT:      -7.8      3.006      4.950
REMARK  3 active torsions:
REMARK  status: ('A' for Active; 'I' for Inactive)
REMARK    1  A    between atoms: C1_2  and  C2_3 
REMARK    2  A    between atoms: C4_5  and  N1_6 
REMARK    3  A    between atoms: N1_6  and  C5_7 
ROOT
HETATM    1  C2  UNL     1      22.072  -0.446  53.489  1.00  0.00     0.168 A 
HETATM    2  C3  UNL     1      23.477  -0.249  53.067  1.00  0.00     0.035 A 
HETATM    3  C4  UNL     1      23.915   0.878  52.498  1.00  0.00     0.043 A 
HETATM    4  C11 UNL     1      22.994   1.979  52.272  1.00  0.00     0.017 A 
HETATM    5  C12 UNL     1      23.575   3.078  51.681  1.00  0.00     0.016 A 
HETATM    6  C13 UNL     1      22.784   4.178  51.425  1.00  0.00     0.001 A 
HETATM    7  C14 UNL     1      21.444   4.115  51.778  1.00  0.00     0.002 A 
HETATM    8  C15 UNL     1      20.880   2.999  52.373  1.00  0.00     0.030 A 
HETATM    9  C16 UNL     1      21.673   1.899  52.628  1.00  0.00     0.041 A 
HETATM   10  N2  UNL     1      21.247   0.687  53.228  1.00  0.00    -0.375 N 
HETATM   11  H13 UNL     1      20.248   0.617  53.503  1.00  0.00     0.160 HD
ENDROOT
BRANCH   3  12
HETATM   12  N1  UNL     1      25.293   0.756  52.215  1.00  0.00    -0.356 N 
HETATM   13  H4  UNL     1      25.531   0.588  51.192  1.00  0.00     0.166 HD
BRANCH  12  14
HETATM   14  C5  UNL     1      26.601   0.760  52.715  1.00  0.00     0.034 A 
HETATM   15  C6  UNL     1      27.014   2.064  53.010  1.00  0.00     0.029 A 
HETATM   16  C7  UNL     1      28.289   2.315  53.525  1.00  0.00     0.004 A 
HETATM   17  C8  UNL     1      29.084   1.206  53.714  1.00  0.00     0.024 A 
HETATM   18  C9  UNL     1      28.708  -0.087  53.435  1.00  0.00     0.036 A 
HETATM   19 CL1  UNL     1      29.752  -1.470  53.690  1.00  0.00    -0.084 Cl
HETATM   20  C10 UNL     1      27.446  -0.307  52.929  1.00  0.00     0.053 A 
ENDBRANCH  12  14
ENDBRANCH   3  12
BRANCH   1  21
HETATM   21  C1  UNL     1      21.997  -0.823  54.939  1.00  0.00     0.260 C 
HETATM   22  O1  UNL     1      21.915  -2.029  55.080  1.00  0.00    -0.304 OA
ENDBRANCH   1  21
TORSDOF 3
ENDMDL
MODEL 4
REMARK VINA RESULT:      -7.8      1.242      1.635
REMARK  3 active torsions:
REMARK  status: ('A' for Active; 'I' for Inactive)
REMARK    1  A    between atoms: C1_2  and  C2_3 
REMARK    2  A    between atoms: C4_5  and  N1_6 
REMARK    3  A    between atoms: N1_6  and  C5_7 
ROOT
HETATM    1  C2  UNL     1      26.385  -0.318  53.235  1.00  0.00     0.168 A 
HETATM    2  C3  UNL     1      25.914   0.693  52.263  1.00  0.00     0.035 A 
HETATM    3  C4  UNL     1      24.635   1.067  52.162  1.00  0.00     0.043 A 
HETATM    4  C11 UNL     1      23.638   0.473  53.037  1.00  0.00     0.017 A 
HETATM    5  C12 UNL     1      22.362   0.948  52.830  1.00  0.00     0.016 A 
HETATM    6  C13 UNL     1      21.343   0.447  53.611  1.00  0.00     0.001 A 
HETATM    7  C14 UNL     1      21.660  -0.510  54.564  1.00  0.00     0.002 A 
HETATM    8  C15 UNL     1      22.950  -0.973  54.755  1.00  0.00     0.030 A 
HETATM    9  C16 UNL     1      23.970  -0.471  53.973  1.00  0.00     0.041 A 
HETATM   10  N2  UNL     1      25.337  -0.841  54.047  1.00  0.00    -0.375 N 
HETATM   11  H13 UNL     1      25.598  -1.555  54.756  1.00  0.00     0.160 HD
ENDROOT
BRANCH   3  12
HETATM   12  N1  UNL     1      24.509   2.042  51.149  1.00  0.00    -0.356 N 
HETATM   13  H4  UNL     1      23.898   1.760  50.325  1.00  0.00     0.166 HD
BRANCH  12  14
HETATM   14  C5  UNL     1      24.852   3.324  50.701  1.00  0.00     0.034 A 
HETATM   15  C6  UNL     1      25.925   3.263  49.805  1.00  0.00     0.029 A 
HETATM   16  C7  UNL     1      26.444   4.423  49.223  1.00  0.00     0.004 A 
HETATM   17  C8  UNL     1      25.830   5.600  49.594  1.00  0.00     0.024 A 
HETATM   18  C9  UNL     1      24.776   5.693  50.472  1.00  0.00     0.036 A 
HETATM   19 CL1  UNL     1      24.024   7.212  50.917  1.00  0.00    -0.084 Cl
HETATM   20  C10 UNL     1      24.283   4.534  51.030  1.00  0.00     0.053 A 
ENDBRANCH  12  14
ENDBRANCH   3  12
BRANCH   1  21
HETATM   21  C1  UNL     1      27.483   0.236  54.094  1.00  0.00     0.260 C 
HETATM   22  O1  UNL     1      27.721  -0.496  55.036  1.00  0.00    -0.304 OA
ENDBRANCH   1  21
TORSDOF 3
ENDMDL
MODEL 5
REMARK VINA RESULT:      -7.6      3.097      6.047
REMARK  3 active torsions:
REMARK  status: ('A' for Active; 'I' for Inactive)
REMARK    1  A    between atoms: C1_2  and  C2_3 
REMARK    2  A    between atoms: C4_5  and  N1_6 
REMARK    3  A    between atoms: N1_6  and  C5_7 
ROOT
HETATM    1  C2  UNL     1      25.658   2.790  50.953  1.00  0.00     0.168 A 
HETATM    2  C3  UNL     1      24.817   1.717  51.529  1.00  0.00     0.035 A 
HETATM    3  C4  UNL     1      25.217   0.942  52.542  1.00  0.00     0.043 A 
HETATM    4  C11 UNL     1      26.532   1.140  53.127  1.00  0.00     0.017 A 
HETATM    5  C12 UNL     1      26.817   0.277  54.162  1.00  0.00     0.016 A 
HETATM    6  C13 UNL     1      28.041   0.384  54.785  1.00  0.00     0.001 A 
HETATM    7  C14 UNL     1      28.921   1.358  54.334  1.00  0.00     0.002 A 
HETATM    8  C15 UNL     1      28.614   2.216  53.292  1.00  0.00     0.030 A 
HETATM    9  C16 UNL     1      27.388   2.107  52.668  1.00  0.00     0.041 A 
HETATM   10  N2  UNL     1      26.927   2.908  51.592  1.00  0.00    -0.375 N 
HETATM   11  H13 UNL     1      27.569   3.645  51.239  1.00  0.00     0.160 HD
ENDROOT
BRANCH   3  12
HETATM   12  N1  UNL     1      24.195   0.021  52.861  1.00  0.00    -0.356 N 
HETATM   13  H4  UNL     1      24.526  -0.971  53.053  1.00  0.00     0.166 HD
BRANCH  12  14
HETATM   14  C5  UNL     1      22.825  -0.193  53.056  1.00  0.00     0.034 A 
HETATM   15  C6  UNL     1      22.594  -0.817  54.288  1.00  0.00     0.029 A 
HETATM   16  C7  UNL     1      21.296  -1.131  54.703  1.00  0.00     0.004 A 
HETATM   17  C8  UNL     1      20.292  -0.787  53.825  1.00  0.00     0.024 A 
HETATM   18  C9  UNL     1      20.486  -0.175  52.609  1.00  0.00     0.036 A 
HETATM   19 CL1  UNL     1      19.178   0.245  51.522  1.00  0.00    -0.084 Cl
HETATM   20  C10 UNL     1      21.775   0.125  52.225  1.00  0.00     0.053 A 
ENDBRANCH  12  14
ENDBRANCH   3  12
BRANCH   1  21
HETATM   21  C1  UNL     1      24.939   4.105  50.977  1.00  0.00     0.260 C 
HETATM   22  O1  UNL     1      24.069   4.120  51.828  1.00  0.00    -0.304 OA
ENDBRANCH   1  21
TORSDOF 3
ENDMDL
MODEL 6
REMARK VINA RESULT:      -7.5      2.902      5.817
REMARK  3 active torsions:
REMARK  status: ('A' for Active; 'I' for Inactive)
REMARK    1  A    between atoms: C1_2  and  C2_3 
REMARK    2  A    between atoms: C4_5  and  N1_6 
REMARK    3  A    between atoms: N1_6  and  C5_7 
ROOT
HETATM    1  C2  UNL     1      27.028   1.264  53.362  1.00  0.00     0.168 A 
HETATM    2  C3  UNL     1      25.586   1.134  53.669  1.00  0.00     0.035 A 
HETATM    3  C4  UNL     1      24.625   1.606  52.868  1.00  0.00     0.043 A 
HETATM    4  C11 UNL     1      24.982   2.279  51.631  1.00  0.00     0.017 A 
HETATM    5  C12 UNL     1      23.899   2.714  50.901  1.00  0.00     0.016 A 
HETATM    6  C13 UNL     1      24.131   3.365  49.709  1.00  0.00     0.001 A 
HETATM    7  C14 UNL     1      25.448   3.547  49.310  1.00  0.00     0.002 A 
HETATM    8  C15 UNL     1      26.523   3.101  50.060  1.00  0.00     0.030 A 
HETATM    9  C16 UNL     1      26.289   2.450  51.253  1.00  0.00     0.041 A 
HETATM   10  N2  UNL     1      27.277   1.936  52.130  1.00  0.00    -0.375 N 
HETATM   11  H13 UNL     1      28.271   2.059  51.851  1.00  0.00     0.160 HD
ENDROOT
BRANCH   3  12
HETATM   12  N1  UNL     1      23.362   1.327  53.435  1.00  0.00    -0.356 N 
HETATM   13  H4  UNL     1      23.017   2.041  54.143  1.00  0.00     0.166 HD
BRANCH  12  14
HETATM   14  C5  UNL     1      22.264   0.460  53.488  1.00  0.00     0.034 A 
HETATM   15  C6  UNL     1      22.528  -0.621  54.336  1.00  0.00     0.029 A 
HETATM   16  C7  UNL     1      21.573  -1.620  54.548  1.00  0.00     0.004 A 
HETATM   17  C8  UNL     1      20.383  -1.458  53.873  1.00  0.00     0.024 A 
HETATM   18  C9  UNL     1      20.093  -0.409  53.032  1.00  0.00     0.036 A 
HETATM   19 CL1  UNL     1      18.565  -0.242  52.192  1.00  0.00    -0.084 Cl
HETATM   20  C10 UNL     1      21.052   0.562  52.842  1.00  0.00     0.053 A 
ENDBRANCH  12  14
ENDBRANCH   3  12
BRANCH   1  21
HETATM   21  C1  UNL     1      27.699  -0.078  53.369  1.00  0.00     0.260 C 
HETATM   22  O1  UNL     1      27.739  -0.548  54.491  1.00  0.00    -0.304 OA
ENDBRANCH   1  21
TORSDOF 3
ENDMDL
MODEL 7
REMARK VINA RESULT:      -7.5      3.568      6.777
REMARK  3 active torsions:
REMARK  status: ('A' for Active; 'I' for Inactive)
REMARK    1  A    between atoms: C1_2  and  C2_3 
REMARK    2  A    between atoms: C4_5  and  N1_6 
REMARK    3  A    between atoms: N1_6  and  C5_7 
ROOT
HETATM    1  C2  UNL     1      23.047   4.335  50.842  1.00  0.00     0.168 A 
HETATM    2  C3  UNL     1      23.998   3.232  51.105  1.00  0.00     0.035 A 
HETATM    3  C4  UNL     1      25.246   3.216  50.626  1.00  0.00     0.043 A 
HETATM    4  C11 UNL     1      25.721   4.320  49.809  1.00  0.00     0.017 A 
HETATM    5  C12 UNL     1      27.022   4.178  49.383  1.00  0.00     0.016 A 
HETATM    6  C13 UNL     1      27.567   5.174  48.601  1.00  0.00     0.001 A 
HETATM    7  C14 UNL     1      26.771   6.266  48.286  1.00  0.00     0.002 A 
HETATM    8  C15 UNL     1      25.464   6.389  48.726  1.00  0.00     0.030 A 
HETATM    9  C16 UNL     1      24.920   5.391  49.508  1.00  0.00     0.041 A 
HETATM   10  N2  UNL     1      23.603   5.370  50.034  1.00  0.00    -0.375 N 
HETATM   11  H13 UNL     1      22.990   6.179  49.813  1.00  0.00     0.160 HD
ENDROOT
BRANCH   3  12
HETATM   12  N1  UNL     1      25.897   2.037  51.050  1.00  0.00    -0.356 N 
HETATM   13  H4  UNL     1      25.696   1.174  50.463  1.00  0.00     0.166 HD
BRANCH  12  14
HETATM   14  C5  UNL     1      26.764   1.441  51.974  1.00  0.00     0.034 A 
HETATM   15  C6  UNL     1      26.594   0.052  51.987  1.00  0.00     0.029 A 
HETATM   16  C7  UNL     1      27.356  -0.759  52.833  1.00  0.00     0.004 A 
HETATM   17  C8  UNL     1      28.262  -0.099  53.632  1.00  0.00     0.024 A 
HETATM   18  C9  UNL     1      28.454   1.263  53.644  1.00  0.00     0.036 A 
HETATM   19 CL1  UNL     1      29.619   2.063  54.679  1.00  0.00    -0.084 Cl
HETATM   20  C10 UNL     1      27.690   2.039  52.800  1.00  0.00     0.053 A 
ENDBRANCH  12  14
ENDBRANCH   3  12
BRANCH   1  21
HETATM   21  C1  UNL     1      22.519   4.903  52.126  1.00  0.00     0.260 C 
HETATM   22  O1  UNL     1      23.370   4.900  52.996  1.00  0.00    -0.304 OA
ENDBRANCH   1  21
TORSDOF 3
ENDMDL
MODEL 8
REMARK VINA RESULT:      -7.3      2.473      3.805
REMARK  3 active torsions:
REMARK  status: ('A' for Active; 'I' for Inactive)
REMARK    1  A    between atoms: C1_2  and  C2_3 
REMARK    2  A    between atoms: C4_5  and  N1_6 
REMARK    3  A    between atoms: N1_6  and  C5_7 
ROOT
HETATM    1  C2  UNL     1      22.238   1.836  52.454  1.00  0.00     0.168 A 
HETATM    2  C3  UNL     1      22.985   2.447  51.333  1.00  0.00     0.035 A 
HETATM    3  C4  UNL     1      24.281   2.211  51.105  1.00  0.00     0.043 A 
HETATM    4  C11 UNL     1      25.016   1.315  51.981  1.00  0.00     0.017 A 
HETATM    5  C12 UNL     1      26.339   1.159  51.634  1.00  0.00     0.016 A 
HETATM    6  C13 UNL     1      27.124   0.326  52.403  1.00  0.00     0.001 A 
HETATM    7  C14 UNL     1      26.535  -0.309  53.487  1.00  0.00     0.002 A 
HETATM    8  C15 UNL     1      25.202  -0.138  53.818  1.00  0.00     0.030 A 
HETATM    9  C16 UNL     1      24.418   0.695  53.047  1.00  0.00     0.041 A 
HETATM   10  N2  UNL     1      23.043   0.973  53.255  1.00  0.00    -0.375 N 
HETATM   11  H13 UNL     1      22.580   0.506  54.060  1.00  0.00     0.160 HD
ENDROOT
BRANCH   3  12
HETATM   12  N1  UNL     1      24.698   2.937  49.968  1.00  0.00    -0.356 N 
HETATM   13  H4  UNL     1      24.308   2.589  49.043  1.00  0.00     0.166 HD
BRANCH  12  14
HETATM   14  C5  UNL     1      25.458   4.001  49.466  1.00  0.00     0.034 A 
HETATM   15  C6  UNL     1      24.656   5.130  49.266  1.00  0.00     0.029 A 
HETATM   16  C7  UNL     1      25.198   6.319  48.770  1.00  0.00     0.004 A 
HETATM   17  C8  UNL     1      26.549   6.290  48.501  1.00  0.00     0.024 A 
HETATM   18  C9  UNL     1      27.364   5.198  48.685  1.00  0.00     0.036 A 
HETATM   19 CL1  UNL     1      29.079   5.204  48.328  1.00  0.00    -0.084 Cl
HETATM   20  C10 UNL     1      26.804   4.039  49.176  1.00  0.00     0.053 A 
ENDBRANCH  12  14
ENDBRANCH   3  12
BRANCH   1  21
HETATM   21  C1  UNL     1      21.027   1.105  51.955  1.00  0.00     0.260 C 
HETATM   22  O1  UNL     1      21.224  -0.094  51.900  1.00  0.00    -0.304 OA
ENDBRANCH   1  21
TORSDOF 3
ENDMDL
MODEL 9
REMARK VINA RESULT:      -7.2      3.580      6.377
REMARK  3 active torsions:
REMARK  status: ('A' for Active; 'I' for Inactive)
REMARK    1  A    between atoms: C1_2  and  C2_3 
REMARK    2  A    between atoms: C4_5  and  N1_6 
REMARK    3  A    between atoms: N1_6  and  C5_7 
ROOT
HETATM    1  C2  UNL     1      22.303   2.852  51.179  1.00  0.00     0.168 A 
HETATM    2  C3  UNL     1      23.383   1.974  51.681  1.00  0.00     0.035 A 
HETATM    3  C4  UNL     1      24.668   2.136  51.351  1.00  0.00     0.043 A 
HETATM    4  C11 UNL     1      25.054   3.218  50.461  1.00  0.00     0.017 A 
HETATM    5  C12 UNL     1      26.405   3.272  50.204  1.00  0.00     0.016 A 
HETATM    6  C13 UNL     1      26.874   4.265  49.371  1.00  0.00     0.001 A 
HETATM    7  C14 UNL     1      25.954   5.156  48.835  1.00  0.00     0.002 A 
HETATM    8  C15 UNL     1      24.599   5.083  49.107  1.00  0.00     0.030 A 
HETATM    9  C16 UNL     1      24.131   4.089  49.942  1.00  0.00     0.041 A 
HETATM   10  N2  UNL     1      22.779   3.882  50.316  1.00  0.00    -0.375 N 
HETATM   11  H13 UNL     1      22.073   4.539  49.928  1.00  0.00     0.160 HD
ENDROOT
BRANCH   3  12
HETATM   12  N1  UNL     1      25.446   1.146  51.989  1.00  0.00    -0.356 N 
HETATM   13  H4  UNL     1      24.959   0.211  52.131  1.00  0.00     0.166 HD
BRANCH  12  14
HETATM   14  C5  UNL     1      26.675   0.808  52.568  1.00  0.00     0.034 A 
HETATM   15  C6  UNL     1      27.277   1.934  53.142  1.00  0.00     0.029 A 
HETATM   16  C7  UNL     1      28.516   1.840  53.782  1.00  0.00     0.004 A 
HETATM   17  C8  UNL     1      29.082   0.585  53.802  1.00  0.00     0.024 A 
HETATM   18  C9  UNL     1      28.517  -0.540  53.248  1.00  0.00     0.036 A 
HETATM   19 CL1  UNL     1      29.272  -2.120  53.296  1.00  0.00    -0.084 Cl
HETATM   20  C10 UNL     1      27.295  -0.420  52.624  1.00  0.00     0.053 A 
ENDBRANCH  12  14
ENDBRANCH   3  12
BRANCH   1  21
HETATM   21  C1  UNL     1      21.522   3.443  52.314  1.00  0.00     0.260 C 
HETATM   22  O1  UNL     1      20.487   2.833  52.506  1.00  0.00    -0.304 OA
ENDBRANCH   1  21
TORSDOF 3
ENDMDL
