MODEL 1
REMARK VINA RESULT:      -8.5      0.000      0.000
REMARK  4 active torsions:
REMARK  status: ('A' for Active; 'I' for Inactive)
REMARK    1  A    between atoms: C1_2  and  C2_3 
REMARK    2  A    between atoms: C6_8  and  N2_9 
REMARK    3  A    between atoms: N2_9  and  P1_10 
REMARK    4  A    between atoms: P1_10  and  C7_11 
ROOT
HETATM    1  C2  UNL     1      27.815   0.742  53.251  1.00  0.00    -0.050 C 
HETATM    2  C3  UNL     1      27.198   1.834  52.814  1.00  0.00     0.010 C 
HETATM    3  C4  UNL     1      25.901   1.790  52.079  1.00  0.00     0.162 C 
HETATM    4  N1  UNL     1      25.160   3.015  52.332  1.00  0.00    -0.369 N 
HETATM    5  C5  UNL     1      23.741   3.033  52.333  1.00  0.00     0.131 A 
HETATM    6  C6  UNL     1      23.022   4.201  52.219  1.00  0.00     0.181 A 
HETATM    7  N3  UNL     1      21.692   4.124  52.228  1.00  0.00    -0.220 NA
HETATM    8  C13 UNL     1      21.024   2.961  52.344  1.00  0.00     0.238 A 
HETATM    9  N4  UNL     1      21.719   1.796  52.458  1.00  0.00    -0.215 NA
HETATM   10  C14 UNL     1      23.077   1.814  52.454  1.00  0.00     0.201 A 
HETATM   11  O1  UNL     1      23.798   0.635  52.569  1.00  0.00    -0.292 OA
HETATM   12  C15 UNL     1      25.173   0.593  52.571  1.00  0.00     0.078 C 
HETATM   13  C16 UNL     1      25.780  -0.499  53.006  1.00  0.00     0.013 C 
HETATM   14  C17 UNL     1      27.266  -0.635  53.046  1.00  0.00     0.066 C 
HETATM   15  H5  UNL     1      25.632   3.925  52.523  1.00  0.00     0.161 HD
ENDROOT
BRANCH   6  16
HETATM   16  N2  UNL     1      23.790   5.393  52.099  1.00  0.00    -0.228 NA
BRANCH  16  17
HETATM   17  P1  UNL     1      24.014   6.122  50.661  1.00  0.00     0.101 P 
BRANCH  17  18
HETATM   18  C7  UNL     1      25.589   6.005  49.736  1.00  0.00    -0.003 A 
HETATM   19  C8  UNL     1      26.043   4.689  49.621  1.00  0.00     0.014 A 
HETATM   20  C9  UNL     1      27.212   4.385  48.960  1.00  0.00     0.001 A 
HETATM   21  C10 UNL     1      27.931   5.426  48.407  1.00  0.00     0.000 A 
HETATM   22  C11 UNL     1      27.491   6.749  48.513  1.00  0.00     0.001 A 
HETATM   23  C12 UNL     1      26.325   7.018  49.176  1.00  0.00     0.014 A 
ENDBRANCH  17  18
ENDBRANCH  16  17
ENDBRANCH   6  16
BRANCH   1  24
HETATM   24  C1  UNL     1      29.126   0.787  53.995  1.00  0.00     0.256 C 
HETATM   25  F1  UNL     1      29.852  -0.298  53.593  1.00  0.00    -0.251 F 
ENDBRANCH   1  24
TORSDOF 4
ENDMDL
MODEL 2
REMARK VINA RESULT:      -8.3      5.020      7.437
REMARK  4 active torsions:
REMARK  status: ('A' for Active; 'I' for Inactive)
REMARK    1  A    between atoms: C1_2  and  C2_3 
REMARK    2  A    between atoms: C6_8  and  N2_9 
REMARK    3  A    between atoms: N2_9  and  P1_10 
REMARK    4  A    between atoms: P1_10  and  C7_11 
ROOT
HETATM    1  C2  UNL     1      18.098  -0.106  51.275  1.00  0.00    -0.050 C 
HETATM    2  C3  UNL     1      19.330   0.377  51.398  1.00  0.00     0.010 C 
HETATM    3  C4  UNL     1      20.045   0.443  52.705  1.00  0.00     0.162 C 
HETATM    4  N1  UNL     1      21.478   0.337  52.476  1.00  0.00    -0.369 N 
HETATM    5  C5  UNL     1      22.337  -0.248  53.442  1.00  0.00     0.131 A 
HETATM    6  C6  UNL     1      23.700  -0.054  53.424  1.00  0.00     0.181 A 
HETATM    7  N3  UNL     1      24.430  -0.642  54.371  1.00  0.00    -0.220 NA
HETATM    8  C13 UNL     1      23.899  -1.413  55.338  1.00  0.00     0.238 A 
HETATM    9  N4  UNL     1      22.553  -1.616  55.371  1.00  0.00    -0.215 NA
HETATM   10  C14 UNL     1      21.758  -1.041  54.431  1.00  0.00     0.201 A 
HETATM   11  O1  UNL     1      20.386  -1.239  54.451  1.00  0.00    -0.292 OA
HETATM   12  C15 UNL     1      19.533  -0.683  53.527  1.00  0.00     0.078 C 
HETATM   13  C16 UNL     1      18.308  -1.168  53.412  1.00  0.00     0.013 C 
HETATM   14  C17 UNL     1      17.314  -0.629  52.437  1.00  0.00     0.066 C 
HETATM   15  H5  UNL     1      21.932   0.681  51.604  1.00  0.00     0.161 HD
ENDROOT
BRANCH   6  16
HETATM   16  N2  UNL     1      24.195   0.771  52.377  1.00  0.00    -0.228 NA
BRANCH  16  17
HETATM   17  P1  UNL     1      25.690   1.414  52.432  1.00  0.00     0.101 P 
BRANCH  17  18
HETATM   18  C7  UNL     1      27.162   0.436  52.912  1.00  0.00    -0.003 A 
HETATM   19  C8  UNL     1      28.139   1.215  53.536  1.00  0.00     0.014 A 
HETATM   20  C9  UNL     1      29.325   0.669  53.974  1.00  0.00     0.001 A 
HETATM   21  C10 UNL     1      29.524  -0.683  53.779  1.00  0.00     0.000 A 
HETATM   22  C11 UNL     1      28.556  -1.478  53.156  1.00  0.00     0.001 A 
HETATM   23  C12 UNL     1      27.388  -0.904  52.733  1.00  0.00     0.014 A 
ENDBRANCH  17  18
ENDBRANCH  16  17
ENDBRANCH   6  16
BRANCH   1  24
HETATM   24  C1  UNL     1      17.375  -0.172  49.953  1.00  0.00     0.256 C 
HETATM   25  F1  UNL     1      16.272  -0.956  50.139  1.00  0.00    -0.251 F 
ENDBRANCH   1  24
TORSDOF 4
ENDMDL
MODEL 3
REMARK VINA RESULT:      -7.9      3.454      6.421
REMARK  4 active torsions:
REMARK  status: ('A' for Active; 'I' for Inactive)
REMARK    1  A    between atoms: C1_2  and  C2_3 
REMARK    2  A    between atoms: C6_8  and  N2_9 
REMARK    3  A    between atoms: N2_9  and  P1_10 
REMARK    4  A    between atoms: P1_10  and  C7_11 
ROOT
HETATM    1  C2  UNL     1      28.249  -0.785  53.442  1.00  0.00    -0.050 C 
HETATM    2  C3  UNL     1      26.929  -0.860  53.576  1.00  0.00     0.010 C 
HETATM    3  C4  UNL     1      26.085   0.318  53.930  1.00  0.00     0.162 C 
HETATM    4  N1  UNL     1      24.759   0.151  53.356  1.00  0.00    -0.369 N 
HETATM    5  C5  UNL     1      23.978   1.270  52.966  1.00  0.00     0.131 A 
HETATM    6  C6  UNL     1      22.621   1.179  52.755  1.00  0.00     0.181 A 
HETATM    7  N3  UNL     1      21.967   2.281  52.392  1.00  0.00    -0.220 NA
HETATM    8  C13 UNL     1      22.570   3.473  52.221  1.00  0.00     0.238 A 
HETATM    9  N4  UNL     1      23.912   3.581  52.425  1.00  0.00    -0.215 NA
HETATM   10  C14 UNL     1      24.630   2.489  52.798  1.00  0.00     0.201 A 
HETATM   11  O1  UNL     1      25.998   2.585  53.009  1.00  0.00    -0.292 OA
HETATM   12  C15 UNL     1      26.775   1.515  53.387  1.00  0.00     0.078 C 
HETATM   13  C16 UNL     1      28.089   1.598  53.252  1.00  0.00     0.013 C 
HETATM   14  C17 UNL     1      29.011   0.489  53.634  1.00  0.00     0.066 C 
HETATM   15  H5  UNL     1      24.328  -0.786  53.205  1.00  0.00     0.161 HD
ENDROOT
BRANCH   6  16
HETATM   16  N2  UNL     1      22.048  -0.108  52.953  1.00  0.00    -0.228 NA
BRANCH  16  17
HETATM   17  P1  UNL     1      20.572  -0.291  53.615  1.00  0.00     0.101 P 
BRANCH  17  18
HETATM   18  C7  UNL     1      19.050  -0.409  52.604  1.00  0.00    -0.003 A 
HETATM   19  C8  UNL     1      18.054  -1.165  53.227  1.00  0.00     0.014 A 
HETATM   20  C9  UNL     1      16.830  -1.375  52.632  1.00  0.00     0.001 A 
HETATM   21  C10 UNL     1      16.611  -0.813  51.390  1.00  0.00     0.000 A 
HETATM   22  C11 UNL     1      17.598  -0.054  50.752  1.00  0.00     0.001 A 
HETATM   23  C12 UNL     1      18.803   0.136  51.371  1.00  0.00     0.014 A 
ENDBRANCH  17  18
ENDBRANCH  16  17
ENDBRANCH   6  16
BRANCH   1  24
HETATM   24  C1  UNL     1      29.103  -1.976  53.083  1.00  0.00     0.256 C 
HETATM   25  F1  UNL     1      28.253  -2.996  52.765  1.00  0.00    -0.251 F 
ENDBRANCH   1  24
TORSDOF 4
ENDMDL
MODEL 4
REMARK VINA RESULT:      -7.8      2.769      5.944
REMARK  4 active torsions:
REMARK  status: ('A' for Active; 'I' for Inactive)
REMARK    1  A    between atoms: C1_2  and  C2_3 
REMARK    2  A    between atoms: C6_8  and  N2_9 
REMARK    3  A    between atoms: N2_9  and  P1_10 
REMARK    4  A    between atoms: P1_10  and  C7_11 
ROOT
HETATM    1  C2  UNL     1      25.689   5.321  49.130  1.00  0.00    -0.050 C 
HETATM    2  C3  UNL     1      25.601   4.556  50.213  1.00  0.00     0.010 C 
HETATM    3  C4  UNL     1      24.298   4.128  50.797  1.00  0.00     0.162 C 
HETATM    4  N1  UNL     1      24.464   2.844  51.460  1.00  0.00    -0.369 N 
HETATM    5  C5  UNL     1      23.395   1.913  51.543  1.00  0.00     0.131 A 
HETATM    6  C6  UNL     1      23.400   0.870  52.440  1.00  0.00     0.181 A 
HETATM    7  N3  UNL     1      22.355   0.044  52.449  1.00  0.00    -0.220 NA
HETATM    8  C13 UNL     1      21.300   0.184  51.624  1.00  0.00     0.238 A 
HETATM    9  N4  UNL     1      21.278   1.210  50.730  1.00  0.00    -0.215 NA
HETATM   10  C14 UNL     1      22.318   2.084  50.677  1.00  0.00     0.201 A 
HETATM   11  O1  UNL     1      22.309   3.134  49.771  1.00  0.00    -0.292 OA
HETATM   12  C15 UNL     1      23.332   4.048  49.672  1.00  0.00     0.078 C 
HETATM   13  C16 UNL     1      23.411   4.808  48.592  1.00  0.00     0.013 C 
HETATM   14  C17 UNL     1      24.485   5.825  48.396  1.00  0.00     0.066 C 
HETATM   15  H5  UNL     1      25.363   2.552  51.897  1.00  0.00     0.161 HD
ENDROOT
BRANCH   6  16
HETATM   16  N2  UNL     1      24.544   0.781  53.281  1.00  0.00    -0.228 NA
BRANCH  16  17
HETATM   17  P1  UNL     1      25.501  -0.536  53.281  1.00  0.00     0.101 P 
BRANCH  17  18
HETATM   18  C7  UNL     1      27.322  -0.425  53.438  1.00  0.00    -0.003 A 
HETATM   19  C8  UNL     1      27.953  -1.647  53.194  1.00  0.00     0.014 A 
HETATM   20  C9  UNL     1      29.323  -1.777  53.262  1.00  0.00     0.001 A 
HETATM   21  C10 UNL     1      30.063  -0.656  53.580  1.00  0.00     0.000 A 
HETATM   22  C11 UNL     1      29.447   0.574  53.828  1.00  0.00     0.001 A 
HETATM   23  C12 UNL     1      28.084   0.671  53.752  1.00  0.00     0.014 A 
ENDBRANCH  17  18
ENDBRANCH  16  17
ENDBRANCH   6  16
BRANCH   1  24
HETATM   24  C1  UNL     1      27.007   5.752  48.538  1.00  0.00     0.256 C 
HETATM   25  F1  UNL     1      27.857   4.688  48.636  1.00  0.00    -0.251 F 
ENDBRANCH   1  24
TORSDOF 4
ENDMDL
MODEL 5
REMARK VINA RESULT:      -7.8      3.442      5.343
REMARK  4 active torsions:
REMARK  status: ('A' for Active; 'I' for Inactive)
REMARK    1  A    between atoms: C1_2  and  C2_3 
REMARK    2  A    between atoms: C6_8  and  N2_9 
REMARK    3  A    between atoms: N2_9  and  P1_10 
REMARK    4  A    between atoms: P1_10  and  C7_11 
ROOT
HETATM    1  C2  UNL     1      19.801  -0.072  52.625  1.00  0.00    -0.050 C 
HETATM    2  C3  UNL     1      20.823   0.732  52.352  1.00  0.00     0.010 C 
HETATM    3  C4  UNL     1      22.032   0.824  53.220  1.00  0.00     0.162 C 
HETATM    4  N1  UNL     1      23.185   1.178  52.407  1.00  0.00    -0.369 N 
HETATM    5  C5  UNL     1      24.492   0.745  52.751  1.00  0.00     0.131 A 
HETATM    6  C6  UNL     1      25.621   1.333  52.227  1.00  0.00     0.181 A 
HETATM    7  N3  UNL     1      26.808   0.862  52.607  1.00  0.00    -0.220 NA
HETATM    8  C13 UNL     1      26.952  -0.158  53.475  1.00  0.00     0.238 A 
HETATM    9  N4  UNL     1      25.846  -0.751  54.003  1.00  0.00    -0.215 NA
HETATM   10  C14 UNL     1      24.609  -0.311  53.652  1.00  0.00     0.201 A 
HETATM   11  O1  UNL     1      23.473  -0.906  54.181  1.00  0.00    -0.292 OA
HETATM   12  C15 UNL     1      22.197  -0.505  53.863  1.00  0.00     0.078 C 
HETATM   13  C16 UNL     1      21.184  -1.308  54.140  1.00  0.00     0.013 C 
HETATM   14  C17 UNL     1      19.767  -0.958  53.830  1.00  0.00     0.066 C 
HETATM   15  H5  UNL     1      23.105   1.758  51.544  1.00  0.00     0.161 HD
ENDROOT
BRANCH   6  16
HETATM   16  N2  UNL     1      25.397   2.403  51.318  1.00  0.00    -0.228 NA
BRANCH  16  17
HETATM   17  P1  UNL     1      26.465   2.758  50.140  1.00  0.00     0.101 P 
BRANCH  17  18
HETATM   18  C7  UNL     1      26.528   4.401  49.335  1.00  0.00    -0.003 A 
HETATM   19  C8  UNL     1      25.292   5.052  49.356  1.00  0.00     0.014 A 
HETATM   20  C9  UNL     1      25.127   6.302  48.801  1.00  0.00     0.001 A 
HETATM   21  C10 UNL     1      26.226   6.900  48.219  1.00  0.00     0.000 A 
HETATM   22  C11 UNL     1      27.470   6.262  48.189  1.00  0.00     0.001 A 
HETATM   23  C12 UNL     1      27.601   5.021  48.749  1.00  0.00     0.014 A 
ENDBRANCH  17  18
ENDBRANCH  16  17
ENDBRANCH   6  16
BRANCH   1  24
HETATM   24  C1  UNL     1      18.578  -0.165  51.746  1.00  0.00     0.256 C 
HETATM   25  F1  UNL     1      17.812  -1.185  52.234  1.00  0.00    -0.251 F 
ENDBRANCH   1  24
TORSDOF 4
ENDMDL
MODEL 6
REMARK VINA RESULT:      -7.7      2.437      5.053
REMARK  4 active torsions:
REMARK  status: ('A' for Active; 'I' for Inactive)
REMARK    1  A    between atoms: C1_2  and  C2_3 
REMARK    2  A    between atoms: C6_8  and  N2_9 
REMARK    3  A    between atoms: N2_9  and  P1_10 
REMARK    4  A    between atoms: P1_10  and  C7_11 
ROOT
HETATM    1  C2  UNL     1      24.400   0.150  53.245  1.00  0.00    -0.050 C 
HETATM    2  C3  UNL     1      24.186   1.442  53.024  1.00  0.00     0.010 C 
HETATM    3  C4  UNL     1      25.260   2.374  52.576  1.00  0.00     0.162 C 
HETATM    4  N1  UNL     1      24.672   3.446  51.788  1.00  0.00    -0.369 N 
HETATM    5  C5  UNL     1      25.398   4.080  50.746  1.00  0.00     0.131 A 
HETATM    6  C6  UNL     1      25.022   5.298  50.227  1.00  0.00     0.181 A 
HETATM    7  N3  UNL     1      25.764   5.821  49.251  1.00  0.00    -0.220 NA
HETATM    8  C13 UNL     1      26.857   5.214  48.752  1.00  0.00     0.238 A 
HETATM    9  N4  UNL     1      27.244   4.008  49.254  1.00  0.00    -0.215 NA
HETATM   10  C14 UNL     1      26.525   3.428  50.251  1.00  0.00     0.201 A 
HETATM   11  O1  UNL     1      26.907   2.201  50.772  1.00  0.00    -0.292 OA
HETATM   12  C15 UNL     1      26.219   1.567  51.780  1.00  0.00     0.078 C 
HETATM   13  C16 UNL     1      26.439   0.280  51.996  1.00  0.00     0.013 C 
HETATM   14  C17 UNL     1      25.740  -0.491  53.065  1.00  0.00     0.066 C 
HETATM   15  H5  UNL     1      23.702   3.791  51.948  1.00  0.00     0.161 HD
ENDROOT
BRANCH   6  16
HETATM   16  N2  UNL     1      23.859   5.884  50.799  1.00  0.00    -0.228 NA
BRANCH  16  17
HETATM   17  P1  UNL     1      22.364   5.438  50.333  1.00  0.00     0.101 P 
BRANCH  17  18
HETATM   18  C7  UNL     1      21.658   3.797  50.738  1.00  0.00    -0.003 A 
HETATM   19  C8  UNL     1      21.038   3.779  51.989  1.00  0.00     0.014 A 
HETATM   20  C9  UNL     1      20.443   2.638  52.482  1.00  0.00     0.001 A 
HETATM   21  C10 UNL     1      20.477   1.502  51.698  1.00  0.00     0.000 A 
HETATM   22  C11 UNL     1      21.095   1.503  50.444  1.00  0.00     0.001 A 
HETATM   23  C12 UNL     1      21.676   2.653  49.983  1.00  0.00     0.014 A 
ENDBRANCH  17  18
ENDBRANCH  16  17
ENDBRANCH   6  16
BRANCH   1  24
HETATM   24  C1  UNL     1      23.313  -0.793  53.699  1.00  0.00     0.256 C 
HETATM   25  F1  UNL     1      22.494  -1.005  52.626  1.00  0.00    -0.251 F 
ENDBRANCH   1  24
TORSDOF 4
ENDMDL
MODEL 7
REMARK VINA RESULT:      -7.6      2.539      3.311
REMARK  4 active torsions:
REMARK  status: ('A' for Active; 'I' for Inactive)
REMARK    1  A    between atoms: C1_2  and  C2_3 
REMARK    2  A    between atoms: C6_8  and  N2_9 
REMARK    3  A    between atoms: N2_9  and  P1_10 
REMARK    4  A    between atoms: P1_10  and  C7_11 
ROOT
HETATM    1  C2  UNL     1      23.784  -0.102  53.518  1.00  0.00    -0.050 C 
HETATM    2  C3  UNL     1      23.535   0.582  52.406  1.00  0.00     0.010 C 
HETATM    3  C4  UNL     1      22.157   0.786  51.874  1.00  0.00     0.162 C 
HETATM    4  N1  UNL     1      22.103   2.042  51.143  1.00  0.00    -0.369 N 
HETATM    5  C5  UNL     1      20.907   2.805  51.075  1.00  0.00     0.131 A 
HETATM    6  C6  UNL     1      20.718   3.788  50.130  1.00  0.00     0.181 A 
HETATM    7  N3  UNL     1      19.564   4.453  50.139  1.00  0.00    -0.220 NA
HETATM    8  C13 UNL     1      18.581   4.210  51.026  1.00  0.00     0.238 A 
HETATM    9  N4  UNL     1      18.751   3.241  51.968  1.00  0.00    -0.215 NA
HETATM   10  C14 UNL     1      19.908   2.529  52.006  1.00  0.00     0.201 A 
HETATM   11  O1  UNL     1      20.096   1.540  52.959  1.00  0.00    -0.292 OA
HETATM   12  C15 UNL     1      21.244   0.789  53.045  1.00  0.00     0.078 C 
HETATM   13  C16 UNL     1      21.484   0.108  54.154  1.00  0.00     0.013 C 
HETATM   14  C17 UNL     1      22.703  -0.732  54.339  1.00  0.00     0.066 C 
HETATM   15  H5  UNL     1      22.928   2.436  50.644  1.00  0.00     0.161 HD
ENDROOT
BRANCH   6  16
HETATM   16  N2  UNL     1      21.795   3.994  49.224  1.00  0.00    -0.228 NA
BRANCH  16  17
HETATM   17  P1  UNL     1      22.831   5.237  49.401  1.00  0.00     0.101 P 
BRANCH  17  18
HETATM   18  C7  UNL     1      24.641   5.043  49.201  1.00  0.00    -0.003 A 
HETATM   19  C8  UNL     1      25.082   3.766  49.555  1.00  0.00     0.014 A 
HETATM   20  C9  UNL     1      26.411   3.415  49.475  1.00  0.00     0.001 A 
HETATM   21  C10 UNL     1      27.306   4.369  49.032  1.00  0.00     0.000 A 
HETATM   22  C11 UNL     1      26.881   5.652  48.674  1.00  0.00     0.001 A 
HETATM   23  C12 UNL     1      25.553   5.969  48.763  1.00  0.00     0.014 A 
ENDBRANCH  17  18
ENDBRANCH  16  17
ENDBRANCH   6  16
BRANCH   1  24
HETATM   24  C1  UNL     1      25.178  -0.308  54.056  1.00  0.00     0.256 C 
HETATM   25  F1  UNL     1      25.094  -1.261  55.030  1.00  0.00    -0.251 F 
ENDBRANCH   1  24
TORSDOF 4
ENDMDL
MODEL 8
REMARK VINA RESULT:      -7.6      4.531      6.656
REMARK  4 active torsions:
REMARK  status: ('A' for Active; 'I' for Inactive)
REMARK    1  A    between atoms: C1_2  and  C2_3 
REMARK    2  A    between atoms: C6_8  and  N2_9 
REMARK    3  A    between atoms: N2_9  and  P1_10 
REMARK    4  A    between atoms: P1_10  and  C7_11 
ROOT
HETATM    1  C2  UNL     1      17.662  -0.237  51.081  1.00  0.00    -0.050 C 
HETATM    2  C3  UNL     1      18.874   0.297  51.191  1.00  0.00     0.010 C 
HETATM    3  C4  UNL     1      19.605   0.383  52.487  1.00  0.00     0.162 C 
HETATM    4  N1  UNL     1      21.037   0.339  52.238  1.00  0.00    -0.369 N 
HETATM    5  C5  UNL     1      21.935  -0.217  53.187  1.00  0.00     0.131 A 
HETATM    6  C6  UNL     1      23.288   0.035  53.151  1.00  0.00     0.181 A 
HETATM    7  N3  UNL     1      24.056  -0.529  54.082  1.00  0.00    -0.220 NA
HETATM    8  C13 UNL     1      23.571  -1.328  55.051  1.00  0.00     0.238 A 
HETATM    9  N4  UNL     1      22.236  -1.587  55.102  1.00  0.00    -0.215 NA
HETATM   10  C14 UNL     1      21.404  -1.039  54.178  1.00  0.00     0.201 A 
HETATM   11  O1  UNL     1      20.041  -1.294  54.217  1.00  0.00    -0.292 OA
HETATM   12  C15 UNL     1      19.152  -0.768  53.309  1.00  0.00     0.078 C 
HETATM   13  C16 UNL     1      17.947  -1.303  53.207  1.00  0.00     0.013 C 
HETATM   14  C17 UNL     1      16.918  -0.800  52.251  1.00  0.00     0.066 C 
HETATM   15  H5  UNL     1      21.465   0.707  51.361  1.00  0.00     0.161 HD
ENDROOT
BRANCH   6  16
HETATM   16  N2  UNL     1      23.733   0.887  52.102  1.00  0.00    -0.228 NA
BRANCH  16  17
HETATM   17  P1  UNL     1      24.770   2.110  52.380  1.00  0.00     0.101 P 
BRANCH  17  18
HETATM   18  C7  UNL     1      25.187   3.354  51.102  1.00  0.00    -0.003 A 
HETATM   19  C8  UNL     1      26.342   3.021  50.392  1.00  0.00     0.014 A 
HETATM   20  C9  UNL     1      26.826   3.826  49.385  1.00  0.00     0.001 A 
HETATM   21  C10 UNL     1      26.132   4.983  49.094  1.00  0.00     0.000 A 
HETATM   22  C11 UNL     1      24.974   5.332  49.795  1.00  0.00     0.001 A 
HETATM   23  C12 UNL     1      24.518   4.509  50.790  1.00  0.00     0.014 A 
ENDBRANCH  17  18
ENDBRANCH  16  17
ENDBRANCH   6  16
BRANCH   1  24
HETATM   24  C1  UNL     1      16.923  -0.325  49.769  1.00  0.00     0.256 C 
HETATM   25  F1  UNL     1      15.856  -1.154  49.966  1.00  0.00    -0.251 F 
ENDBRANCH   1  24
TORSDOF 4
ENDMDL
MODEL 9
REMARK VINA RESULT:      -7.5      3.719      7.229
REMARK  4 active torsions:
REMARK  status: ('A' for Active; 'I' for Inactive)
REMARK    1  A    between atoms: C1_2  and  C2_3 
REMARK    2  A    between atoms: C6_8  and  N2_9 
REMARK    3  A    between atoms: N2_9  and  P1_10 
REMARK    4  A    between atoms: P1_10  and  C7_11 
ROOT
HETATM    1  C2  UNL     1      23.811   3.965  50.284  1.00  0.00    -0.050 C 
HETATM    2  C3  UNL     1      23.933   3.005  51.195  1.00  0.00     0.010 C 
HETATM    3  C4  UNL     1      25.161   2.171  51.330  1.00  0.00     0.162 C 
HETATM    4  N1  UNL     1      25.307   1.747  52.713  1.00  0.00    -0.369 N 
HETATM    5  C5  UNL     1      26.586   1.518  53.284  1.00  0.00     0.131 A 
HETATM    6  C6  UNL     1      26.753   0.796  54.444  1.00  0.00     0.181 A 
HETATM    7  N3  UNL     1      27.991   0.631  54.908  1.00  0.00    -0.220 NA
HETATM    8  C13 UNL     1      29.080   1.136  54.298  1.00  0.00     0.238 A 
HETATM    9  N4  UNL     1      28.933   1.853  53.149  1.00  0.00    -0.215 NA
HETATM   10  C14 UNL     1      27.694   2.053  52.629  1.00  0.00     0.201 A 
HETATM   11  O1  UNL     1      27.529   2.781  51.460  1.00  0.00    -0.292 OA
HETATM   12  C15 UNL     1      26.301   3.015  50.888  1.00  0.00     0.078 C 
HETATM   13  C16 UNL     1      26.187   3.971  49.981  1.00  0.00     0.013 C 
HETATM   14  C17 UNL     1      24.896   4.297  49.308  1.00  0.00     0.066 C 
HETATM   15  H5  UNL     1      24.489   1.594  53.341  1.00  0.00     0.161 HD
ENDROOT
BRANCH   6  16
HETATM   16  N2  UNL     1      25.563   0.292  55.037  1.00  0.00    -0.228 NA
BRANCH  16  17
HETATM   17  P1  UNL     1      24.762  -0.974  54.398  1.00  0.00     0.101 P 
BRANCH  17  18
HETATM   18  C7  UNL     1      22.965  -0.924  54.049  1.00  0.00    -0.003 A 
HETATM   19  C8  UNL     1      22.650  -0.057  53.001  1.00  0.00     0.014 A 
HETATM   20  C9  UNL     1      21.351   0.125  52.581  1.00  0.00     0.001 A 
HETATM   21  C10 UNL     1      20.358  -0.581  53.231  1.00  0.00     0.000 A 
HETATM   22  C11 UNL     1      20.656  -1.453  54.283  1.00  0.00     0.001 A 
HETATM   23  C12 UNL     1      21.958  -1.611  54.676  1.00  0.00     0.014 A 
ENDBRANCH  17  18
ENDBRANCH  16  17
ENDBRANCH   6  16
BRANCH   1  24
HETATM   24  C1  UNL     1      22.569   4.810  50.148  1.00  0.00     0.256 C 
HETATM   25  F1  UNL     1      22.970   6.048  49.736  1.00  0.00    -0.251 F 
ENDBRANCH   1  24
TORSDOF 4
ENDMDL
