MODEL 1
REMARK VINA RESULT:      -8.6      0.000      0.000
REMARK  3 active torsions:
REMARK  status: ('A' for Active; 'I' for Inactive)
REMARK    1  A    between atoms: O1_2  and  C2_3 
REMARK    2  A    between atoms: C5_6  and  C6_7 
REMARK    3  A    between atoms: C10_15  and  C11_16 
ROOT
HETATM    1  C6  UNL     1      24.511   3.335  51.526  1.00  0.00     0.066 C 
HETATM    2  N1  UNL     1      24.235   4.038  52.674  1.00  0.00    -0.177 NA
HETATM    3  N2  UNL     1      23.119   4.985  52.573  1.00  0.00    -0.260 N 
HETATM    4  C7  UNL     1      22.442   5.643  51.458  1.00  0.00     0.151 A 
HETATM    5  C8  UNL     1      21.434   6.509  50.998  1.00  0.00     0.103 A 
HETATM    6  S1  UNL     1      21.817   6.297  49.130  1.00  0.00    -0.082 SA
HETATM    7  C9  UNL     1      23.118   5.206  49.282  1.00  0.00     0.086 A 
HETATM    8  N3  UNL     1      23.165   5.092  50.589  1.00  0.00    -0.226 NA
HETATM    9  C10 UNL     1      24.178   4.332  49.158  1.00  0.00     0.084 C 
HETATM   10  C17 UNL     1      24.572   3.207  50.026  1.00  0.00     0.078 C 
HETATM   11  H6  UNL     1      22.497   5.434  53.299  1.00  0.00     0.191 HD
ENDROOT
BRANCH   1  12
HETATM   12  C5  UNL     1      25.001   2.027  52.047  1.00  0.00    -0.010 A 
HETATM   13  C4  UNL     1      24.329   1.231  52.938  1.00  0.00     0.016 A 
HETATM   14  C3  UNL     1      24.774   0.022  53.411  1.00  0.00     0.037 A 
HETATM   15  C2  UNL     1      25.982  -0.460  52.982  1.00  0.00     0.068 A 
HETATM   16  C19 UNL     1      26.712   0.277  52.094  1.00  0.00     0.037 A 
HETATM   17  C18 UNL     1      26.199   1.475  51.668  1.00  0.00     0.016 A 
BRANCH  15  18
HETATM   18  O1  UNL     1      26.447  -1.672  53.446  1.00  0.00    -0.356 OA
HETATM   19  C1  UNL     1      27.357  -2.410  52.686  1.00  0.00     0.210 C 
ENDBRANCH  15  18
ENDBRANCH   1  12
BRANCH   9  20
HETATM   20  C11 UNL     1      25.454   5.109  48.877  1.00  0.00    -0.047 A 
HETATM   21  C12 UNL     1      25.484   6.460  48.527  1.00  0.00     0.009 A 
HETATM   22  C13 UNL     1      26.659   7.106  48.287  1.00  0.00     0.024 A 
HETATM   23  C14 UNL     1      27.864   6.450  48.382  1.00  0.00     0.034 A 
HETATM   24 CL1  UNL     1      29.330   7.347  48.060  1.00  0.00    -0.084 Cl
HETATM   25  C15 UNL     1      27.883   5.117  48.726  1.00  0.00     0.024 A 
HETATM   26  C16 UNL     1      26.681   4.489  48.962  1.00  0.00     0.009 A 
ENDBRANCH   9  20
TORSDOF 3
ENDMDL
MODEL 2
REMARK VINA RESULT:      -8.4      3.806      6.667
REMARK  3 active torsions:
REMARK  status: ('A' for Active; 'I' for Inactive)
REMARK    1  A    between atoms: O1_2  and  C2_3 
REMARK    2  A    between atoms: C5_6  and  C6_7 
REMARK    3  A    between atoms: C10_15  and  C11_16 
ROOT
HETATM    1  C6  UNL     1      24.368   3.315  50.700  1.00  0.00     0.066 C 
HETATM    2  N1  UNL     1      23.937   2.796  49.503  1.00  0.00    -0.177 NA
HETATM    3  N2  UNL     1      22.735   1.957  49.582  1.00  0.00    -0.260 N 
HETATM    4  C7  UNL     1      22.074   1.230  50.662  1.00  0.00     0.151 A 
HETATM    5  C8  UNL     1      21.014   0.413  51.097  1.00  0.00     0.103 A 
HETATM    6  S1  UNL     1      21.550   0.344  52.938  1.00  0.00    -0.082 SA
HETATM    7  C9  UNL     1      22.947   1.314  52.811  1.00  0.00     0.086 A 
HETATM    8  N3  UNL     1      22.912   1.590  51.528  1.00  0.00    -0.226 NA
HETATM    9  C10 UNL     1      24.101   2.056  52.949  1.00  0.00     0.084 C 
HETATM   10  C17 UNL     1      24.549   3.240  52.194  1.00  0.00     0.078 C 
HETATM   11  H6  UNL     1      22.018   1.668  48.862  1.00  0.00     0.191 HD
ENDROOT
BRANCH   1  12
HETATM   12  C5  UNL     1      24.957   4.625  50.302  1.00  0.00    -0.010 A 
HETATM   13  C4  UNL     1      24.606   5.840  50.829  1.00  0.00     0.016 A 
HETATM   14  C3  UNL     1      25.154   7.046  50.471  1.00  0.00     0.037 A 
HETATM   15  C2  UNL     1      26.133   7.078  49.513  1.00  0.00     0.068 A 
HETATM   16  C19 UNL     1      26.536   5.907  48.939  1.00  0.00     0.037 A 
HETATM   17  C18 UNL     1      25.940   4.742  49.351  1.00  0.00     0.016 A 
BRANCH  15  18
HETATM   18  O1  UNL     1      26.695   8.279  49.139  1.00  0.00    -0.356 OA
HETATM   19  C1  UNL     1      27.116   9.188  50.112  1.00  0.00     0.210 C 
ENDBRANCH  15  18
ENDBRANCH   1  12
BRANCH   9  20
HETATM   20  C11 UNL     1      25.302   1.129  53.025  1.00  0.00    -0.047 A 
HETATM   21  C12 UNL     1      25.213  -0.264  53.050  1.00  0.00     0.009 A 
HETATM   22  C13 UNL     1      26.326  -1.046  53.118  1.00  0.00     0.024 A 
HETATM   23  C14 UNL     1      27.584  -0.492  53.163  1.00  0.00     0.034 A 
HETATM   24 CL1  UNL     1      28.965  -1.561  53.249  1.00  0.00    -0.084 Cl
HETATM   25  C15 UNL     1      27.720   0.878  53.140  1.00  0.00     0.024 A 
HETATM   26  C16 UNL     1      26.579   1.644  53.072  1.00  0.00     0.009 A 
ENDBRANCH   9  20
TORSDOF 3
ENDMDL
MODEL 3
REMARK VINA RESULT:      -8.1      3.562      5.316
REMARK  3 active torsions:
REMARK  status: ('A' for Active; 'I' for Inactive)
REMARK    1  A    between atoms: O1_2  and  C2_3 
REMARK    2  A    between atoms: C5_6  and  C6_7 
REMARK    3  A    between atoms: C10_15  and  C11_16 
ROOT
HETATM    1  C6  UNL     1      25.485   2.516  51.769  1.00  0.00     0.066 C 
HETATM    2  N1  UNL     1      25.893   2.625  50.462  1.00  0.00    -0.177 NA
HETATM    3  N2  UNL     1      25.571   3.901  49.811  1.00  0.00    -0.260 N 
HETATM    4  C7  UNL     1      24.607   4.964  50.082  1.00  0.00     0.151 A 
HETATM    5  C8  UNL     1      24.059   6.214  49.740  1.00  0.00     0.103 A 
HETATM    6  S1  UNL     1      22.805   6.293  51.190  1.00  0.00    -0.082 SA
HETATM    7  C9  UNL     1      23.195   4.799  51.916  1.00  0.00     0.086 A 
HETATM    8  N3  UNL     1      24.140   4.393  51.100  1.00  0.00    -0.226 NA
HETATM    9  C10 UNL     1      23.334   3.650  52.665  1.00  0.00     0.084 C 
HETATM   10  C17 UNL     1      24.532   2.821  52.896  1.00  0.00     0.078 C 
HETATM   11  H6  UNL     1      25.974   4.393  48.968  1.00  0.00     0.191 HD
ENDROOT
BRANCH   1  12
HETATM   12  C5  UNL     1      26.535   1.648  52.374  1.00  0.00    -0.010 A 
HETATM   13  C4  UNL     1      27.687   2.098  52.963  1.00  0.00     0.016 A 
HETATM   14  C3  UNL     1      28.651   1.301  53.530  1.00  0.00     0.037 A 
HETATM   15  C2  UNL     1      28.481  -0.059  53.523  1.00  0.00     0.068 A 
HETATM   16  C19 UNL     1      27.359  -0.584  52.951  1.00  0.00     0.037 A 
HETATM   17  C18 UNL     1      26.442   0.279  52.407  1.00  0.00     0.016 A 
BRANCH  15  18
HETATM   18  O1  UNL     1      29.438  -0.877  54.085  1.00  0.00    -0.356 OA
HETATM   19  C1  UNL     1      29.793  -2.073  53.458  1.00  0.00     0.210 C 
ENDBRANCH  15  18
ENDBRANCH   1  12
BRANCH   9  20
HETATM   20  C11 UNL     1      22.212   2.680  52.333  1.00  0.00    -0.047 A 
HETATM   21  C12 UNL     1      22.408   1.328  52.047  1.00  0.00     0.009 A 
HETATM   22  C13 UNL     1      21.363   0.505  51.756  1.00  0.00     0.024 A 
HETATM   23  C14 UNL     1      20.071   0.975  51.733  1.00  0.00     0.034 A 
HETATM   24 CL1  UNL     1      18.782  -0.142  51.351  1.00  0.00    -0.084 Cl
HETATM   25  C15 UNL     1      19.830   2.303  52.009  1.00  0.00     0.024 A 
HETATM   26  C16 UNL     1      20.905   3.112  52.300  1.00  0.00     0.009 A 
ENDBRANCH   9  20
TORSDOF 3
ENDMDL
MODEL 4
REMARK VINA RESULT:      -7.9      3.751      5.414
REMARK  3 active torsions:
REMARK  status: ('A' for Active; 'I' for Inactive)
REMARK    1  A    between atoms: O1_2  and  C2_3 
REMARK    2  A    between atoms: C5_6  and  C6_7 
REMARK    3  A    between atoms: C10_15  and  C11_16 
ROOT
HETATM    1  C6  UNL     1      24.595   2.457  51.747  1.00  0.00     0.066 C 
HETATM    2  N1  UNL     1      25.042   2.519  50.450  1.00  0.00    -0.177 NA
HETATM    3  N2  UNL     1      24.754   3.776  49.749  1.00  0.00    -0.260 N 
HETATM    4  C7  UNL     1      23.793   4.856  49.955  1.00  0.00     0.151 A 
HETATM    5  C8  UNL     1      23.269   6.100  49.556  1.00  0.00     0.103 A 
HETATM    6  S1  UNL     1      21.973   6.238  50.964  1.00  0.00    -0.082 SA
HETATM    7  C9  UNL     1      22.325   4.765  51.749  1.00  0.00     0.086 A 
HETATM    8  N3  UNL     1      23.290   4.324  50.976  1.00  0.00    -0.226 NA
HETATM    9  C10 UNL     1      22.430   3.640  52.540  1.00  0.00     0.084 C 
HETATM   10  C17 UNL     1      23.611   2.808  52.833  1.00  0.00     0.078 C 
HETATM   11  H6  UNL     1      25.188   4.236  48.902  1.00  0.00     0.191 HD
ENDROOT
BRANCH   1  12
HETATM   12  C5  UNL     1      25.617   1.600  52.411  1.00  0.00    -0.010 A 
HETATM   13  C4  UNL     1      26.233   0.519  51.836  1.00  0.00     0.016 A 
HETATM   14  C3  UNL     1      27.182  -0.266  52.442  1.00  0.00     0.037 A 
HETATM   15  C2  UNL     1      27.569   0.023  53.724  1.00  0.00     0.068 A 
HETATM   16  C19 UNL     1      26.998   1.084  54.366  1.00  0.00     0.037 A 
HETATM   17  C18 UNL     1      26.058   1.821  53.692  1.00  0.00     0.016 A 
BRANCH  15  18
HETATM   18  O1  UNL     1      28.519  -0.754  54.351  1.00  0.00    -0.356 OA
HETATM   19  C1  UNL     1      29.732  -1.027  53.714  1.00  0.00     0.210 C 
ENDBRANCH  15  18
ENDBRANCH   1  12
BRANCH   9  20
HETATM   20  C11 UNL     1      21.308   2.671  52.205  1.00  0.00    -0.047 A 
HETATM   21  C12 UNL     1      20.031   3.064  51.800  1.00  0.00     0.009 A 
HETATM   22  C13 UNL     1      19.064   2.150  51.511  1.00  0.00     0.024 A 
HETATM   23  C14 UNL     1      19.310   0.800  51.607  1.00  0.00     0.034 A 
HETATM   24 CL1  UNL     1      18.018  -0.314  51.220  1.00  0.00    -0.084 Cl
HETATM   25  C15 UNL     1      20.556   0.366  52.001  1.00  0.00     0.024 A 
HETATM   26  C16 UNL     1      21.514   1.311  52.287  1.00  0.00     0.009 A 
ENDBRANCH   9  20
TORSDOF 3
ENDMDL
MODEL 5
REMARK VINA RESULT:      -7.9      3.974      5.495
REMARK  3 active torsions:
REMARK  status: ('A' for Active; 'I' for Inactive)
REMARK    1  A    between atoms: O1_2  and  C2_3 
REMARK    2  A    between atoms: C5_6  and  C6_7 
REMARK    3  A    between atoms: C10_15  and  C11_16 
ROOT
HETATM    1  C6  UNL     1      22.499   2.475  51.845  1.00  0.00     0.066 C 
HETATM    2  N1  UNL     1      22.140   3.567  52.597  1.00  0.00    -0.177 NA
HETATM    3  N2  UNL     1      22.674   4.852  52.128  1.00  0.00    -0.260 N 
HETATM    4  C7  UNL     1      23.791   5.233  51.268  1.00  0.00     0.151 A 
HETATM    5  C8  UNL     1      24.538   6.244  50.635  1.00  0.00     0.103 A 
HETATM    6  S1  UNL     1      25.760   5.066  49.739  1.00  0.00    -0.082 SA
HETATM    7  C9  UNL     1      25.122   3.591  50.311  1.00  0.00     0.086 A 
HETATM    8  N3  UNL     1      24.140   4.044  51.055  1.00  0.00    -0.226 NA
HETATM    9  C10 UNL     1      24.785   2.294  50.639  1.00  0.00     0.084 C 
HETATM   10  C17 UNL     1      23.466   1.723  50.968  1.00  0.00     0.078 C 
HETATM   11  H6  UNL     1      22.372   5.851  52.288  1.00  0.00     0.191 HD
ENDROOT
BRANCH   1  12
HETATM   12  C5  UNL     1      21.311   1.582  51.968  1.00  0.00    -0.010 A 
HETATM   13  C4  UNL     1      20.352   1.409  51.004  1.00  0.00     0.016 A 
HETATM   14  C3  UNL     1      19.264   0.580  51.111  1.00  0.00     0.037 A 
HETATM   15  C2  UNL     1      19.088  -0.148  52.259  1.00  0.00     0.068 A 
HETATM   16  C19 UNL     1      20.002  -0.028  53.266  1.00  0.00     0.037 A 
HETATM   17  C18 UNL     1      21.063   0.821  53.083  1.00  0.00     0.016 A 
BRANCH  15  18
HETATM   18  O1  UNL     1      18.001  -0.986  52.387  1.00  0.00    -0.356 OA
HETATM   19  C1  UNL     1      17.951  -1.914  53.429  1.00  0.00     0.210 C 
ENDBRANCH  15  18
ENDBRANCH   1  12
BRANCH   9  20
HETATM   20  C11 UNL     1      25.744   1.766  51.694  1.00  0.00    -0.047 A 
HETATM   21  C12 UNL     1      26.977   2.350  51.991  1.00  0.00     0.009 A 
HETATM   22  C13 UNL     1      27.796   1.833  52.948  1.00  0.00     0.024 A 
HETATM   23  C14 UNL     1      27.438   0.713  53.662  1.00  0.00     0.034 A 
HETATM   24 CL1  UNL     1      28.542   0.109  54.876  1.00  0.00    -0.084 Cl
HETATM   25  C15 UNL     1      26.230   0.105  53.404  1.00  0.00     0.024 A 
HETATM   26  C16 UNL     1      25.423   0.648  52.431  1.00  0.00     0.009 A 
ENDBRANCH   9  20
TORSDOF 3
ENDMDL
MODEL 6
REMARK VINA RESULT:      -7.7      1.765      2.095
REMARK  3 active torsions:
REMARK  status: ('A' for Active; 'I' for Inactive)
REMARK    1  A    between atoms: O1_2  and  C2_3 
REMARK    2  A    between atoms: C5_6  and  C6_7 
REMARK    3  A    between atoms: C10_15  and  C11_16 
ROOT
HETATM    1  C6  UNL     1      23.227   4.123  51.193  1.00  0.00     0.066 C 
HETATM    2  N1  UNL     1      23.029   4.965  52.260  1.00  0.00    -0.177 NA
HETATM    3  N2  UNL     1      22.300   6.201  51.952  1.00  0.00    -0.260 N 
HETATM    4  C7  UNL     1      22.036   6.946  50.724  1.00  0.00     0.151 A 
HETATM    5  C8  UNL     1      21.434   8.044  50.082  1.00  0.00     0.103 A 
HETATM    6  S1  UNL     1      21.992   7.576  48.307  1.00  0.00    -0.082 SA
HETATM    7  C9  UNL     1      22.841   6.150  48.699  1.00  0.00     0.086 A 
HETATM    8  N3  UNL     1      22.662   6.131  49.999  1.00  0.00    -0.226 NA
HETATM    9  C10 UNL     1      23.573   4.984  48.773  1.00  0.00     0.084 C 
HETATM   10  C17 UNL     1      23.458   3.864  49.726  1.00  0.00     0.078 C 
HETATM   11  H6  UNL     1      21.756   6.877  52.555  1.00  0.00     0.191 HD
ENDROOT
BRANCH   1  12
HETATM   12  C5  UNL     1      23.193   2.773  51.824  1.00  0.00    -0.010 A 
HETATM   13  C4  UNL     1      22.278   1.793  51.542  1.00  0.00     0.016 A 
HETATM   14  C3  UNL     1      22.252   0.546  52.115  1.00  0.00     0.037 A 
HETATM   15  C2  UNL     1      23.200   0.219  53.048  1.00  0.00     0.068 A 
HETATM   16  C19 UNL     1      24.146   1.144  53.384  1.00  0.00     0.037 A 
HETATM   17  C18 UNL     1      24.106   2.368  52.767  1.00  0.00     0.016 A 
BRANCH  15  18
HETATM   18  O1  UNL     1      23.191  -1.028  53.636  1.00  0.00    -0.356 OA
HETATM   19  C1  UNL     1      22.020  -1.517  54.221  1.00  0.00     0.210 C 
ENDBRANCH  15  18
ENDBRANCH   1  12
BRANCH   9  20
HETATM   20  C11 UNL     1      25.057   5.301  48.679  1.00  0.00    -0.047 A 
HETATM   21  C12 UNL     1      25.567   6.529  48.252  1.00  0.00     0.009 A 
HETATM   22  C13 UNL     1      26.907   6.757  48.188  1.00  0.00     0.024 A 
HETATM   23  C14 UNL     1      27.813   5.784  48.543  1.00  0.00     0.034 A 
HETATM   24 CL1  UNL     1      29.519   6.152  48.435  1.00  0.00    -0.084 Cl
HETATM   25  C15 UNL     1      27.355   4.558  48.971  1.00  0.00     0.024 A 
HETATM   26  C16 UNL     1      25.995   4.355  49.025  1.00  0.00     0.009 A 
ENDBRANCH   9  20
TORSDOF 3
ENDMDL
MODEL 7
REMARK VINA RESULT:      -7.7      3.025      4.260
REMARK  3 active torsions:
REMARK  status: ('A' for Active; 'I' for Inactive)
REMARK    1  A    between atoms: O1_2  and  C2_3 
REMARK    2  A    between atoms: C5_6  and  C6_7 
REMARK    3  A    between atoms: C10_15  and  C11_16 
ROOT
HETATM    1  C6  UNL     1      25.626   3.813  49.891  1.00  0.00     0.066 C 
HETATM    2  N1  UNL     1      26.833   3.615  49.267  1.00  0.00    -0.177 NA
HETATM    3  N2  UNL     1      27.542   4.839  48.874  1.00  0.00    -0.260 N 
HETATM    4  C7  UNL     1      27.131   6.223  48.650  1.00  0.00     0.151 A 
HETATM    5  C8  UNL     1      27.473   7.546  48.317  1.00  0.00     0.103 A 
HETATM    6  S1  UNL     1      25.707   8.271  48.513  1.00  0.00    -0.082 SA
HETATM    7  C9  UNL     1      24.912   6.829  48.957  1.00  0.00     0.086 A 
HETATM    8  N3  UNL     1      25.925   5.995  48.928  1.00  0.00    -0.226 NA
HETATM    9  C10 UNL     1      24.066   5.804  49.325  1.00  0.00     0.084 C 
HETATM   10  C17 UNL     1      24.353   4.589  50.111  1.00  0.00     0.078 C 
HETATM   11  H6  UNL     1      28.556   5.038  48.659  1.00  0.00     0.191 HD
ENDROOT
BRANCH   1  12
HETATM   12  C5  UNL     1      25.545   2.660  50.832  1.00  0.00    -0.010 A 
HETATM   13  C4  UNL     1      26.620   1.970  51.328  1.00  0.00     0.016 A 
HETATM   14  C3  UNL     1      26.548   0.915  52.203  1.00  0.00     0.037 A 
HETATM   15  C2  UNL     1      25.320   0.488  52.636  1.00  0.00     0.068 A 
HETATM   16  C19 UNL     1      24.200   1.125  52.184  1.00  0.00     0.037 A 
HETATM   17  C18 UNL     1      24.355   2.171  51.312  1.00  0.00     0.016 A 
BRANCH  15  18
HETATM   18  O1  UNL     1      25.227  -0.571  53.513  1.00  0.00    -0.356 OA
HETATM   19  C1  UNL     1      25.750  -0.459  54.804  1.00  0.00     0.210 C 
ENDBRANCH  15  18
ENDBRANCH   1  12
BRANCH   9  20
HETATM   20  C11 UNL     1      23.263   5.342  48.120  1.00  0.00    -0.047 A 
HETATM   21  C12 UNL     1      22.935   6.163  47.040  1.00  0.00     0.009 A 
HETATM   22  C13 UNL     1      22.212   5.695  45.985  1.00  0.00     0.024 A 
HETATM   23  C14 UNL     1      21.777   4.391  45.944  1.00  0.00     0.034 A 
HETATM   24 CL1  UNL     1      20.854   3.862  44.556  1.00  0.00    -0.084 Cl
HETATM   25  C15 UNL     1      22.077   3.544  46.988  1.00  0.00     0.024 A 
HETATM   26  C16 UNL     1      22.809   4.045  48.041  1.00  0.00     0.009 A 
ENDBRANCH   9  20
TORSDOF 3
ENDMDL
MODEL 8
REMARK VINA RESULT:      -7.7      3.591      6.484
REMARK  3 active torsions:
REMARK  status: ('A' for Active; 'I' for Inactive)
REMARK    1  A    between atoms: O1_2  and  C2_3 
REMARK    2  A    between atoms: C5_6  and  C6_7 
REMARK    3  A    between atoms: C10_15  and  C11_16 
ROOT
HETATM    1  C6  UNL     1      24.312   4.643  50.137  1.00  0.00     0.066 C 
HETATM    2  N1  UNL     1      23.768   4.327  48.916  1.00  0.00    -0.177 NA
HETATM    3  N2  UNL     1      22.357   3.926  48.946  1.00  0.00    -0.260 N 
HETATM    4  C7  UNL     1      21.465   3.427  49.989  1.00  0.00     0.151 A 
HETATM    5  C8  UNL     1      20.184   2.992  50.378  1.00  0.00     0.103 A 
HETATM    6  S1  UNL     1      20.618   2.700  52.224  1.00  0.00    -0.082 SA
HETATM    7  C9  UNL     1      22.259   3.161  52.153  1.00  0.00     0.086 A 
HETATM    8  N3  UNL     1      22.351   3.469  50.880  1.00  0.00    -0.226 NA
HETATM    9  C10 UNL     1      23.587   3.481  52.336  1.00  0.00     0.084 C 
HETATM   10  C17 UNL     1      24.419   4.473  51.630  1.00  0.00     0.078 C 
HETATM   11  H6  UNL     1      21.604   3.908  48.204  1.00  0.00     0.191 HD
ENDROOT
BRANCH   1  12
HETATM   12  C5  UNL     1      25.308   5.698  49.794  1.00  0.00    -0.010 A 
HETATM   13  C4  UNL     1      25.331   6.962  50.324  1.00  0.00     0.016 A 
HETATM   14  C3  UNL     1      26.253   7.931  50.017  1.00  0.00     0.037 A 
HETATM   15  C2  UNL     1      27.244   7.650  49.113  1.00  0.00     0.068 A 
HETATM   16  C19 UNL     1      27.286   6.412  48.541  1.00  0.00     0.037 A 
HETATM   17  C18 UNL     1      26.329   5.497  48.899  1.00  0.00     0.016 A 
BRANCH  15  18
HETATM   18  O1  UNL     1      28.178   8.611  48.791  1.00  0.00    -0.356 OA
HETATM   19  C1  UNL     1      28.958   8.471  47.641  1.00  0.00     0.210 C 
ENDBRANCH  15  18
ENDBRANCH   1  12
BRANCH   9  20
HETATM   20  C11 UNL     1      24.417   2.209  52.400  1.00  0.00    -0.047 A 
HETATM   21  C12 UNL     1      25.679   2.070  51.819  1.00  0.00     0.009 A 
HETATM   22  C13 UNL     1      26.378   0.905  51.909  1.00  0.00     0.024 A 
HETATM   23  C14 UNL     1      25.867  -0.182  52.578  1.00  0.00     0.034 A 
HETATM   24 CL1  UNL     1      26.825  -1.644  52.651  1.00  0.00    -0.084 Cl
HETATM   25  C15 UNL     1      24.626  -0.090  53.168  1.00  0.00     0.024 A 
HETATM   26  C16 UNL     1      23.942   1.098  53.061  1.00  0.00     0.009 A 
ENDBRANCH   9  20
TORSDOF 3
ENDMDL
MODEL 9
REMARK VINA RESULT:      -7.5      3.027      4.855
REMARK  3 active torsions:
REMARK  status: ('A' for Active; 'I' for Inactive)
REMARK    1  A    between atoms: O1_2  and  C2_3 
REMARK    2  A    between atoms: C5_6  and  C6_7 
REMARK    3  A    between atoms: C10_15  and  C11_16 
ROOT
HETATM    1  C6  UNL     1      24.696   3.127  51.212  1.00  0.00     0.066 C 
HETATM    2  N1  UNL     1      25.180   3.105  49.927  1.00  0.00    -0.177 NA
HETATM    3  N2  UNL     1      25.480   4.421  49.350  1.00  0.00    -0.260 N 
HETATM    4  C7  UNL     1      25.059   5.785  49.659  1.00  0.00     0.151 A 
HETATM    5  C8  UNL     1      25.128   7.163  49.382  1.00  0.00     0.103 A 
HETATM    6  S1  UNL     1      23.956   7.716  50.797  1.00  0.00    -0.082 SA
HETATM    7  C9  UNL     1      23.619   6.171  51.437  1.00  0.00     0.086 A 
HETATM    8  N3  UNL     1      24.337   5.430  50.625  1.00  0.00    -0.226 NA
HETATM    9  C10 UNL     1      23.205   5.045  52.115  1.00  0.00     0.084 C 
HETATM   10  C17 UNL     1      23.909   3.767  52.327  1.00  0.00     0.078 C 
HETATM   11  H6  UNL     1      26.101   4.725  48.552  1.00  0.00     0.191 HD
ENDROOT
BRANCH   1  12
HETATM   12  C5  UNL     1      25.230   1.862  51.791  1.00  0.00    -0.010 A 
HETATM   13  C4  UNL     1      26.498   1.380  51.596  1.00  0.00     0.016 A 
HETATM   14  C3  UNL     1      26.996   0.220  52.136  1.00  0.00     0.037 A 
HETATM   15  C2  UNL     1      26.189  -0.543  52.938  1.00  0.00     0.068 A 
HETATM   16  C19 UNL     1      24.911  -0.130  53.178  1.00  0.00     0.037 A 
HETATM   17  C18 UNL     1      24.488   1.041  52.603  1.00  0.00     0.016 A 
BRANCH  15  18
HETATM   18  O1  UNL     1      26.670  -1.712  53.489  1.00  0.00    -0.356 OA
HETATM   19  C1  UNL     1      27.580  -2.499  52.779  1.00  0.00     0.210 C 
ENDBRANCH  15  18
ENDBRANCH   1  12
BRANCH   9  20
HETATM   20  C11 UNL     1      21.793   4.678  51.689  1.00  0.00    -0.047 A 
HETATM   21  C12 UNL     1      21.069   3.609  52.221  1.00  0.00     0.009 A 
HETATM   22  C13 UNL     1      19.805   3.327  51.800  1.00  0.00     0.024 A 
HETATM   23  C14 UNL     1      19.191   4.088  50.833  1.00  0.00     0.034 A 
HETATM   24 CL1  UNL     1      17.566   3.664  50.345  1.00  0.00    -0.084 Cl
HETATM   25  C15 UNL     1      19.867   5.153  50.280  1.00  0.00     0.024 A 
HETATM   26  C16 UNL     1      21.143   5.414  50.723  1.00  0.00     0.009 A 
ENDBRANCH   9  20
TORSDOF 3
ENDMDL
