MODEL 1
REMARK VINA RESULT:      -7.7      0.000      0.000
REMARK  6 active torsions:
REMARK  status: ('A' for Active; 'I' for Inactive)
REMARK    1  A    between atoms: C2_2  and  C3_3 
REMARK    2  A    between atoms: C4_4  and  C5_5 
REMARK    3  A    between atoms: C6_6  and  C7_7 
REMARK    4  A    between atoms: C7_7  and  C8_8 
REMARK    5  A    between atoms: C8_8  and  N1_10 
REMARK    6  A    between atoms: N1_10  and  C10_11 
ROOT
HETATM    1  C10 UNL     1      22.944   3.225  50.773  1.00  0.00     0.138 A 
HETATM    2  N2  UNL     1      22.203   4.338  50.708  1.00  0.00    -0.224 NA
HETATM    3  C11 UNL     1      22.183   5.338  51.592  1.00  0.00     0.237 A 
HETATM    4  N3  UNL     1      22.983   5.229  52.666  1.00  0.00    -0.224 NA
HETATM    5  C12 UNL     1      23.767   4.148  52.824  1.00  0.00     0.139 A 
HETATM    6  C13 UNL     1      23.771   3.134  51.899  1.00  0.00     0.066 A 
HETATM    7  C14 UNL     1      24.777   2.321  52.622  1.00  0.00     0.091 A 
HETATM    8  C15 UNL     1      24.307   1.034  53.130  1.00  0.00     0.011 A 
HETATM    9  C16 UNL     1      24.810  -0.185  53.151  1.00  0.00     0.017 A 
HETATM   10  C17 UNL     1      26.126  -0.287  52.538  1.00  0.00     0.007 A 
HETATM   11 BR1  UNL     1      27.074  -1.932  52.437  1.00  0.00    -0.051 Br
HETATM   12  C18 UNL     1      26.610   0.844  52.059  1.00  0.00    -0.000 A 
HETATM   13  C19 UNL     1      26.126   2.243  51.990  1.00  0.00     0.042 A 
HETATM   14  C20 UNL     1      26.110   2.615  50.500  1.00  0.00     0.017 C 
HETATM   15  N4  UNL     1      24.729   3.421  53.573  1.00  0.00    -0.356 N 
HETATM   16  H25 UNL     1      25.277   3.491  54.452  1.00  0.00     0.162 HD
ENDROOT
BRANCH   1  17
HETATM   17  N1  UNL     1      22.837   2.287  49.716  1.00  0.00    -0.370 N 
HETATM   18  H16 UNL     1      23.715   2.381  49.122  1.00  0.00     0.161 HD
BRANCH  17  19
HETATM   19  C8  UNL     1      21.912   1.303  49.272  1.00  0.00     0.082 C 
HETATM   20  C9  UNL     1      20.881   1.948  48.334  1.00  0.00     0.032 C 
BRANCH  19  21
HETATM   21  C7  UNL     1      21.251   0.454  50.293  1.00  0.00     0.051 C 
BRANCH  21  22
HETATM   22  C6  UNL     1      19.926   0.831  50.752  1.00  0.00    -0.025 C 
HETATM   23  C5  UNL     1      19.607   1.282  51.968  1.00  0.00    -0.004 C 
BRANCH  23  24
HETATM   24  C4  UNL     1      20.523   1.483  53.072  1.00  0.00    -0.004 C 
HETATM   25  C3  UNL     1      20.896   0.512  53.872  1.00  0.00    -0.027 C 
BRANCH  25  26
HETATM   26  C2  UNL     1      20.571  -0.933  53.942  1.00  0.00     0.022 C 
HETATM   27  C1  UNL     1      21.714  -1.733  54.546  1.00  0.00     0.009 C 
ENDBRANCH  25  26
ENDBRANCH  23  24
ENDBRANCH  21  22
ENDBRANCH  19  21
ENDBRANCH  17  19
ENDBRANCH   1  17
TORSDOF 6
ENDMDL
MODEL 2
REMARK VINA RESULT:      -7.5      3.113      6.245
REMARK  6 active torsions:
REMARK  status: ('A' for Active; 'I' for Inactive)
REMARK    1  A    between atoms: C2_2  and  C3_3 
REMARK    2  A    between atoms: C4_4  and  C5_5 
REMARK    3  A    between atoms: C6_6  and  C7_7 
REMARK    4  A    between atoms: C7_7  and  C8_8 
REMARK    5  A    between atoms: C8_8  and  N1_10 
REMARK    6  A    between atoms: N1_10  and  C10_11 
ROOT
HETATM    1  C10 UNL     1      23.654   1.173  51.985  1.00  0.00     0.138 A 
HETATM    2  N2  UNL     1      22.330   1.354  51.905  1.00  0.00    -0.224 NA
HETATM    3  C11 UNL     1      21.402   0.829  52.709  1.00  0.00     0.237 A 
HETATM    4  N3  UNL     1      21.826   0.031  53.704  1.00  0.00    -0.224 NA
HETATM    5  C12 UNL     1      23.138  -0.214  53.868  1.00  0.00     0.139 A 
HETATM    6  C13 UNL     1      24.072   0.340  53.029  1.00  0.00     0.066 A 
HETATM    7  C14 UNL     1      25.228  -0.284  53.715  1.00  0.00     0.091 A 
HETATM    8  C15 UNL     1      25.986  -1.253  52.925  1.00  0.00     0.011 A 
HETATM    9  C16 UNL     1      27.272  -1.490  52.750  1.00  0.00     0.017 A 
HETATM   10  C17 UNL     1      28.141  -0.598  53.502  1.00  0.00     0.007 A 
HETATM   11 BR1  UNL     1      30.036  -0.725  53.426  1.00  0.00    -0.051 Br
HETATM   12  C18 UNL     1      27.517   0.302  54.238  1.00  0.00    -0.000 A 
HETATM   13  C19 UNL     1      26.097   0.641  54.498  1.00  0.00     0.042 A 
HETATM   14  C20 UNL     1      25.928   2.111  54.086  1.00  0.00     0.017 C 
HETATM   15  N4  UNL     1      24.196  -0.850  54.569  1.00  0.00    -0.356 N 
HETATM   16  H25 UNL     1      24.351  -1.485  55.375  1.00  0.00     0.162 HD
ENDROOT
BRANCH   1  17
HETATM   17  N1  UNL     1      24.477   1.839  51.043  1.00  0.00    -0.370 N 
HETATM   18  H16 UNL     1      25.342   1.236  50.898  1.00  0.00     0.161 HD
BRANCH  17  19
HETATM   19  C8  UNL     1      24.447   3.039  50.280  1.00  0.00     0.082 C 
HETATM   20  C9  UNL     1      23.454   2.887  49.118  1.00  0.00     0.032 C 
BRANCH  19  21
HETATM   21  C7  UNL     1      25.738   3.602  49.813  1.00  0.00     0.051 C 
BRANCH  21  22
HETATM   22  C6  UNL     1      25.771   4.989  49.385  1.00  0.00    -0.025 C 
HETATM   23  C5  UNL     1      26.799   5.617  48.809  1.00  0.00    -0.004 C 
BRANCH  23  24
HETATM   24  C4  UNL     1      28.088   5.035  48.497  1.00  0.00    -0.004 C 
HETATM   25  C3  UNL     1      29.146   5.760  48.214  1.00  0.00    -0.027 C 
BRANCH  25  26
HETATM   26  C2  UNL     1      29.385   7.219  48.121  1.00  0.00     0.022 C 
HETATM   27  C1  UNL     1      29.095   7.744  46.724  1.00  0.00     0.009 C 
ENDBRANCH  25  26
ENDBRANCH  23  24
ENDBRANCH  21  22
ENDBRANCH  19  21
ENDBRANCH  17  19
ENDBRANCH   1  17
TORSDOF 6
ENDMDL
MODEL 3
REMARK VINA RESULT:      -7.5      2.267      4.926
REMARK  6 active torsions:
REMARK  status: ('A' for Active; 'I' for Inactive)
REMARK    1  A    between atoms: C2_2  and  C3_3 
REMARK    2  A    between atoms: C4_4  and  C5_5 
REMARK    3  A    between atoms: C6_6  and  C7_7 
REMARK    4  A    between atoms: C7_7  and  C8_8 
REMARK    5  A    between atoms: C8_8  and  N1_10 
REMARK    6  A    between atoms: N1_10  and  C10_11 
ROOT
HETATM    1  C10 UNL     1      19.843   1.271  51.836  1.00  0.00     0.138 A 
HETATM    2  N2  UNL     1      18.506   1.318  51.860  1.00  0.00    -0.224 NA
HETATM    3  C11 UNL     1      17.738   2.376  51.590  1.00  0.00     0.237 A 
HETATM    4  N3  UNL     1      18.359   3.522  51.262  1.00  0.00    -0.224 NA
HETATM    5  C12 UNL     1      19.702   3.578  51.211  1.00  0.00     0.139 A 
HETATM    6  C13 UNL     1      20.468   2.475  51.491  1.00  0.00     0.066 A 
HETATM    7  C14 UNL     1      21.758   3.169  51.264  1.00  0.00     0.091 A 
HETATM    8  C15 UNL     1      22.618   3.308  52.438  1.00  0.00     0.011 A 
HETATM    9  C16 UNL     1      23.911   3.157  52.653  1.00  0.00     0.017 A 
HETATM   10  C17 UNL     1      24.661   2.766  51.469  1.00  0.00     0.007 A 
HETATM   11 BR1  UNL     1      26.540   2.482  51.505  1.00  0.00    -0.051 Br
HETATM   12  C18 UNL     1      23.941   2.624  50.372  1.00  0.00    -0.000 A 
HETATM   13  C19 UNL     1      22.504   2.770  50.036  1.00  0.00     0.042 A 
HETATM   14  C20 UNL     1      22.056   1.410  49.479  1.00  0.00     0.017 C 
HETATM   15  N4  UNL     1      20.898   4.308  50.984  1.00  0.00    -0.356 N 
HETATM   16  H25 UNL     1      21.215   5.261  50.722  1.00  0.00     0.162 HD
ENDROOT
BRANCH   1  17
HETATM   17  N1  UNL     1      20.475   0.037  52.135  1.00  0.00    -0.370 N 
HETATM   18  H16 UNL     1      20.145  -0.669  51.410  1.00  0.00     0.161 HD
BRANCH  17  19
HETATM   19  C8  UNL     1      21.389  -0.472  53.097  1.00  0.00     0.082 C 
HETATM   20  C9  UNL     1      21.094   0.150  54.471  1.00  0.00     0.032 C 
BRANCH  19  21
HETATM   21  C7  UNL     1      22.838  -0.414  52.782  1.00  0.00     0.051 C 
BRANCH  21  22
HETATM   22  C6  UNL     1      23.773  -0.198  53.872  1.00  0.00    -0.025 C 
HETATM   23  C5  UNL     1      25.084  -0.454  53.854  1.00  0.00    -0.004 C 
BRANCH  23  24
HETATM   24  C4  UNL     1      25.832  -0.999  52.740  1.00  0.00    -0.004 C 
HETATM   25  C3  UNL     1      27.144  -0.979  52.687  1.00  0.00    -0.027 C 
BRANCH  25  26
HETATM   26  C2  UNL     1      28.193  -0.470  53.602  1.00  0.00     0.022 C 
HETATM   27  C1  UNL     1      29.515  -1.191  53.392  1.00  0.00     0.009 C 
ENDBRANCH  25  26
ENDBRANCH  23  24
ENDBRANCH  21  22
ENDBRANCH  19  21
ENDBRANCH  17  19
ENDBRANCH   1  17
TORSDOF 6
ENDMDL
MODEL 4
REMARK VINA RESULT:      -7.4      2.441      5.246
REMARK  6 active torsions:
REMARK  status: ('A' for Active; 'I' for Inactive)
REMARK    1  A    between atoms: C2_2  and  C3_3 
REMARK    2  A    between atoms: C4_4  and  C5_5 
REMARK    3  A    between atoms: C6_6  and  C7_7 
REMARK    4  A    between atoms: C7_7  and  C8_8 
REMARK    5  A    between atoms: C8_8  and  N1_10 
REMARK    6  A    between atoms: N1_10  and  C10_11 
ROOT
HETATM    1  C10 UNL     1      24.639   4.187  50.609  1.00  0.00     0.138 A 
HETATM    2  N2  UNL     1      25.286   5.070  49.839  1.00  0.00    -0.224 NA
HETATM    3  C11 UNL     1      24.826   5.650  48.728  1.00  0.00     0.237 A 
HETATM    4  N3  UNL     1      23.587   5.320  48.326  1.00  0.00    -0.224 NA
HETATM    5  C12 UNL     1      22.855   4.439  49.032  1.00  0.00     0.139 A 
HETATM    6  C13 UNL     1      23.350   3.859  50.172  1.00  0.00     0.066 A 
HETATM    7  C14 UNL     1      22.130   3.060  50.435  1.00  0.00     0.091 A 
HETATM    8  C15 UNL     1      22.293   1.609  50.357  1.00  0.00     0.011 A 
HETATM    9  C16 UNL     1      21.873   0.597  51.092  1.00  0.00     0.017 A 
HETATM   10  C17 UNL     1      21.068   0.996  52.236  1.00  0.00     0.007 A 
HETATM   11 BR1  UNL     1      20.341  -0.267  53.456  1.00  0.00    -0.051 Br
HETATM   12  C18 UNL     1      20.883   2.297  52.364  1.00  0.00    -0.000 A 
HETATM   13  C19 UNL     1      21.306   3.495  51.600  1.00  0.00     0.042 A 
HETATM   14  C20 UNL     1      22.086   4.376  52.588  1.00  0.00     0.017 C 
HETATM   15  N4  UNL     1      21.657   3.700  49.217  1.00  0.00    -0.356 N 
HETATM   16  H25 UNL     1      20.732   3.553  48.771  1.00  0.00     0.162 HD
ENDROOT
BRANCH   1  17
HETATM   17  N1  UNL     1      25.297   3.701  51.766  1.00  0.00    -0.370 N 
HETATM   18  H16 UNL     1      25.494   4.539  52.392  1.00  0.00     0.161 HD
BRANCH  17  19
HETATM   19  C8  UNL     1      25.732   2.450  52.283  1.00  0.00     0.082 C 
HETATM   20  C9  UNL     1      26.340   1.606  51.152  1.00  0.00     0.032 C 
BRANCH  19  21
HETATM   21  C7  UNL     1      24.773   1.655  53.090  1.00  0.00     0.051 C 
BRANCH  21  22
HETATM   22  C6  UNL     1      24.894   0.208  53.078  1.00  0.00    -0.025 C 
HETATM   23  C5  UNL     1      25.648  -0.531  53.895  1.00  0.00    -0.004 C 
BRANCH  23  24
HETATM   24  C4  UNL     1      26.496  -0.032  54.959  1.00  0.00    -0.004 C 
HETATM   25  C3  UNL     1      27.768   0.240  54.785  1.00  0.00    -0.027 C 
BRANCH  25  26
HETATM   26  C2  UNL     1      28.679   0.153  53.619  1.00  0.00     0.022 C 
HETATM   27  C1  UNL     1      29.762  -0.893  53.833  1.00  0.00     0.009 C 
ENDBRANCH  25  26
ENDBRANCH  23  24
ENDBRANCH  21  22
ENDBRANCH  19  21
ENDBRANCH  17  19
ENDBRANCH   1  17
TORSDOF 6
ENDMDL
MODEL 5
REMARK VINA RESULT:      -7.2      2.456      5.130
REMARK  6 active torsions:
REMARK  status: ('A' for Active; 'I' for Inactive)
REMARK    1  A    between atoms: C2_2  and  C3_3 
REMARK    2  A    between atoms: C4_4  and  C5_5 
REMARK    3  A    between atoms: C6_6  and  C7_7 
REMARK    4  A    between atoms: C7_7  and  C8_8 
REMARK    5  A    between atoms: C8_8  and  N1_10 
REMARK    6  A    between atoms: N1_10  and  C10_11 
ROOT
HETATM    1  C10 UNL     1      23.586   1.233  51.944  1.00  0.00     0.138 A 
HETATM    2  N2  UNL     1      22.257   1.367  51.859  1.00  0.00    -0.224 NA
HETATM    3  C11 UNL     1      21.343   0.797  52.648  1.00  0.00     0.237 A 
HETATM    4  N3  UNL     1      21.789   0.000  53.633  1.00  0.00    -0.224 NA
HETATM    5  C12 UNL     1      23.108  -0.200  53.802  1.00  0.00     0.139 A 
HETATM    6  C13 UNL     1      24.028   0.400  52.979  1.00  0.00     0.066 A 
HETATM    7  C14 UNL     1      25.201  -0.193  53.663  1.00  0.00     0.091 A 
HETATM    8  C15 UNL     1      25.998  -1.122  52.864  1.00  0.00     0.011 A 
HETATM    9  C16 UNL     1      27.293  -1.310  52.694  1.00  0.00     0.017 A 
HETATM   10  C17 UNL     1      28.124  -0.399  53.466  1.00  0.00     0.007 A 
HETATM   11 BR1  UNL     1      30.023  -0.457  53.401  1.00  0.00    -0.051 Br
HETATM   12  C18 UNL     1      27.464   0.467  54.211  1.00  0.00    -0.000 A 
HETATM   13  C19 UNL     1      26.031   0.750  54.466  1.00  0.00     0.042 A 
HETATM   14  C20 UNL     1      25.811   2.220  54.075  1.00  0.00     0.017 C 
HETATM   15  N4  UNL     1      24.184  -0.808  54.502  1.00  0.00    -0.356 N 
HETATM   16  H25 UNL     1      24.357  -1.450  55.299  1.00  0.00     0.162 HD
ENDROOT
BRANCH   1  17
HETATM   17  N1  UNL     1      24.391   1.943  51.019  1.00  0.00    -0.370 N 
HETATM   18  H16 UNL     1      25.200   1.305  50.751  1.00  0.00     0.161 HD
BRANCH  17  19
HETATM   19  C8  UNL     1      24.394   3.216  50.386  1.00  0.00     0.082 C 
HETATM   20  C9  UNL     1      23.709   3.114  49.015  1.00  0.00     0.032 C 
BRANCH  19  21
HETATM   21  C7  UNL     1      25.684   3.944  50.288  1.00  0.00     0.051 C 
BRANCH  21  22
HETATM   22  C6  UNL     1      25.875   4.865  49.182  1.00  0.00    -0.025 C 
HETATM   23  C5  UNL     1      25.793   6.197  49.237  1.00  0.00    -0.004 C 
BRANCH  23  24
HETATM   24  C4  UNL     1      25.498   6.987  50.415  1.00  0.00    -0.004 C 
HETATM   25  C3  UNL     1      24.285   7.387  50.717  1.00  0.00    -0.027 C 
BRANCH  25  26
HETATM   26  C2  UNL     1      22.963   7.211  50.069  1.00  0.00     0.022 C 
HETATM   27  C1  UNL     1      22.122   6.169  50.789  1.00  0.00     0.009 C 
ENDBRANCH  25  26
ENDBRANCH  23  24
ENDBRANCH  21  22
ENDBRANCH  19  21
ENDBRANCH  17  19
ENDBRANCH   1  17
TORSDOF 6
ENDMDL
MODEL 6
REMARK VINA RESULT:      -7.2      3.209      6.377
REMARK  6 active torsions:
REMARK  status: ('A' for Active; 'I' for Inactive)
REMARK    1  A    between atoms: C2_2  and  C3_3 
REMARK    2  A    between atoms: C4_4  and  C5_5 
REMARK    3  A    between atoms: C6_6  and  C7_7 
REMARK    4  A    between atoms: C7_7  and  C8_8 
REMARK    5  A    between atoms: C8_8  and  N1_10 
REMARK    6  A    between atoms: N1_10  and  C10_11 
ROOT
HETATM    1  C10 UNL     1      22.304   0.229  53.119  1.00  0.00     0.138 A 
HETATM    2  N2  UNL     1      22.468  -0.817  53.939  1.00  0.00    -0.224 NA
HETATM    3  C11 UNL     1      21.517  -1.643  54.382  1.00  0.00     0.237 A 
HETATM    4  N3  UNL     1      20.258  -1.412  53.973  1.00  0.00    -0.224 NA
HETATM    5  C12 UNL     1      19.989  -0.384  53.148  1.00  0.00     0.139 A 
HETATM    6  C13 UNL     1      20.985   0.450  52.705  1.00  0.00     0.066 A 
HETATM    7  C14 UNL     1      20.077   1.295  51.894  1.00  0.00     0.091 A 
HETATM    8  C15 UNL     1      19.945   2.684  52.330  1.00  0.00     0.011 A 
HETATM    9  C16 UNL     1      19.918   3.845  51.704  1.00  0.00     0.017 A 
HETATM   10  C17 UNL     1      20.044   3.735  50.259  1.00  0.00     0.007 A 
HETATM   11 BR1  UNL     1      20.035   5.258  49.121  1.00  0.00    -0.051 Br
HETATM   12  C18 UNL     1      20.167   2.504  49.800  1.00  0.00    -0.000 A 
HETATM   13  C19 UNL     1      20.206   1.156  50.415  1.00  0.00     0.042 A 
HETATM   14  C20 UNL     1      21.544   0.532  49.989  1.00  0.00     0.017 C 
HETATM   15  N4  UNL     1      19.060   0.385  52.399  1.00  0.00    -0.356 N 
HETATM   16  H25 UNL     1      18.045   0.426  52.186  1.00  0.00     0.162 HD
ENDROOT
BRANCH   1  17
HETATM   17  N1  UNL     1      23.450   0.974  52.747  1.00  0.00    -0.370 N 
HETATM   18  H16 UNL     1      23.978   0.398  52.024  1.00  0.00     0.161 HD
BRANCH  17  19
HETATM   19  C8  UNL     1      24.043   2.226  53.068  1.00  0.00     0.082 C 
HETATM   20  C9  UNL     1      23.606   3.282  52.042  1.00  0.00     0.032 C 
BRANCH  19  21
HETATM   21  C7  UNL     1      25.509   2.268  53.291  1.00  0.00     0.051 C 
BRANCH  21  22
HETATM   22  C6  UNL     1      26.386   2.169  52.138  1.00  0.00    -0.025 C 
HETATM   23  C5  UNL     1      26.886   1.046  51.616  1.00  0.00    -0.004 C 
BRANCH  23  24
HETATM   24  C4  UNL     1      26.650  -0.299  52.100  1.00  0.00    -0.004 C 
HETATM   25  C3  UNL     1      27.475  -0.916  52.914  1.00  0.00    -0.027 C 
BRANCH  25  26
HETATM   26  C2  UNL     1      28.760  -0.533  53.547  1.00  0.00     0.022 C 
HETATM   27  C1  UNL     1      28.540   0.158  54.883  1.00  0.00     0.009 C 
ENDBRANCH  25  26
ENDBRANCH  23  24
ENDBRANCH  21  22
ENDBRANCH  19  21
ENDBRANCH  17  19
ENDBRANCH   1  17
TORSDOF 6
ENDMDL
MODEL 7
REMARK VINA RESULT:      -7.2      3.177      6.525
REMARK  6 active torsions:
REMARK  status: ('A' for Active; 'I' for Inactive)
REMARK    1  A    between atoms: C2_2  and  C3_3 
REMARK    2  A    between atoms: C4_4  and  C5_5 
REMARK    3  A    between atoms: C6_6  and  C7_7 
REMARK    4  A    between atoms: C7_7  and  C8_8 
REMARK    5  A    between atoms: C8_8  and  N1_10 
REMARK    6  A    between atoms: N1_10  and  C10_11 
ROOT
HETATM    1  C10 UNL     1      23.142   0.655  52.900  1.00  0.00     0.138 A 
HETATM    2  N2  UNL     1      22.973  -0.357  53.760  1.00  0.00    -0.224 NA
HETATM    3  C11 UNL     1      21.854  -0.668  54.418  1.00  0.00     0.237 A 
HETATM    4  N3  UNL     1      20.777   0.108  54.208  1.00  0.00    -0.224 NA
HETATM    5  C12 UNL     1      20.845   1.151  53.362  1.00  0.00     0.139 A 
HETATM    6  C13 UNL     1      22.007   1.449  52.696  1.00  0.00     0.066 A 
HETATM    7  C14 UNL     1      21.437   2.617  51.984  1.00  0.00     0.091 A 
HETATM    8  C15 UNL     1      22.019   3.914  52.327  1.00  0.00     0.011 A 
HETATM    9  C16 UNL     1      22.395   4.966  51.625  1.00  0.00     0.017 A 
HETATM   10  C17 UNL     1      22.191   4.819  50.192  1.00  0.00     0.007 A 
HETATM   11 BR1  UNL     1      22.650   6.189  48.956  1.00  0.00    -0.051 Br
HETATM   12  C18 UNL     1      21.667   3.668  49.816  1.00  0.00    -0.000 A 
HETATM   13  C19 UNL     1      21.217   2.443  50.520  1.00  0.00     0.042 A 
HETATM   14  C20 UNL     1      22.034   1.285  49.926  1.00  0.00     0.017 C 
HETATM   15  N4  UNL     1      20.234   2.261  52.721  1.00  0.00    -0.356 N 
HETATM   16  H25 UNL     1      19.323   2.756  52.677  1.00  0.00     0.162 HD
ENDROOT
BRANCH   1  17
HETATM   17  N1  UNL     1      24.410   0.805  52.285  1.00  0.00    -0.370 N 
HETATM   18  H16 UNL     1      24.442   0.131  51.462  1.00  0.00     0.161 HD
BRANCH  17  19
HETATM   19  C8  UNL     1      25.584   1.586  52.469  1.00  0.00     0.082 C 
HETATM   20  C9  UNL     1      25.362   2.593  53.607  1.00  0.00     0.032 C 
BRANCH  19  21
HETATM   21  C7  UNL     1      26.179   2.243  51.279  1.00  0.00     0.051 C 
BRANCH  21  22
HETATM   22  C6  UNL     1      25.307   3.002  50.402  1.00  0.00    -0.025 C 
HETATM   23  C5  UNL     1      25.689   3.857  49.450  1.00  0.00    -0.004 C 
BRANCH  23  24
HETATM   24  C4  UNL     1      27.055   4.194  49.104  1.00  0.00    -0.004 C 
HETATM   25  C3  UNL     1      27.401   5.374  48.643  1.00  0.00    -0.027 C 
BRANCH  25  26
HETATM   26  C2  UNL     1      26.645   6.614  48.347  1.00  0.00     0.022 C 
HETATM   27  C1  UNL     1      26.360   7.410  49.610  1.00  0.00     0.009 C 
ENDBRANCH  25  26
ENDBRANCH  23  24
ENDBRANCH  21  22
ENDBRANCH  19  21
ENDBRANCH  17  19
ENDBRANCH   1  17
TORSDOF 6
ENDMDL
MODEL 8
REMARK VINA RESULT:      -7.1      1.602      2.313
REMARK  6 active torsions:
REMARK  status: ('A' for Active; 'I' for Inactive)
REMARK    1  A    between atoms: C2_2  and  C3_3 
REMARK    2  A    between atoms: C4_4  and  C5_5 
REMARK    3  A    between atoms: C6_6  and  C7_7 
REMARK    4  A    between atoms: C7_7  and  C8_8 
REMARK    5  A    between atoms: C8_8  and  N1_10 
REMARK    6  A    between atoms: N1_10  and  C10_11 
ROOT
HETATM    1  C10 UNL     1      21.560   4.675  50.112  1.00  0.00     0.138 A 
HETATM    2  N2  UNL     1      20.774   5.719  49.822  1.00  0.00    -0.224 NA
HETATM    3  C11 UNL     1      20.973   6.992  50.173  1.00  0.00     0.237 A 
HETATM    4  N3  UNL     1      22.071   7.269  50.896  1.00  0.00    -0.224 NA
HETATM    5  C12 UNL     1      22.925   6.288  51.239  1.00  0.00     0.139 A 
HETATM    6  C13 UNL     1      22.700   4.988  50.864  1.00  0.00     0.066 A 
HETATM    7  C14 UNL     1      23.925   4.465  51.513  1.00  0.00     0.091 A 
HETATM    8  C15 UNL     1      23.708   3.541  52.624  1.00  0.00     0.011 A 
HETATM    9  C16 UNL     1      24.262   2.402  52.993  1.00  0.00     0.017 A 
HETATM   10  C17 UNL     1      25.327   1.953  52.108  1.00  0.00     0.007 A 
HETATM   11 BR1  UNL     1      26.288   0.342  52.413  1.00  0.00    -0.051 Br
HETATM   12  C18 UNL     1      25.573   2.746  51.082  1.00  0.00    -0.000 A 
HETATM   13  C19 UNL     1      25.013   4.028  50.592  1.00  0.00     0.042 A 
HETATM   14  C20 UNL     1      24.515   3.757  49.164  1.00  0.00     0.017 C 
HETATM   15  N4  UNL     1      24.112   5.858  51.889  1.00  0.00    -0.356 N 
HETATM   16  H25 UNL     1      24.900   6.238  52.447  1.00  0.00     0.162 HD
ENDROOT
BRANCH   1  17
HETATM   17  N1  UNL     1      21.184   3.398  49.626  1.00  0.00    -0.370 N 
HETATM   18  H16 UNL     1      20.790   3.538  48.647  1.00  0.00     0.161 HD
BRANCH  17  19
HETATM   19  C8  UNL     1      21.200   2.051  50.081  1.00  0.00     0.082 C 
HETATM   20  C9  UNL     1      21.380   1.104  48.885  1.00  0.00     0.032 C 
BRANCH  19  21
HETATM   21  C7  UNL     1      20.097   1.599  50.963  1.00  0.00     0.051 C 
BRANCH  21  22
HETATM   22  C6  UNL     1      20.285   1.681  52.401  1.00  0.00    -0.025 C 
HETATM   23  C5  UNL     1      21.021   0.857  53.152  1.00  0.00    -0.004 C 
BRANCH  23  24
HETATM   24  C4  UNL     1      21.779  -0.283  52.677  1.00  0.00    -0.004 C 
HETATM   25  C3  UNL     1      22.376  -1.127  53.487  1.00  0.00    -0.027 C 
BRANCH  25  26
HETATM   26  C2  UNL     1      22.484  -1.219  54.962  1.00  0.00     0.022 C 
HETATM   27  C1  UNL     1      23.934  -1.182  55.418  1.00  0.00     0.009 C 
ENDBRANCH  25  26
ENDBRANCH  23  24
ENDBRANCH  21  22
ENDBRANCH  19  21
ENDBRANCH  17  19
ENDBRANCH   1  17
TORSDOF 6
ENDMDL
MODEL 9
REMARK VINA RESULT:      -7.0      3.080      6.233
REMARK  6 active torsions:
REMARK  status: ('A' for Active; 'I' for Inactive)
REMARK    1  A    between atoms: C2_2  and  C3_3 
REMARK    2  A    between atoms: C4_4  and  C5_5 
REMARK    3  A    between atoms: C6_6  and  C7_7 
REMARK    4  A    between atoms: C7_7  and  C8_8 
REMARK    5  A    between atoms: C8_8  and  N1_10 
REMARK    6  A    between atoms: N1_10  and  C10_11 
ROOT
HETATM    1  C10 UNL     1      22.714   0.365  53.192  1.00  0.00     0.138 A 
HETATM    2  N2  UNL     1      22.957  -0.668  54.007  1.00  0.00    -0.224 NA
HETATM    3  C11 UNL     1      22.062  -1.531  54.494  1.00  0.00     0.237 A 
HETATM    4  N3  UNL     1      20.778  -1.356  54.139  1.00  0.00    -0.224 NA
HETATM    5  C12 UNL     1      20.430  -0.345  53.323  1.00  0.00     0.139 A 
HETATM    6  C13 UNL     1      21.370   0.528  52.834  1.00  0.00     0.066 A 
HETATM    7  C14 UNL     1      20.393   1.330  52.060  1.00  0.00     0.091 A 
HETATM    8  C15 UNL     1      20.222   2.714  52.497  1.00  0.00     0.011 A 
HETATM    9  C16 UNL     1      20.118   3.870  51.869  1.00  0.00     0.017 A 
HETATM   10  C17 UNL     1      20.187   3.757  50.419  1.00  0.00     0.007 A 
HETATM   11 BR1  UNL     1      20.064   5.272  49.277  1.00  0.00    -0.051 Br
HETATM   12  C18 UNL     1      20.341   2.530  49.960  1.00  0.00    -0.000 A 
HETATM   13  C19 UNL     1      20.464   1.188  50.578  1.00  0.00     0.042 A 
HETATM   14  C20 UNL     1      21.807   0.619  50.096  1.00  0.00     0.017 C 
HETATM   15  N4  UNL     1      19.438   0.381  52.612  1.00  0.00    -0.356 N 
HETATM   16  H25 UNL     1      18.414   0.378  52.443  1.00  0.00     0.162 HD
ENDROOT
BRANCH   1  17
HETATM   17  N1  UNL     1      23.811   1.155  52.767  1.00  0.00    -0.370 N 
HETATM   18  H16 UNL     1      23.412   1.983  52.229  1.00  0.00     0.161 HD
BRANCH  17  19
HETATM   19  C8  UNL     1      25.228   1.133  52.873  1.00  0.00     0.082 C 
HETATM   20  C9  UNL     1      25.695   2.265  53.800  1.00  0.00     0.032 C 
BRANCH  19  21
HETATM   21  C7  UNL     1      26.022   1.104  51.619  1.00  0.00     0.051 C 
BRANCH  21  22
HETATM   22  C6  UNL     1      26.615   2.343  51.150  1.00  0.00    -0.025 C 
HETATM   23  C5  UNL     1      26.039   3.246  50.353  1.00  0.00    -0.004 C 
BRANCH  23  24
HETATM   24  C4  UNL     1      24.702   3.167  49.800  1.00  0.00    -0.004 C 
HETATM   25  C3  UNL     1      23.750   4.013  50.117  1.00  0.00    -0.027 C 
BRANCH  25  26
HETATM   26  C2  UNL     1      23.689   5.186  51.022  1.00  0.00     0.022 C 
HETATM   27  C1  UNL     1      23.467   4.766  52.466  1.00  0.00     0.009 C 
ENDBRANCH  25  26
ENDBRANCH  23  24
ENDBRANCH  21  22
ENDBRANCH  19  21
ENDBRANCH  17  19
ENDBRANCH   1  17
TORSDOF 6
ENDMDL
