MODEL 1
REMARK VINA RESULT:      -8.5      0.000      0.000
REMARK  3 active torsions:
REMARK  status: ('A' for Active; 'I' for Inactive)
REMARK    1  A    between atoms: C2_2  and  N1_3 
REMARK    2  A    between atoms: C2_2  and  C13_17 
REMARK    3  A    between atoms: N1_3  and  C3_4 
ROOT
HETATM    1  C3  UNL     1      25.674   2.490  51.739  1.00  0.00     0.295 A 
HETATM    2  C4  UNL     1      25.775   1.094  51.981  1.00  0.00    -0.003 A 
HETATM    3  C5  UNL     1      26.863   2.019  52.380  1.00  0.00     0.027 A 
HETATM    4  S1  UNL     1      28.417   1.708  53.174  1.00  0.00    -0.099 SA
HETATM    5  C6  UNL     1      28.474   0.296  54.262  1.00  0.00     0.211 C 
HETATM    6  N2  UNL     1      27.181  -0.320  54.514  1.00  0.00    -0.370 N 
HETATM    7  C7  UNL     1      26.815  -0.883  53.220  1.00  0.00     0.029 C 
HETATM    8  C8  UNL     1      25.994  -0.333  52.284  1.00  0.00     0.040 C 
HETATM    9  C9  UNL     1      27.276  -2.193  52.631  1.00  0.00     0.029 C 
HETATM   10  C10 UNL     1      28.531  -2.666  52.838  1.00  0.00     0.005 C 
HETATM   11  C11 UNL     1      29.653  -1.949  53.482  1.00  0.00     0.041 C 
HETATM   12  C12 UNL     1      29.543  -0.689  53.942  1.00  0.00     0.126 C 
HETATM   13  F1  UNL     1      30.812  -0.208  54.172  1.00  0.00    -0.208 F 
HETATM   14  H8  UNL     1      26.806  -0.237  55.528  1.00  0.00     0.161 HD
ENDROOT
BRANCH   1  15
HETATM   15  N1  UNL     1      24.803   3.349  52.543  1.00  0.00     0.106 N 
HETATM   16  H5  UNL     1      24.600   2.949  53.469  1.00  0.00     0.318 HD
BRANCH  15  17
HETATM   17  C2  UNL     1      23.613   3.714  51.822  1.00  0.00     0.250 C 
HETATM   18  C1  UNL     1      22.815   4.783  52.513  1.00  0.00     0.048 C 
BRANCH  17  19
HETATM   19  C13 UNL     1      22.756   2.504  51.592  1.00  0.00    -0.026 A 
HETATM   20  C14 UNL     1      22.491   2.170  50.274  1.00  0.00     0.009 A 
HETATM   21  C15 UNL     1      21.696   1.050  50.010  1.00  0.00     0.001 A 
HETATM   22  C16 UNL     1      21.166   0.262  51.013  1.00  0.00     0.000 A 
HETATM   23  C17 UNL     1      21.468   0.649  52.301  1.00  0.00     0.001 A 
HETATM   24  C18 UNL     1      22.243   1.739  52.630  1.00  0.00     0.009 A 
ENDBRANCH  17  19
ENDBRANCH  15  17
ENDBRANCH   1  15
TORSDOF 3
ENDMDL
MODEL 2
REMARK VINA RESULT:      -8.4      4.842      8.092
REMARK  3 active torsions:
REMARK  status: ('A' for Active; 'I' for Inactive)
REMARK    1  A    between atoms: C2_2  and  N1_3 
REMARK    2  A    between atoms: C2_2  and  C13_17 
REMARK    3  A    between atoms: N1_3  and  C3_4 
ROOT
HETATM    1  C3  UNL     1      26.313   3.380  50.133  1.00  0.00     0.295 A 
HETATM    2  C4  UNL     1      26.865   4.421  49.339  1.00  0.00    -0.003 A 
HETATM    3  C5  UNL     1      25.621   4.631  50.117  1.00  0.00     0.027 A 
HETATM    4  S1  UNL     1      24.577   6.055  50.275  1.00  0.00    -0.099 SA
HETATM    5  C6  UNL     1      25.375   7.639  50.084  1.00  0.00     0.211 C 
HETATM    6  N2  UNL     1      26.827   7.574  50.012  1.00  0.00    -0.370 N 
HETATM    7  C7  UNL     1      27.073   6.897  48.745  1.00  0.00     0.029 C 
HETATM    8  C8  UNL     1      27.340   5.576  48.554  1.00  0.00     0.040 C 
HETATM    9  C9  UNL     1      27.075   7.511  47.367  1.00  0.00     0.029 C 
HETATM   10  C10 UNL     1      26.222   8.510  47.031  1.00  0.00     0.005 C 
HETATM   11  C11 UNL     1      25.092   9.021  47.839  1.00  0.00     0.041 C 
HETATM   12  C12 UNL     1      24.773   8.515  49.043  1.00  0.00     0.126 C 
HETATM   13  F1  UNL     1      23.514   8.964  49.374  1.00  0.00    -0.208 F 
HETATM   14  H8  UNL     1      27.363   8.012  50.847  1.00  0.00     0.161 HD
ENDROOT
BRANCH   1  15
HETATM   15  N1  UNL     1      26.911   2.986  51.409  1.00  0.00     0.106 N 
HETATM   16  H5  UNL     1      27.929   2.851  51.344  1.00  0.00     0.318 HD
BRANCH  15  17
HETATM   17  C2  UNL     1      26.236   1.851  51.979  1.00  0.00     0.250 C 
HETATM   18  C1  UNL     1      25.216   2.235  53.014  1.00  0.00     0.048 C 
BRANCH  17  19
HETATM   19  C13 UNL     1      27.234   0.900  52.572  1.00  0.00    -0.026 A 
HETATM   20  C14 UNL     1      28.346   1.462  53.178  1.00  0.00     0.009 A 
HETATM   21  C15 UNL     1      29.304   0.614  53.744  1.00  0.00     0.001 A 
HETATM   22  C16 UNL     1      29.185  -0.761  53.722  1.00  0.00     0.000 A 
HETATM   23  C17 UNL     1      28.056  -1.255  53.104  1.00  0.00     0.001 A 
HETATM   24  C18 UNL     1      27.076  -0.478  52.528  1.00  0.00     0.009 A 
ENDBRANCH  17  19
ENDBRANCH  15  17
ENDBRANCH   1  15
TORSDOF 3
ENDMDL
MODEL 3
REMARK VINA RESULT:      -8.0      1.986      3.268
REMARK  3 active torsions:
REMARK  status: ('A' for Active; 'I' for Inactive)
REMARK    1  A    between atoms: C2_2  and  N1_3 
REMARK    2  A    between atoms: C2_2  and  C13_17 
REMARK    3  A    between atoms: N1_3  and  C3_4 
ROOT
HETATM    1  C3  UNL     1      23.073   0.351  53.410  1.00  0.00     0.295 A 
HETATM    2  C4  UNL     1      24.192   1.218  53.292  1.00  0.00    -0.003 A 
HETATM    3  C5  UNL     1      24.371  -0.250  53.379  1.00  0.00     0.027 A 
HETATM    4  S1  UNL     1      25.839  -1.244  53.367  1.00  0.00    -0.099 SA
HETATM    5  C6  UNL     1      27.230  -0.576  52.472  1.00  0.00     0.211 C 
HETATM    6  N2  UNL     1      26.929   0.617  51.698  1.00  0.00    -0.370 N 
HETATM    7  C7  UNL     1      26.648   1.621  52.718  1.00  0.00     0.029 C 
HETATM    8  C8  UNL     1      25.428   2.015  53.173  1.00  0.00     0.040 C 
HETATM    9  C9  UNL     1      27.651   2.433  53.500  1.00  0.00     0.029 C 
HETATM   10  C10 UNL     1      28.843   1.913  53.887  1.00  0.00     0.005 C 
HETATM   11  C11 UNL     1      29.271   0.502  53.778  1.00  0.00     0.041 C 
HETATM   12  C12 UNL     1      28.482  -0.461  53.269  1.00  0.00     0.126 C 
HETATM   13  F1  UNL     1      29.026  -1.680  53.605  1.00  0.00    -0.208 F 
HETATM   14  H8  UNL     1      26.980   0.509  50.621  1.00  0.00     0.161 HD
ENDROOT
BRANCH   1  15
HETATM   15  N1  UNL     1      22.200   0.063  52.272  1.00  0.00     0.106 N 
HETATM   16  H5  UNL     1      22.700  -0.391  51.495  1.00  0.00     0.318 HD
BRANCH  15  17
HETATM   17  C2  UNL     1      21.472   1.232  51.856  1.00  0.00     0.250 C 
HETATM   18  C1  UNL     1      19.984   1.033  51.877  1.00  0.00     0.048 C 
BRANCH  17  19
HETATM   19  C13 UNL     1      21.914   1.655  50.486  1.00  0.00    -0.026 A 
HETATM   20  C14 UNL     1      21.289   1.042  49.413  1.00  0.00     0.009 A 
HETATM   21  C15 UNL     1      21.668   1.404  48.116  1.00  0.00     0.001 A 
HETATM   22  C16 UNL     1      22.641   2.351  47.864  1.00  0.00     0.000 A 
HETATM   23  C17 UNL     1      23.223   2.923  48.975  1.00  0.00     0.001 A 
HETATM   24  C18 UNL     1      22.897   2.612  50.276  1.00  0.00     0.009 A 
ENDBRANCH  17  19
ENDBRANCH  15  17
ENDBRANCH   1  15
TORSDOF 3
ENDMDL
MODEL 4
REMARK VINA RESULT:      -7.9      4.356      7.851
REMARK  3 active torsions:
REMARK  status: ('A' for Active; 'I' for Inactive)
REMARK    1  A    between atoms: C2_2  and  N1_3 
REMARK    2  A    between atoms: C2_2  and  C13_17 
REMARK    3  A    between atoms: N1_3  and  C3_4 
ROOT
HETATM    1  C3  UNL     1      24.596   2.967  50.938  1.00  0.00     0.295 A 
HETATM    2  C4  UNL     1      25.343   3.911  50.184  1.00  0.00    -0.003 A 
HETATM    3  C5  UNL     1      24.078   4.298  50.852  1.00  0.00     0.027 A 
HETATM    4  S1  UNL     1      23.222   5.849  50.907  1.00  0.00    -0.099 SA
HETATM    5  C6  UNL     1      24.237   7.310  50.769  1.00  0.00     0.211 C 
HETATM    6  N2  UNL     1      25.667   7.055  50.820  1.00  0.00    -0.370 N 
HETATM    7  C7  UNL     1      25.926   6.325  49.585  1.00  0.00     0.029 C 
HETATM    8  C8  UNL     1      26.030   4.976  49.430  1.00  0.00     0.040 C 
HETATM    9  C9  UNL     1      26.122   6.904  48.205  1.00  0.00     0.029 C 
HETATM   10  C10 UNL     1      25.439   8.000  47.789  1.00  0.00     0.005 C 
HETATM   11  C11 UNL     1      24.324   8.670  48.494  1.00  0.00     0.041 C 
HETATM   12  C12 UNL     1      23.843   8.236  49.672  1.00  0.00     0.126 C 
HETATM   13  F1  UNL     1      22.632   8.853  49.891  1.00  0.00    -0.208 F 
HETATM   14  H8  UNL     1      26.186   7.436  51.692  1.00  0.00     0.161 HD
ENDROOT
BRANCH   1  15
HETATM   15  N1  UNL     1      25.029   2.526  52.265  1.00  0.00     0.106 N 
HETATM   16  H5  UNL     1      25.774   3.119  52.654  1.00  0.00     0.318 HD
BRANCH  15  17
HETATM   17  C2  UNL     1      25.372   1.129  52.269  1.00  0.00     0.250 C 
HETATM   18  C1  UNL     1      24.393   0.288  53.038  1.00  0.00     0.048 C 
BRANCH  17  19
HETATM   19  C13 UNL     1      26.755   0.938  52.820  1.00  0.00    -0.026 A 
HETATM   20  C14 UNL     1      27.451   2.084  53.167  1.00  0.00     0.009 A 
HETATM   21  C15 UNL     1      28.744   1.956  53.684  1.00  0.00     0.001 A 
HETATM   22  C16 UNL     1      29.354   0.730  53.864  1.00  0.00     0.000 A 
HETATM   23  C17 UNL     1      28.607  -0.370  53.500  1.00  0.00     0.001 A 
HETATM   24  C18 UNL     1      27.331  -0.314  52.985  1.00  0.00     0.009 A 
ENDBRANCH  17  19
ENDBRANCH  15  17
ENDBRANCH   1  15
TORSDOF 3
ENDMDL
MODEL 5
REMARK VINA RESULT:      -7.9      5.540      7.943
REMARK  3 active torsions:
REMARK  status: ('A' for Active; 'I' for Inactive)
REMARK    1  A    between atoms: C2_2  and  N1_3 
REMARK    2  A    between atoms: C2_2  and  C13_17 
REMARK    3  A    between atoms: N1_3  and  C3_4 
ROOT
HETATM    1  C3  UNL     1      26.327   3.883  49.574  1.00  0.00     0.295 A 
HETATM    2  C4  UNL     1      27.344   4.635  48.926  1.00  0.00    -0.003 A 
HETATM    3  C5  UNL     1      26.040   5.250  49.269  1.00  0.00     0.027 A 
HETATM    4  S1  UNL     1      25.428   6.893  49.009  1.00  0.00    -0.099 SA
HETATM    5  C6  UNL     1      26.652   8.190  48.976  1.00  0.00     0.211 C 
HETATM    6  N2  UNL     1      27.989   7.764  49.359  1.00  0.00    -0.370 N 
HETATM    7  C7  UNL     1      28.384   6.875  48.274  1.00  0.00     0.029 C 
HETATM    8  C8  UNL     1      28.319   5.515  48.256  1.00  0.00     0.040 C 
HETATM    9  C9  UNL     1      28.942   7.268  46.928  1.00  0.00     0.029 C 
HETATM   10  C10 UNL     1      28.526   8.388  46.284  1.00  0.00     0.005 C 
HETATM   11  C11 UNL     1      27.402   9.267  46.672  1.00  0.00     0.041 C 
HETATM   12  C12 UNL     1      26.631   9.031  47.748  1.00  0.00     0.126 C 
HETATM   13  F1  UNL     1      25.505   9.816  47.647  1.00  0.00    -0.208 F 
HETATM   14  H8  UNL     1      28.368   8.171  50.289  1.00  0.00     0.161 HD
ENDROOT
BRANCH   1  15
HETATM   15  N1  UNL     1      26.410   3.540  50.994  1.00  0.00     0.106 N 
HETATM   16  H5  UNL     1      27.355   3.241  51.274  1.00  0.00     0.318 HD
BRANCH  15  17
HETATM   17  C2  UNL     1      25.394   2.593  51.368  1.00  0.00     0.250 C 
HETATM   18  C1  UNL     1      24.185   3.242  51.978  1.00  0.00     0.048 C 
BRANCH  17  19
HETATM   19  C13 UNL     1      25.960   1.574  52.313  1.00  0.00    -0.026 A 
HETATM   20  C14 UNL     1      26.522   0.442  51.745  1.00  0.00     0.009 A 
HETATM   21  C15 UNL     1      27.062  -0.536  52.587  1.00  0.00     0.001 A 
HETATM   22  C16 UNL     1      27.058  -0.417  53.962  1.00  0.00     0.000 A 
HETATM   23  C17 UNL     1      26.485   0.733  54.462  1.00  0.00     0.001 A 
HETATM   24  C18 UNL     1      25.936   1.733  53.692  1.00  0.00     0.009 A 
ENDBRANCH  17  19
ENDBRANCH  15  17
ENDBRANCH   1  15
TORSDOF 3
ENDMDL
MODEL 6
REMARK VINA RESULT:      -7.9      3.490      7.291
REMARK  3 active torsions:
REMARK  status: ('A' for Active; 'I' for Inactive)
REMARK    1  A    between atoms: C2_2  and  N1_3 
REMARK    2  A    between atoms: C2_2  and  C13_17 
REMARK    3  A    between atoms: N1_3  and  C3_4 
ROOT
HETATM    1  C3  UNL     1      24.470   0.745  52.306  1.00  0.00     0.295 A 
HETATM    2  C4  UNL     1      23.187   1.213  51.915  1.00  0.00    -0.003 A 
HETATM    3  C5  UNL     1      23.331   0.051  52.823  1.00  0.00     0.027 A 
HETATM    4  S1  UNL     1      22.111  -0.977  53.596  1.00  0.00    -0.099 SA
HETATM    5  C6  UNL     1      20.540  -0.204  53.942  1.00  0.00     0.211 C 
HETATM    6  N2  UNL     1      20.516   1.233  53.722  1.00  0.00    -0.370 N 
HETATM    7  C7  UNL     1      20.662   1.356  52.276  1.00  0.00     0.029 C 
HETATM    8  C8  UNL     1      21.805   1.607  51.581  1.00  0.00     0.040 C 
HETATM    9  C9  UNL     1      19.579   1.221  51.235  1.00  0.00     0.029 C 
HETATM   10  C10 UNL     1      18.560   0.337  51.376  1.00  0.00     0.005 C 
HETATM   11  C11 UNL     1      18.433  -0.709  52.414  1.00  0.00     0.041 C 
HETATM   12  C12 UNL     1      19.363  -0.908  53.365  1.00  0.00     0.126 C 
HETATM   13  F1  UNL     1      19.119  -2.130  53.951  1.00  0.00    -0.208 F 
HETATM   14  H8  UNL     1      20.401   1.847  54.608  1.00  0.00     0.161 HD
ENDROOT
BRANCH   1  15
HETATM   15  N1  UNL     1      25.287   1.465  53.283  1.00  0.00     0.106 N 
HETATM   16  H5  UNL     1      24.789   2.262  53.704  1.00  0.00     0.318 HD
BRANCH  15  17
HETATM   17  C2  UNL     1      26.563   1.837  52.732  1.00  0.00     0.250 C 
HETATM   18  C1  UNL     1      26.503   2.120  51.258  1.00  0.00     0.048 C 
BRANCH  17  19
HETATM   19  C13 UNL     1      27.577   0.766  53.007  1.00  0.00    -0.026 A 
HETATM   20  C14 UNL     1      28.817   1.184  53.462  1.00  0.00     0.009 A 
HETATM   21  C15 UNL     1      29.795   0.221  53.732  1.00  0.00     0.001 A 
HETATM   22  C16 UNL     1      29.572  -1.131  53.564  1.00  0.00     0.000 A 
HETATM   23  C17 UNL     1      28.318  -1.480  53.110  1.00  0.00     0.001 A 
HETATM   24  C18 UNL     1      27.312  -0.584  52.825  1.00  0.00     0.009 A 
ENDBRANCH  17  19
ENDBRANCH  15  17
ENDBRANCH   1  15
TORSDOF 3
ENDMDL
MODEL 7
REMARK VINA RESULT:      -7.8      3.328      5.231
REMARK  3 active torsions:
REMARK  status: ('A' for Active; 'I' for Inactive)
REMARK    1  A    between atoms: C2_2  and  N1_3 
REMARK    2  A    between atoms: C2_2  and  C13_17 
REMARK    3  A    between atoms: N1_3  and  C3_4 
ROOT
HETATM    1  C3  UNL     1      26.434   3.605  49.485  1.00  0.00     0.295 A 
HETATM    2  C4  UNL     1      25.231   3.315  50.183  1.00  0.00    -0.003 A 
HETATM    3  C5  UNL     1      26.520   2.716  50.602  1.00  0.00     0.027 A 
HETATM    4  S1  UNL     1      26.907   1.601  51.925  1.00  0.00    -0.099 SA
HETATM    5  C6  UNL     1      25.856   1.695  53.363  1.00  0.00     0.211 C 
HETATM    6  N2  UNL     1      24.924   2.812  53.353  1.00  0.00    -0.370 N 
HETATM    7  C7  UNL     1      24.010   2.481  52.266  1.00  0.00     0.029 C 
HETATM    8  C8  UNL     1      24.052   2.939  50.986  1.00  0.00     0.040 C 
HETATM    9  C9  UNL     1      22.826   1.548  52.322  1.00  0.00     0.029 C 
HETATM   10  C10 UNL     1      22.840   0.422  53.077  1.00  0.00     0.005 C 
HETATM   11  C11 UNL     1      24.002  -0.152  53.792  1.00  0.00     0.041 C 
HETATM   12  C12 UNL     1      25.225   0.405  53.755  1.00  0.00     0.126 C 
HETATM   13  F1  UNL     1      26.129  -0.519  54.228  1.00  0.00    -0.208 F 
HETATM   14  H8  UNL     1      25.097   3.580  54.098  1.00  0.00     0.161 HD
ENDROOT
BRANCH   1  15
HETATM   15  N1  UNL     1      27.116   4.892  49.628  1.00  0.00     0.106 N 
HETATM   16  H5  UNL     1      27.045   5.272  50.582  1.00  0.00     0.318 HD
BRANCH  15  17
HETATM   17  C2  UNL     1      26.689   5.829  48.623  1.00  0.00     0.250 C 
HETATM   18  C1  UNL     1      27.776   6.780  48.211  1.00  0.00     0.048 C 
BRANCH  17  19
HETATM   19  C13 UNL     1      25.493   6.595  49.106  1.00  0.00    -0.026 A 
HETATM   20  C14 UNL     1      24.426   6.704  48.229  1.00  0.00     0.009 A 
HETATM   21  C15 UNL     1      23.289   7.410  48.635  1.00  0.00     0.001 A 
HETATM   22  C16 UNL     1      23.187   8.002  49.878  1.00  0.00     0.000 A 
HETATM   23  C17 UNL     1      24.282   7.856  50.702  1.00  0.00     0.001 A 
HETATM   24  C18 UNL     1      25.431   7.176  50.365  1.00  0.00     0.009 A 
ENDBRANCH  17  19
ENDBRANCH  15  17
ENDBRANCH   1  15
TORSDOF 3
ENDMDL
MODEL 8
REMARK VINA RESULT:      -7.7      4.822      6.527
REMARK  3 active torsions:
REMARK  status: ('A' for Active; 'I' for Inactive)
REMARK    1  A    between atoms: C2_2  and  N1_3 
REMARK    2  A    between atoms: C2_2  and  C13_17 
REMARK    3  A    between atoms: N1_3  and  C3_4 
ROOT
HETATM    1  C3  UNL     1      22.815   4.731  52.152  1.00  0.00     0.295 A 
HETATM    2  C4  UNL     1      23.217   3.411  52.492  1.00  0.00    -0.003 A 
HETATM    3  C5  UNL     1      21.800   3.725  52.192  1.00  0.00     0.027 A 
HETATM    4  S1  UNL     1      20.362   2.688  52.171  1.00  0.00    -0.099 SA
HETATM    5  C6  UNL     1      20.638   0.972  51.773  1.00  0.00     0.211 C 
HETATM    6  N2  UNL     1      21.988   0.669  51.325  1.00  0.00    -0.370 N 
HETATM    7  C7  UNL     1      22.798   0.892  52.516  1.00  0.00     0.029 C 
HETATM    8  C8  UNL     1      23.512   2.006  52.831  1.00  0.00     0.040 C 
HETATM    9  C9  UNL     1      23.011  -0.061  53.667  1.00  0.00     0.029 C 
HETATM   10  C10 UNL     1      22.025  -0.883  54.104  1.00  0.00     0.005 C 
HETATM   11  C11 UNL     1      20.607  -0.869  53.682  1.00  0.00     0.041 C 
HETATM   12  C12 UNL     1      20.124   0.010  52.786  1.00  0.00     0.126 C 
HETATM   13  F1  UNL     1      18.749  -0.020  52.859  1.00  0.00    -0.208 F 
HETATM   14  H8  UNL     1      22.087   0.364  50.289  1.00  0.00     0.161 HD
ENDROOT
BRANCH   1  15
HETATM   15  N1  UNL     1      23.102   5.308  50.838  1.00  0.00     0.106 N 
HETATM   16  H5  UNL     1      23.240   4.591  50.113  1.00  0.00     0.318 HD
BRANCH  15  17
HETATM   17  C2  UNL     1      24.188   6.249  50.902  1.00  0.00     0.250 C 
HETATM   18  C1  UNL     1      23.803   7.621  50.428  1.00  0.00     0.048 C 
BRANCH  17  19
HETATM   19  C13 UNL     1      25.358   5.743  50.109  1.00  0.00    -0.026 A 
HETATM   20  C14 UNL     1      26.079   6.684  49.392  1.00  0.00     0.009 A 
HETATM   21  C15 UNL     1      27.177   6.259  48.638  1.00  0.00     0.001 A 
HETATM   22  C16 UNL     1      27.571   4.936  48.580  1.00  0.00     0.000 A 
HETATM   23  C17 UNL     1      26.812   4.052  49.317  1.00  0.00     0.001 A 
HETATM   24  C18 UNL     1      25.721   4.404  50.078  1.00  0.00     0.009 A 
ENDBRANCH  17  19
ENDBRANCH  15  17
ENDBRANCH   1  15
TORSDOF 3
ENDMDL
MODEL 9
REMARK VINA RESULT:      -7.7      4.091      6.093
REMARK  3 active torsions:
REMARK  status: ('A' for Active; 'I' for Inactive)
REMARK    1  A    between atoms: C2_2  and  N1_3 
REMARK    2  A    between atoms: C2_2  and  C13_17 
REMARK    3  A    between atoms: N1_3  and  C3_4 
ROOT
HETATM    1  C3  UNL     1      24.870   5.176  50.139  1.00  0.00     0.295 A 
HETATM    2  C4  UNL     1      24.236   4.395  51.141  1.00  0.00    -0.003 A 
HETATM    3  C5  UNL     1      25.521   3.968  50.541  1.00  0.00     0.027 A 
HETATM    4  S1  UNL     1      26.528   2.541  50.846  1.00  0.00    -0.099 SA
HETATM    5  C6  UNL     1      26.438   1.856  52.491  1.00  0.00     0.211 C 
HETATM    6  N2  UNL     1      25.694   2.668  53.440  1.00  0.00    -0.370 N 
HETATM    7  C7  UNL     1      24.323   2.592  52.949  1.00  0.00     0.029 C 
HETATM    8  C8  UNL     1      23.674   3.502  52.172  1.00  0.00     0.040 C 
HETATM    9  C9  UNL     1      23.329   1.482  53.184  1.00  0.00     0.029 C 
HETATM   10  C10 UNL     1      23.714   0.183  53.250  1.00  0.00     0.005 C 
HETATM   11  C11 UNL     1      25.055  -0.361  52.946  1.00  0.00     0.041 C 
HETATM   12  C12 UNL     1      26.079   0.412  52.542  1.00  0.00     0.126 C 
HETATM   13  F1  UNL     1      27.060  -0.410  52.035  1.00  0.00    -0.208 F 
HETATM   14  H8  UNL     1      26.273   3.111  54.242  1.00  0.00     0.161 HD
ENDROOT
BRANCH   1  15
HETATM   15  N1  UNL     1      25.565   6.423  50.460  1.00  0.00     0.106 N 
HETATM   16  H5  UNL     1      25.113   6.941  51.226  1.00  0.00     0.318 HD
BRANCH  15  17
HETATM   17  C2  UNL     1      25.767   7.231  49.287  1.00  0.00     0.250 C 
HETATM   18  C1  UNL     1      24.899   6.816  48.133  1.00  0.00     0.048 C 
BRANCH  17  19
HETATM   19  C13 UNL     1      27.211   7.200  48.880  1.00  0.00    -0.026 A 
HETATM   20  C14 UNL     1      27.698   5.993  48.405  1.00  0.00     0.009 A 
HETATM   21  C15 UNL     1      29.039   5.915  48.014  1.00  0.00     0.001 A 
HETATM   22  C16 UNL     1      29.896   6.996  48.082  1.00  0.00     0.000 A 
HETATM   23  C17 UNL     1      29.348   8.166  48.562  1.00  0.00     0.001 A 
HETATM   24  C18 UNL     1      28.039   8.310  48.963  1.00  0.00     0.009 A 
ENDBRANCH  17  19
ENDBRANCH  15  17
ENDBRANCH   1  15
TORSDOF 3
ENDMDL
