MODEL 1
REMARK VINA RESULT:      -7.3      0.000      0.000
REMARK  5 active torsions:
REMARK  status: ('A' for Active; 'I' for Inactive)
REMARK    1  A    between atoms: C2_2  and  C3_3 
REMARK    2  A    between atoms: C3_3  and  N1_4 
REMARK    3  A    between atoms: C14_18  and  N4_19 
REMARK    4  A    between atoms: N4_19  and  C15_20 
REMARK    5  A    between atoms: C16_21  and  C17_23 
ROOT
HETATM    1  N1  UNL     1      26.733   0.652  53.220  1.00  0.00    -0.341 N 
HETATM    2  C4  UNL     1      25.563   0.215  53.473  1.00  0.00     0.018 C 
HETATM    3  C5  UNL     1      24.561  -0.147  53.681  1.00  0.00     0.017 C 
HETATM    4  C6  UNL     1      23.259  -0.614  53.923  1.00  0.00     0.299 C 
HETATM    5  O1  UNL     1      22.458  -1.225  54.571  1.00  0.00    -0.258 OA
HETATM    6  N2  UNL     1      22.994   0.031  52.815  1.00  0.00    -0.336 N 
HETATM    7  C7  UNL     1      21.930   0.408  51.949  1.00  0.00     0.061 A 
HETATM    8  C8  UNL     1      21.545   1.651  52.593  1.00  0.00     0.004 C 
HETATM    9  C9  UNL     1      22.803   2.568  52.591  1.00  0.00     0.025 C 
HETATM   10  C10 UNL     1      23.937   2.482  51.800  1.00  0.00     0.035 C 
HETATM   11  C11 UNL     1      25.475   2.483  51.933  1.00  0.00     0.080 C 
HETATM   12  C12 UNL     1      26.171   1.208  51.981  1.00  0.00     0.138 C 
HETATM   13  N3  UNL     1      23.627   2.479  50.387  1.00  0.00    -0.267 NA
HETATM   14  C13 UNL     1      22.714   1.897  49.665  1.00  0.00     0.115 C 
HETATM   15  C14 UNL     1      21.519   1.065  49.620  1.00  0.00     0.124 C 
HETATM   16  C18 UNL     1      21.033   0.253  50.719  1.00  0.00     0.064 C 
HETATM   17  H8  UNL     1      22.697   0.445  51.986  1.00  0.00     0.197 HD
ENDROOT
BRANCH  15  18
HETATM   18  N4  UNL     1      20.405   1.780  49.088  1.00  0.00    -0.388 N 
HETATM   19  H17 UNL     1      19.487   1.407  48.604  1.00  0.00     0.159 HD
BRANCH  18  20
HETATM   20  C15 UNL     1      20.470   3.200  49.294  1.00  0.00     0.104 C 
HETATM   21  C16 UNL     1      19.960   4.073  50.143  1.00  0.00     0.036 C 
HETATM   22 CL1  UNL     1      18.887   3.889  51.514  1.00  0.00    -0.087 Cl
BRANCH  21  23
HETATM   23  C17 UNL     1      20.363   5.485  50.073  1.00  0.00     0.137 C 
HETATM   24 BR1  UNL     1      21.905   5.789  51.194  1.00  0.00    -0.091 Br
ENDBRANCH  21  23
ENDBRANCH  18  20
ENDBRANCH  15  18
BRANCH   1  25
HETATM   25  C3  UNL     1      27.290   0.124  54.415  1.00  0.00     0.132 C 
BRANCH  25  26
HETATM   26  C2  UNL     1      28.772   0.165  54.590  1.00  0.00     0.016 C 
HETATM   27  C1  UNL     1      29.460  -0.829  53.626  1.00  0.00     0.006 C 
ENDBRANCH  25  26
ENDBRANCH   1  25
TORSDOF 5
ENDMDL
MODEL 2
REMARK VINA RESULT:      -7.2      1.937      2.065
REMARK  5 active torsions:
REMARK  status: ('A' for Active; 'I' for Inactive)
REMARK    1  A    between atoms: C2_2  and  C3_3 
REMARK    2  A    between atoms: C3_3  and  N1_4 
REMARK    3  A    between atoms: C14_18  and  N4_19 
REMARK    4  A    between atoms: N4_19  and  C15_20 
REMARK    5  A    between atoms: C16_21  and  C17_23 
ROOT
HETATM    1  N1  UNL     1      27.112   0.998  52.661  1.00  0.00    -0.341 N 
HETATM    2  C4  UNL     1      25.999   0.519  53.056  1.00  0.00     0.018 C 
HETATM    3  C5  UNL     1      25.045   0.121  53.386  1.00  0.00     0.017 C 
HETATM    4  C6  UNL     1      23.802  -0.393  53.787  1.00  0.00     0.299 C 
HETATM    5  O1  UNL     1      23.108  -1.020  54.537  1.00  0.00    -0.258 OA
HETATM    6  N2  UNL     1      23.383   0.210  52.704  1.00  0.00    -0.336 N 
HETATM    7  C7  UNL     1      22.212   0.518  51.958  1.00  0.00     0.061 A 
HETATM    8  C8  UNL     1      21.847   1.761  52.615  1.00  0.00     0.004 C 
HETATM    9  C9  UNL     1      23.054   2.730  52.448  1.00  0.00     0.025 C 
HETATM   10  C10 UNL     1      24.092   2.670  51.533  1.00  0.00     0.035 C 
HETATM   11  C11 UNL     1      25.635   2.739  51.488  1.00  0.00     0.080 C 
HETATM   12  C12 UNL     1      26.388   1.497  51.483  1.00  0.00     0.138 C 
HETATM   13  N3  UNL     1      23.624   2.616  50.166  1.00  0.00    -0.267 NA
HETATM   14  C13 UNL     1      22.661   1.977  49.567  1.00  0.00     0.115 C 
HETATM   15  C14 UNL     1      21.507   1.095  49.679  1.00  0.00     0.124 C 
HETATM   16  C18 UNL     1      21.188   0.293  50.844  1.00  0.00     0.064 C 
HETATM   17  H8  UNL     1      22.975   0.589  51.906  1.00  0.00     0.197 HD
ENDROOT
BRANCH  15  18
HETATM   18  N4  UNL     1      20.309   1.748  49.263  1.00  0.00    -0.388 N 
HETATM   19  H17 UNL     1      20.127   2.423  48.410  1.00  0.00     0.159 HD
BRANCH  18  20
HETATM   20  C15 UNL     1      19.153   1.397  50.040  1.00  0.00     0.104 C 
HETATM   21  C16 UNL     1      18.348   2.001  50.894  1.00  0.00     0.036 C 
HETATM   22 CL1  UNL     1      18.316   3.633  51.524  1.00  0.00    -0.087 Cl
BRANCH  21  23
HETATM   23  C17 UNL     1      17.172   1.292  51.420  1.00  0.00     0.137 C 
HETATM   24 BR1  UNL     1      17.675  -0.478  52.004  1.00  0.00    -0.091 Br
ENDBRANCH  21  23
ENDBRANCH  18  20
ENDBRANCH  15  18
BRANCH   1  25
HETATM   25  C3  UNL     1      27.825   0.526  53.794  1.00  0.00     0.132 C 
BRANCH  25  26
HETATM   26  C2  UNL     1      29.315   0.459  53.723  1.00  0.00     0.016 C 
HETATM   27  C1  UNL     1      29.784  -1.002  53.538  1.00  0.00     0.006 C 
ENDBRANCH  25  26
ENDBRANCH   1  25
TORSDOF 5
ENDMDL
MODEL 3
REMARK VINA RESULT:      -6.9      2.669      3.663
REMARK  5 active torsions:
REMARK  status: ('A' for Active; 'I' for Inactive)
REMARK    1  A    between atoms: C2_2  and  C3_3 
REMARK    2  A    between atoms: C3_3  and  N1_4 
REMARK    3  A    between atoms: C14_18  and  N4_19 
REMARK    4  A    between atoms: N4_19  and  C15_20 
REMARK    5  A    between atoms: C16_21  and  C17_23 
ROOT
HETATM    1  N1  UNL     1      26.020   0.160  53.185  1.00  0.00    -0.341 N 
HETATM    2  C4  UNL     1      26.197   1.081  52.322  1.00  0.00     0.018 C 
HETATM    3  C5  UNL     1      26.334   1.865  51.585  1.00  0.00     0.017 C 
HETATM    4  C6  UNL     1      26.492   2.895  50.643  1.00  0.00     0.299 C 
HETATM    5  O1  UNL     1      27.140   3.502  49.838  1.00  0.00    -0.258 OA
HETATM    6  N2  UNL     1      25.258   3.172  50.977  1.00  0.00    -0.336 N 
HETATM    7  C7  UNL     1      24.165   4.029  50.669  1.00  0.00     0.061 A 
HETATM    8  C8  UNL     1      23.548   3.237  49.619  1.00  0.00     0.004 C 
HETATM    9  C9  UNL     1      23.196   1.855  50.243  1.00  0.00     0.025 C 
HETATM   10  C10 UNL     1      23.060   1.518  51.580  1.00  0.00     0.035 C 
HETATM   11  C11 UNL     1      23.542   0.448  52.584  1.00  0.00     0.080 C 
HETATM   12  C12 UNL     1      24.693   0.745  53.420  1.00  0.00     0.138 C 
HETATM   13  N3  UNL     1      22.102   2.355  52.268  1.00  0.00    -0.267 NA
HETATM   14  C13 UNL     1      21.845   3.631  52.255  1.00  0.00     0.115 C 
HETATM   15  C14 UNL     1      22.122   4.941  51.680  1.00  0.00     0.124 C 
HETATM   16  C18 UNL     1      23.280   5.261  50.868  1.00  0.00     0.064 C 
HETATM   17  H8  UNL     1      24.359   3.486  51.177  1.00  0.00     0.197 HD
ENDROOT
BRANCH  15  18
HETATM   18  N4  UNL     1      20.974   5.475  51.023  1.00  0.00    -0.388 N 
HETATM   19  H17 UNL     1      20.606   6.513  50.969  1.00  0.00     0.159 HD
BRANCH  18  20
HETATM   20  C15 UNL     1      20.241   4.510  50.251  1.00  0.00     0.104 C 
HETATM   21  C16 UNL     1      20.158   4.155  48.983  1.00  0.00     0.036 C 
HETATM   22 CL1  UNL     1      20.964   4.742  47.544  1.00  0.00    -0.087 Cl
BRANCH  21  23
HETATM   23  C17 UNL     1      19.324   3.008  48.595  1.00  0.00     0.137 C 
HETATM   24 BR1  UNL     1      19.465   1.612  49.920  1.00  0.00    -0.091 Br
ENDBRANCH  21  23
ENDBRANCH  18  20
ENDBRANCH  15  18
BRANCH   1  25
HETATM   25  C3  UNL     1      27.299  -0.418  52.968  1.00  0.00     0.132 C 
BRANCH  25  26
HETATM   26  C2  UNL     1      28.378  -0.161  53.968  1.00  0.00     0.016 C 
HETATM   27  C1  UNL     1      29.705  -0.810  53.513  1.00  0.00     0.006 C 
ENDBRANCH  25  26
ENDBRANCH   1  25
TORSDOF 5
ENDMDL
MODEL 4
REMARK VINA RESULT:      -6.9      1.648      1.736
REMARK  5 active torsions:
REMARK  status: ('A' for Active; 'I' for Inactive)
REMARK    1  A    between atoms: C2_2  and  C3_3 
REMARK    2  A    between atoms: C3_3  and  N1_4 
REMARK    3  A    between atoms: C14_18  and  N4_19 
REMARK    4  A    between atoms: N4_19  and  C15_20 
REMARK    5  A    between atoms: C16_21  and  C17_23 
ROOT
HETATM    1  N1  UNL     1      27.137   0.876  52.696  1.00  0.00    -0.341 N 
HETATM    2  C4  UNL     1      26.015   0.426  53.101  1.00  0.00     0.018 C 
HETATM    3  C5  UNL     1      25.053   0.054  53.439  1.00  0.00     0.017 C 
HETATM    4  C6  UNL     1      23.800  -0.428  53.850  1.00  0.00     0.299 C 
HETATM    5  O1  UNL     1      23.095  -1.031  54.609  1.00  0.00    -0.258 OA
HETATM    6  N2  UNL     1      23.391   0.173  52.762  1.00  0.00    -0.336 N 
HETATM    7  C7  UNL     1      22.224   0.501  52.018  1.00  0.00     0.061 A 
HETATM    8  C8  UNL     1      21.891   1.759  52.663  1.00  0.00     0.004 C 
HETATM    9  C9  UNL     1      23.119   2.698  52.481  1.00  0.00     0.025 C 
HETATM   10  C10 UNL     1      24.152   2.604  51.563  1.00  0.00     0.035 C 
HETATM   11  C11 UNL     1      25.695   2.638  51.511  1.00  0.00     0.080 C 
HETATM   12  C12 UNL     1      26.420   1.378  51.517  1.00  0.00     0.138 C 
HETATM   13  N3  UNL     1      23.676   2.547  50.198  1.00  0.00    -0.267 NA
HETATM   14  C13 UNL     1      22.697   1.924  49.609  1.00  0.00     0.115 C 
HETATM   15  C14 UNL     1      21.523   1.070  49.735  1.00  0.00     0.124 C 
HETATM   16  C18 UNL     1      21.190   0.288  50.910  1.00  0.00     0.064 C 
HETATM   17  H8  UNL     1      22.988   0.553  51.962  1.00  0.00     0.197 HD
ENDROOT
BRANCH  15  18
HETATM   18  N4  UNL     1      20.339   1.746  49.317  1.00  0.00    -0.388 N 
HETATM   19  H17 UNL     1      19.360   1.837  49.816  1.00  0.00     0.159 HD
BRANCH  18  20
HETATM   20  C15 UNL     1      20.488   2.483  48.093  1.00  0.00     0.104 C 
HETATM   21  C16 UNL     1      19.702   3.157  47.274  1.00  0.00     0.036 C 
HETATM   22 CL1  UNL     1      17.983   3.485  47.301  1.00  0.00    -0.087 Cl
BRANCH  21  23
HETATM   23  C17 UNL     1      20.281   3.878  46.131  1.00  0.00     0.137 C 
HETATM   24 BR1  UNL     1      21.957   4.688  46.641  1.00  0.00    -0.091 Br
ENDBRANCH  21  23
ENDBRANCH  18  20
ENDBRANCH  15  18
BRANCH   1  25
HETATM   25  C3  UNL     1      27.843   0.399  53.832  1.00  0.00     0.132 C 
BRANCH  25  26
HETATM   26  C2  UNL     1      29.323   0.223  53.730  1.00  0.00     0.016 C 
HETATM   27  C1  UNL     1      29.676  -1.260  53.474  1.00  0.00     0.006 C 
ENDBRANCH  25  26
ENDBRANCH   1  25
TORSDOF 5
ENDMDL
MODEL 5
REMARK VINA RESULT:      -6.8      3.245      4.397
REMARK  5 active torsions:
REMARK  status: ('A' for Active; 'I' for Inactive)
REMARK    1  A    between atoms: C2_2  and  C3_3 
REMARK    2  A    between atoms: C3_3  and  N1_4 
REMARK    3  A    between atoms: C14_18  and  N4_19 
REMARK    4  A    between atoms: N4_19  and  C15_20 
REMARK    5  A    between atoms: C16_21  and  C17_23 
ROOT
HETATM    1  N1  UNL     1      26.011   0.569  52.697  1.00  0.00    -0.341 N 
HETATM    2  C4  UNL     1      26.253   1.499  51.859  1.00  0.00     0.018 C 
HETATM    3  C5  UNL     1      26.445   2.293  51.145  1.00  0.00     0.017 C 
HETATM    4  C6  UNL     1      26.678   3.338  50.236  1.00  0.00     0.299 C 
HETATM    5  O1  UNL     1      27.340   3.884  49.399  1.00  0.00    -0.258 OA
HETATM    6  N2  UNL     1      25.536   3.779  50.697  1.00  0.00    -0.336 N 
HETATM    7  C7  UNL     1      24.566   4.806  50.529  1.00  0.00     0.061 A 
HETATM    8  C8  UNL     1      23.745   4.176  49.509  1.00  0.00     0.004 C 
HETATM    9  C9  UNL     1      23.239   2.830  50.106  1.00  0.00     0.025 C 
HETATM   10  C10 UNL     1      23.169   2.444  51.435  1.00  0.00     0.035 C 
HETATM   11  C11 UNL     1      23.564   1.260  52.344  1.00  0.00     0.080 C 
HETATM   12  C12 UNL     1      24.816   1.333  53.079  1.00  0.00     0.138 C 
HETATM   13  N3  UNL     1      22.416   3.377  52.244  1.00  0.00    -0.267 NA
HETATM   14  C13 UNL     1      22.360   4.675  52.308  1.00  0.00     0.115 C 
HETATM   15  C14 UNL     1      22.785   5.958  51.764  1.00  0.00     0.124 C 
HETATM   16  C18 UNL     1      23.904   6.145  50.861  1.00  0.00     0.064 C 
HETATM   17  H8  UNL     1      24.717   4.213  50.993  1.00  0.00     0.197 HD
ENDROOT
BRANCH  15  18
HETATM   18  N4  UNL     1      21.681   6.695  51.241  1.00  0.00    -0.388 N 
HETATM   19  H17 UNL     1      20.648   6.788  51.616  1.00  0.00     0.159 HD
BRANCH  18  20
HETATM   20  C15 UNL     1      22.005   7.496  50.094  1.00  0.00     0.104 C 
HETATM   21  C16 UNL     1      21.482   8.533  49.466  1.00  0.00     0.036 C 
HETATM   22 CL1  UNL     1      20.043   9.483  49.765  1.00  0.00    -0.087 Cl
BRANCH  21  23
HETATM   23  C17 UNL     1      22.199   9.145  48.338  1.00  0.00     0.137 C 
HETATM   24 BR1  UNL     1      23.380   7.850  47.526  1.00  0.00    -0.091 Br
ENDBRANCH  21  23
ENDBRANCH  18  20
ENDBRANCH  15  18
BRANCH   1  25
HETATM   25  C3  UNL     1      27.161  -0.182  52.336  1.00  0.00     0.132 C 
BRANCH  25  26
HETATM   26  C2  UNL     1      27.987  -0.788  53.423  1.00  0.00     0.016 C 
HETATM   27  C1  UNL     1      28.125   0.194  54.610  1.00  0.00     0.006 C 
ENDBRANCH  25  26
ENDBRANCH   1  25
TORSDOF 5
ENDMDL
MODEL 6
REMARK VINA RESULT:      -6.6      4.465      7.433
REMARK  5 active torsions:
REMARK  status: ('A' for Active; 'I' for Inactive)
REMARK    1  A    between atoms: C2_2  and  C3_3 
REMARK    2  A    between atoms: C3_3  and  N1_4 
REMARK    3  A    between atoms: C14_18  and  N4_19 
REMARK    4  A    between atoms: N4_19  and  C15_20 
REMARK    5  A    between atoms: C16_21  and  C17_23 
ROOT
HETATM    1  N1  UNL     1      25.188   7.516  49.307  1.00  0.00    -0.341 N 
HETATM    2  C4  UNL     1      24.212   6.914  49.864  1.00  0.00     0.018 C 
HETATM    3  C5  UNL     1      23.387   6.390  50.334  1.00  0.00     0.017 C 
HETATM    4  C6  UNL     1      22.337   5.698  50.961  1.00  0.00     0.299 C 
HETATM    5  O1  UNL     1      21.195   5.600  51.311  1.00  0.00    -0.258 OA
HETATM    6  N2  UNL     1      23.269   4.804  51.176  1.00  0.00    -0.336 N 
HETATM    7  C7  UNL     1      23.491   3.504  51.708  1.00  0.00     0.061 A 
HETATM    8  C8  UNL     1      23.222   2.722  50.514  1.00  0.00     0.004 C 
HETATM    9  C9  UNL     1      24.219   3.208  49.422  1.00  0.00     0.025 C 
HETATM   10  C10 UNL     1      25.407   3.902  49.582  1.00  0.00     0.035 C 
HETATM   11  C11 UNL     1      26.134   5.146  49.026  1.00  0.00     0.080 C 
HETATM   12  C12 UNL     1      26.029   6.398  49.757  1.00  0.00     0.138 C 
HETATM   13  N3  UNL     1      26.324   3.232  50.478  1.00  0.00    -0.267 NA
HETATM   14  C13 UNL     1      26.184   2.614  51.615  1.00  0.00     0.115 C 
HETATM   15  C14 UNL     1      25.285   2.117  52.648  1.00  0.00     0.124 C 
HETATM   16  C18 UNL     1      23.898   2.512  52.800  1.00  0.00     0.064 C 
HETATM   17  H8  UNL     1      23.888   4.094  51.419  1.00  0.00     0.197 HD
ENDROOT
BRANCH  15  18
HETATM   18  N4  UNL     1      25.342   0.695  52.749  1.00  0.00    -0.388 N 
HETATM   19  H17 UNL     1      24.568  -0.062  52.545  1.00  0.00     0.159 HD
BRANCH  18  20
HETATM   20  C15 UNL     1      26.640   0.186  53.095  1.00  0.00     0.104 C 
HETATM   21  C16 UNL     1      27.303  -0.945  52.940  1.00  0.00     0.036 C 
HETATM   22 CL1  UNL     1      26.872  -2.464  52.183  1.00  0.00    -0.087 Cl
BRANCH  21  23
HETATM   23  C17 UNL     1      28.705  -1.039  53.371  1.00  0.00     0.137 C 
HETATM   24 BR1  UNL     1      29.377   0.715  53.816  1.00  0.00    -0.091 Br
ENDBRANCH  21  23
ENDBRANCH  18  20
ENDBRANCH  15  18
BRANCH   1  25
HETATM   25  C3  UNL     1      24.387   8.601  48.863  1.00  0.00     0.132 C 
BRANCH  25  26
HETATM   26  C2  UNL     1      24.727   9.254  47.564  1.00  0.00     0.016 C 
HETATM   27  C1  UNL     1      25.331   8.224  46.582  1.00  0.00     0.006 C 
ENDBRANCH  25  26
ENDBRANCH   1  25
TORSDOF 5
ENDMDL
MODEL 7
REMARK VINA RESULT:      -6.4      4.071      5.586
REMARK  5 active torsions:
REMARK  status: ('A' for Active; 'I' for Inactive)
REMARK    1  A    between atoms: C2_2  and  C3_3 
REMARK    2  A    between atoms: C3_3  and  N1_4 
REMARK    3  A    between atoms: C14_18  and  N4_19 
REMARK    4  A    between atoms: N4_19  and  C15_20 
REMARK    5  A    between atoms: C16_21  and  C17_23 
ROOT
HETATM    1  N1  UNL     1      22.855   0.821  52.934  1.00  0.00    -0.341 N 
HETATM    2  C4  UNL     1      23.952   1.342  52.549  1.00  0.00     0.018 C 
HETATM    3  C5  UNL     1      24.880   1.791  52.211  1.00  0.00     0.017 C 
HETATM    4  C6  UNL     1      26.068   2.399  51.774  1.00  0.00     0.299 C 
HETATM    5  O1  UNL     1      27.262   2.434  51.670  1.00  0.00    -0.258 OA
HETATM    6  N2  UNL     1      25.246   3.306  51.312  1.00  0.00    -0.336 N 
HETATM    7  C7  UNL     1      25.194   4.506  50.550  1.00  0.00     0.061 A 
HETATM    8  C8  UNL     1      25.068   3.926  49.224  1.00  0.00     0.004 C 
HETATM    9  C9  UNL     1      23.780   3.051  49.236  1.00  0.00     0.025 C 
HETATM   10  C10 UNL     1      22.708   3.100  50.112  1.00  0.00     0.035 C 
HETATM   11  C11 UNL     1      21.852   2.159  50.986  1.00  0.00     0.080 C 
HETATM   12  C12 UNL     1      22.190   2.014  52.392  1.00  0.00     0.138 C 
HETATM   13  N3  UNL     1      22.116   4.418  50.191  1.00  0.00    -0.267 NA
HETATM   14  C13 UNL     1      22.604   5.623  50.248  1.00  0.00     0.115 C 
HETATM   15  C14 UNL     1      23.779   6.483  50.214  1.00  0.00     0.124 C 
HETATM   16  C18 UNL     1      25.146   6.024  50.371  1.00  0.00     0.064 C 
HETATM   17  H8  UNL     1      24.730   4.053  50.961  1.00  0.00     0.197 HD
ENDROOT
BRANCH  15  18
HETATM   18  N4  UNL     1      23.747   7.367  49.095  1.00  0.00    -0.388 N 
HETATM   19  H17 UNL     1      22.915   7.627  48.420  1.00  0.00     0.159 HD
BRANCH  18  20
HETATM   20  C15 UNL     1      24.975   8.080  48.878  1.00  0.00     0.104 C 
HETATM   21  C16 UNL     1      25.687   8.476  47.839  1.00  0.00     0.036 C 
HETATM   22 CL1  UNL     1      25.446   8.301  46.115  1.00  0.00    -0.087 Cl
BRANCH  21  23
HETATM   23  C17 UNL     1      26.889   9.298  48.045  1.00  0.00     0.137 C 
HETATM   24 BR1  UNL     1      27.404   9.261  49.905  1.00  0.00    -0.091 Br
ENDBRANCH  21  23
ENDBRANCH  18  20
ENDBRANCH  15  18
BRANCH   1  25
HETATM   25  C3  UNL     1      23.482  -0.340  53.459  1.00  0.00     0.132 C 
BRANCH  25  26
HETATM   26  C2  UNL     1      22.885  -0.989  54.665  1.00  0.00     0.016 C 
HETATM   27  C1  UNL     1      21.444  -1.462  54.369  1.00  0.00     0.006 C 
ENDBRANCH  25  26
ENDBRANCH   1  25
TORSDOF 5
ENDMDL
MODEL 8
REMARK VINA RESULT:      -6.4      4.002      7.770
REMARK  5 active torsions:
REMARK  status: ('A' for Active; 'I' for Inactive)
REMARK    1  A    between atoms: C2_2  and  C3_3 
REMARK    2  A    between atoms: C3_3  and  N1_4 
REMARK    3  A    between atoms: C14_18  and  N4_19 
REMARK    4  A    between atoms: N4_19  and  C15_20 
REMARK    5  A    between atoms: C16_21  and  C17_23 
ROOT
HETATM    1  N1  UNL     1      21.675   7.647  49.882  1.00  0.00    -0.341 N 
HETATM    2  C4  UNL     1      21.424   6.530  50.440  1.00  0.00     0.018 C 
HETATM    3  C5  UNL     1      21.221   5.572  50.908  1.00  0.00     0.017 C 
HETATM    4  C6  UNL     1      20.985   4.330  51.521  1.00  0.00     0.299 C 
HETATM    5  O1  UNL     1      20.273   3.545  52.079  1.00  0.00    -0.258 OA
HETATM    6  N2  UNL     1      22.246   4.130  51.234  1.00  0.00    -0.336 N 
HETATM    7  C7  UNL     1      23.279   3.152  51.282  1.00  0.00     0.061 A 
HETATM    8  C8  UNL     1      23.036   2.506  50.003  1.00  0.00     0.004 C 
HETATM    9  C9  UNL     1      23.169   3.606  48.910  1.00  0.00     0.025 C 
HETATM   10  C10 UNL     1      23.796   4.838  48.993  1.00  0.00     0.035 C 
HETATM   11  C11 UNL     1      23.523   6.327  48.687  1.00  0.00     0.080 C 
HETATM   12  C12 UNL     1      23.065   7.187  49.765  1.00  0.00     0.138 C 
HETATM   13  N3  UNL     1      25.178   4.730  49.407  1.00  0.00    -0.267 NA
HETATM   14  C13 UNL     1      25.797   4.019  50.304  1.00  0.00     0.115 C 
HETATM   15  C14 UNL     1      25.727   2.975  51.317  1.00  0.00     0.124 C 
HETATM   16  C18 UNL     1      24.499   2.465  51.897  1.00  0.00     0.064 C 
HETATM   17  H8  UNL     1      23.181   3.893  51.101  1.00  0.00     0.197 HD
ENDROOT
BRANCH  15  18
HETATM   18  N4  UNL     1      26.536   1.853  50.968  1.00  0.00    -0.388 N 
HETATM   19  H17 UNL     1      26.906   1.524  49.983  1.00  0.00     0.159 HD
BRANCH  18  20
HETATM   20  C15 UNL     1      26.997   1.091  52.095  1.00  0.00     0.104 C 
HETATM   21  C16 UNL     1      27.815   1.279  53.113  1.00  0.00     0.036 C 
HETATM   22 CL1  UNL     1      28.794   2.647  53.597  1.00  0.00    -0.087 Cl
BRANCH  21  23
HETATM   23  C17 UNL     1      27.949   0.242  54.147  1.00  0.00     0.137 C 
HETATM   24 BR1  UNL     1      29.513  -0.837  53.802  1.00  0.00    -0.091 Br
ENDBRANCH  21  23
ENDBRANCH  18  20
ENDBRANCH  15  18
BRANCH   1  25
HETATM   25  C3  UNL     1      20.334   8.105  49.985  1.00  0.00     0.132 C 
BRANCH  25  26
HETATM   26  C2  UNL     1      19.933   9.317  49.210  1.00  0.00     0.016 C 
HETATM   27  C1  UNL     1      21.149  10.245  48.987  1.00  0.00     0.006 C 
ENDBRANCH  25  26
ENDBRANCH   1  25
TORSDOF 5
ENDMDL
MODEL 9
REMARK VINA RESULT:      -6.1      5.166      8.823
REMARK  5 active torsions:
REMARK  status: ('A' for Active; 'I' for Inactive)
REMARK    1  A    between atoms: C2_2  and  C3_3 
REMARK    2  A    between atoms: C3_3  and  N1_4 
REMARK    3  A    between atoms: C14_18  and  N4_19 
REMARK    4  A    between atoms: N4_19  and  C15_20 
REMARK    5  A    between atoms: C16_21  and  C17_23 
ROOT
HETATM    1  N1  UNL     1      14.452   3.866  52.652  1.00  0.00    -0.341 N 
HETATM    2  C4  UNL     1      14.674   2.622  52.486  1.00  0.00     0.018 C 
HETATM    3  C5  UNL     1      14.875   1.566  52.338  1.00  0.00     0.017 C 
HETATM    4  C6  UNL     1      15.161   0.203  52.159  1.00  0.00     0.299 C 
HETATM    5  O1  UNL     1      14.825  -0.942  52.041  1.00  0.00    -0.258 OA
HETATM    6  N2  UNL     1      16.398   0.628  52.145  1.00  0.00    -0.336 N 
HETATM    7  C7  UNL     1      17.742   0.201  51.959  1.00  0.00     0.061 A 
HETATM    8  C8  UNL     1      17.828   0.353  50.516  1.00  0.00     0.004 C 
HETATM    9  C9  UNL     1      17.522   1.847  50.201  1.00  0.00     0.025 C 
HETATM   10  C10 UNL     1      17.576   2.939  51.051  1.00  0.00     0.035 C 
HETATM   11  C11 UNL     1      16.716   4.150  51.477  1.00  0.00     0.080 C 
HETATM   12  C12 UNL     1      15.910   4.042  52.681  1.00  0.00     0.138 C 
HETATM   13  N3  UNL     1      18.864   3.079  51.693  1.00  0.00    -0.267 NA
HETATM   14  C13 UNL     1      19.697   2.238  52.235  1.00  0.00     0.115 C 
HETATM   15  C14 UNL     1      20.039   0.853  52.528  1.00  0.00     0.124 C 
HETATM   16  C18 UNL     1      19.119  -0.264  52.435  1.00  0.00     0.064 C 
HETATM   17  H8  UNL     1      17.350   0.831  52.157  1.00  0.00     0.197 HD
ENDROOT
BRANCH  15  18
HETATM   18  N4  UNL     1      21.252   0.467  51.883  1.00  0.00    -0.388 N 
HETATM   19  H17 UNL     1      21.447  -0.345  51.163  1.00  0.00     0.159 HD
BRANCH  18  20
HETATM   20  C15 UNL     1      22.364   1.332  52.166  1.00  0.00     0.104 C 
HETATM   21  C16 UNL     1      23.590   1.199  52.636  1.00  0.00     0.036 C 
HETATM   22 CL1  UNL     1      24.497  -0.198  53.174  1.00  0.00    -0.087 Cl
BRANCH  21  23
HETATM   23  C17 UNL     1      24.486   2.364  52.688  1.00  0.00     0.137 C 
HETATM   24 BR1  UNL     1      26.058   1.943  53.726  1.00  0.00    -0.091 Br
ENDBRANCH  21  23
ENDBRANCH  18  20
ENDBRANCH  15  18
BRANCH   1  25
HETATM   25  C3  UNL     1      13.040   3.713  52.622  1.00  0.00     0.132 C 
BRANCH  25  26
HETATM   26  C2  UNL     1      12.230   4.358  53.699  1.00  0.00     0.016 C 
HETATM   27  C1  UNL     1      11.789   3.310  54.746  1.00  0.00     0.006 C 
ENDBRANCH  25  26
ENDBRANCH   1  25
TORSDOF 5
ENDMDL
