MODEL 1
REMARK VINA RESULT:      -7.1      0.000      0.000
REMARK  5 active torsions:
REMARK  status: ('A' for Active; 'I' for Inactive)
REMARK    1  A    between atoms: C2_2  and  C3_3 
REMARK    2  A    between atoms: C3_3  and  C4_4 
REMARK    3  A    between atoms: C7_7  and  O1_8 
REMARK    4  A    between atoms: C12_17  and  N4_19 
REMARK    5  A    between atoms: N4_19  and  C14_20 
ROOT
HETATM    1  C4  UNL     1      22.556   3.796  48.368  1.00  0.00    -0.041 A 
HETATM    2  C5  UNL     1      22.231   4.386  47.236  1.00  0.00     0.008 A 
HETATM    3  C6  UNL     1      22.038   5.813  47.450  1.00  0.00     0.036 A 
HETATM    4  C7  UNL     1      22.257   6.044  48.759  1.00  0.00     0.083 A 
HETATM    5  C9  UNL     1      22.581   4.777  49.443  1.00  0.00     0.149 A 
HETATM    6  N1  UNL     1      21.495   4.464  50.417  1.00  0.00    -0.362 N 
HETATM    7  C10 UNL     1      21.377   3.963  51.788  1.00  0.00     0.207 C 
HETATM    8  N2  UNL     1      22.355   3.321  52.282  1.00  0.00    -0.214 NA
HETATM    9  C11 UNL     1      23.610   2.942  51.821  1.00  0.00     0.222 C 
HETATM   10 CL1  UNL     1      24.401   1.495  52.443  1.00  0.00    -0.041 Cl
HETATM   11  N3  UNL     1      24.186   3.654  50.955  1.00  0.00    -0.225 NA
HETATM   12  C12 UNL     1      23.816   4.882  50.268  1.00  0.00     0.161 C 
HETATM   13  C13 UNL     1      23.384   5.901  51.388  1.00  0.00     0.069 C 
HETATM   14  H13 UNL     1      20.585   4.686  49.921  1.00  0.00     0.162 HD
ENDROOT
BRANCH  12  15
HETATM   15  N4  UNL     1      24.983   5.451  49.737  1.00  0.00    -0.357 N 
HETATM   16  H18 UNL     1      24.434   5.537  48.852  1.00  0.00     0.162 HD
BRANCH  15  17
HETATM   17  C14 UNL     1      26.193   6.042  49.185  1.00  0.00     0.069 A 
HETATM   18  C15 UNL     1      26.668   7.243  48.890  1.00  0.00     0.032 A 
HETATM   19  C16 UNL     1      27.930   7.252  48.361  1.00  0.00     0.002 A 
HETATM   20  C17 UNL     1      28.653   6.080  48.153  1.00  0.00     0.003 A 
HETATM   21  C18 UNL     1      28.025   4.859  48.514  1.00  0.00     0.044 A 
HETATM   22  C19 UNL     1      26.682   4.640  49.093  1.00  0.00     0.142 A 
HETATM   23  F1  UNL     1      26.943   3.406  49.085  1.00  0.00    -0.204 F 
ENDBRANCH  15  17
ENDBRANCH  12  15
BRANCH   1  24
HETATM   24  C3  UNL     1      22.853   2.385  48.700  1.00  0.00     0.037 C 
BRANCH  24  25
HETATM   25  C2  UNL     1      21.707   1.434  48.487  1.00  0.00    -0.000 C 
HETATM   26  C1  UNL     1      21.343   0.768  49.789  1.00  0.00     0.005 C 
ENDBRANCH  24  25
ENDBRANCH   1  24
BRANCH   4  27
HETATM   27  O1  UNL     1      22.165   7.321  49.305  1.00  0.00    -0.357 OA
HETATM   28  C8  UNL     1      22.873   8.390  48.707  1.00  0.00     0.209 C 
ENDBRANCH   4  27
TORSDOF 5
ENDMDL
MODEL 2
REMARK VINA RESULT:      -6.9      2.895      4.184
REMARK  5 active torsions:
REMARK  status: ('A' for Active; 'I' for Inactive)
REMARK    1  A    between atoms: C2_2  and  C3_3 
REMARK    2  A    between atoms: C3_3  and  C4_4 
REMARK    3  A    between atoms: C7_7  and  O1_8 
REMARK    4  A    between atoms: C12_17  and  N4_19 
REMARK    5  A    between atoms: N4_19  and  C14_20 
ROOT
HETATM    1  C4  UNL     1      22.797   2.405  49.703  1.00  0.00    -0.041 A 
HETATM    2  C5  UNL     1      23.569   2.821  48.720  1.00  0.00     0.008 A 
HETATM    3  C6  UNL     1      24.298   4.015  49.125  1.00  0.00     0.036 A 
HETATM    4  C7  UNL     1      23.920   4.292  50.388  1.00  0.00     0.083 A 
HETATM    5  C9  UNL     1      22.924   3.304  50.841  1.00  0.00     0.149 A 
HETATM    6  N1  UNL     1      21.622   3.998  51.063  1.00  0.00    -0.362 N 
HETATM    7  C10 UNL     1      20.541   3.989  52.051  1.00  0.00     0.207 C 
HETATM    8  N2  UNL     1      20.418   2.972  52.802  1.00  0.00    -0.214 NA
HETATM    9  C11 UNL     1      21.102   1.770  52.941  1.00  0.00     0.222 C 
HETATM   10 CL1  UNL     1      20.277   0.327  53.529  1.00  0.00    -0.041 Cl
HETATM   11  N3  UNL     1      22.327   1.724  52.650  1.00  0.00    -0.225 NA
HETATM   12  C12 UNL     1      23.274   2.715  52.163  1.00  0.00     0.161 C 
HETATM   13  C13 UNL     1      23.147   3.956  53.125  1.00  0.00     0.069 C 
HETATM   14  H13 UNL     1      21.506   4.669  50.251  1.00  0.00     0.162 HD
ENDROOT
BRANCH  12  15
HETATM   15  N4  UNL     1      24.569   2.236  52.412  1.00  0.00    -0.357 N 
HETATM   16  H18 UNL     1      24.453   1.714  51.513  1.00  0.00     0.162 HD
BRANCH  15  17
HETATM   17  C14 UNL     1      25.912   1.739  52.667  1.00  0.00     0.069 A 
HETATM   18  C15 UNL     1      27.149   2.209  52.750  1.00  0.00     0.032 A 
HETATM   19  C16 UNL     1      28.106   1.273  53.026  1.00  0.00     0.002 A 
HETATM   20  C17 UNL     1      27.795  -0.073  53.206  1.00  0.00     0.003 A 
HETATM   21  C18 UNL     1      26.429  -0.443  53.090  1.00  0.00     0.044 A 
HETATM   22  C19 UNL     1      25.257   0.410  52.799  1.00  0.00     0.142 A 
HETATM   23  F1  UNL     1      24.551  -0.632  52.880  1.00  0.00    -0.204 F 
ENDBRANCH  15  17
ENDBRANCH  12  15
BRANCH   1  24
HETATM   24  C3  UNL     1      21.865   1.260  49.814  1.00  0.00     0.037 C 
BRANCH  24  25
HETATM   25  C2  UNL     1      20.627   1.374  48.966  1.00  0.00    -0.000 C 
HETATM   26  C1  UNL     1      19.400   1.183  49.820  1.00  0.00     0.005 C 
ENDBRANCH  24  25
ENDBRANCH   1  24
BRANCH   4  27
HETATM   27  O1  UNL     1      24.442   5.377  51.089  1.00  0.00    -0.357 OA
HETATM   28  C8  UNL     1      24.095   6.692  50.701  1.00  0.00     0.209 C 
ENDBRANCH   4  27
TORSDOF 5
ENDMDL
MODEL 3
REMARK VINA RESULT:      -6.5      3.619      6.560
REMARK  5 active torsions:
REMARK  status: ('A' for Active; 'I' for Inactive)
REMARK    1  A    between atoms: C2_2  and  C3_3 
REMARK    2  A    between atoms: C3_3  and  C4_4 
REMARK    3  A    between atoms: C7_7  and  O1_8 
REMARK    4  A    between atoms: C12_17  and  N4_19 
REMARK    5  A    between atoms: N4_19  and  C14_20 
ROOT
HETATM    1  C4  UNL     1      20.267   3.890  50.949  1.00  0.00    -0.041 A 
HETATM    2  C5  UNL     1      19.085   3.971  51.527  1.00  0.00     0.008 A 
HETATM    3  C6  UNL     1      18.274   2.814  51.176  1.00  0.00     0.036 A 
HETATM    4  C7  UNL     1      19.022   2.046  50.361  1.00  0.00     0.083 A 
HETATM    5  C9  UNL     1      20.335   2.683  50.139  1.00  0.00     0.149 A 
HETATM    6  N1  UNL     1      20.449   3.064  48.702  1.00  0.00    -0.362 N 
HETATM    7  C10 UNL     1      21.461   3.020  47.644  1.00  0.00     0.207 C 
HETATM    8  N2  UNL     1      22.681   2.926  47.979  1.00  0.00    -0.214 NA
HETATM    9  C11 UNL     1      23.360   2.845  49.189  1.00  0.00     0.222 C 
HETATM   10 CL1  UNL     1      25.012   3.444  49.340  1.00  0.00    -0.041 Cl
HETATM   11  N3  UNL     1      22.783   2.326  50.183  1.00  0.00    -0.225 NA
HETATM   12  C12 UNL     1      21.465   1.743  50.377  1.00  0.00     0.161 C 
HETATM   13  C13 UNL     1      21.273   0.691  49.220  1.00  0.00     0.069 C 
HETATM   14  H13 UNL     1      19.508   3.471  48.431  1.00  0.00     0.162 HD
ENDROOT
BRANCH  12  15
HETATM   15  N4  UNL     1      21.506   0.954  51.536  1.00  0.00    -0.357 N 
HETATM   16  H18 UNL     1      20.781   0.371  51.059  1.00  0.00     0.162 HD
BRANCH  15  17
HETATM   17  C14 UNL     1      21.548   0.133  52.737  1.00  0.00     0.069 A 
HETATM   18  C15 UNL     1      20.705  -0.504  53.537  1.00  0.00     0.032 A 
HETATM   19  C16 UNL     1      21.287  -1.162  54.585  1.00  0.00     0.002 A 
HETATM   20  C17 UNL     1      22.665  -1.157  54.787  1.00  0.00     0.003 A 
HETATM   21  C18 UNL     1      23.455  -0.434  53.854  1.00  0.00     0.044 A 
HETATM   22  C19 UNL     1      23.021   0.334  52.668  1.00  0.00     0.142 A 
HETATM   23  F1  UNL     1      24.237   0.598  52.465  1.00  0.00    -0.204 F 
ENDBRANCH  15  17
ENDBRANCH  12  15
BRANCH   1  24
HETATM   24  C3  UNL     1      21.444   4.787  50.972  1.00  0.00     0.037 C 
BRANCH  24  25
HETATM   25  C2  UNL     1      22.153   4.859  52.297  1.00  0.00    -0.000 C 
HETATM   26  C1  UNL     1      23.568   5.337  52.097  1.00  0.00     0.005 C 
ENDBRANCH  24  25
ENDBRANCH   1  24
BRANCH   4  27
HETATM   27  O1  UNL     1      18.547   0.844  49.844  1.00  0.00    -0.357 OA
HETATM   28  C8  UNL     1      17.873  -0.066  50.692  1.00  0.00     0.209 C 
ENDBRANCH   4  27
TORSDOF 5
ENDMDL
MODEL 4
REMARK VINA RESULT:      -6.5      2.565      4.458
REMARK  5 active torsions:
REMARK  status: ('A' for Active; 'I' for Inactive)
REMARK    1  A    between atoms: C2_2  and  C3_3 
REMARK    2  A    between atoms: C3_3  and  C4_4 
REMARK    3  A    between atoms: C7_7  and  O1_8 
REMARK    4  A    between atoms: C12_17  and  N4_19 
REMARK    5  A    between atoms: N4_19  and  C14_20 
ROOT
HETATM    1  C4  UNL     1      22.495   5.028  51.606  1.00  0.00    -0.041 A 
HETATM    2  C5  UNL     1      23.150   4.894  52.742  1.00  0.00     0.008 A 
HETATM    3  C6  UNL     1      23.875   3.631  52.759  1.00  0.00     0.036 A 
HETATM    4  C7  UNL     1      23.618   3.019  51.587  1.00  0.00     0.083 A 
HETATM    5  C9  UNL     1      22.706   3.850  50.778  1.00  0.00     0.149 A 
HETATM    6  N1  UNL     1      21.411   3.127  50.617  1.00  0.00    -0.362 N 
HETATM    7  C10 UNL     1      20.435   2.869  49.555  1.00  0.00     0.207 C 
HETATM    8  N2  UNL     1      20.423   3.640  48.546  1.00  0.00    -0.214 NA
HETATM    9  C11 UNL     1      21.157   4.754  48.157  1.00  0.00     0.222 C 
HETATM   10 CL1  UNL     1      20.446   5.984  47.113  1.00  0.00    -0.041 Cl
HETATM   11  N3  UNL     1      22.348   4.873  48.553  1.00  0.00    -0.225 NA
HETATM   12  C12 UNL     1      23.207   4.050  49.390  1.00  0.00     0.161 C 
HETATM   13  C13 UNL     1      23.136   2.593  48.796  1.00  0.00     0.069 C 
HETATM   14  H13 UNL     1      21.190   2.706  51.564  1.00  0.00     0.162 HD
ENDROOT
BRANCH  12  15
HETATM   15  N4  UNL     1      24.536   4.435  49.159  1.00  0.00    -0.357 N 
HETATM   16  H18 UNL     1      24.181   4.787  48.240  1.00  0.00     0.162 HD
BRANCH  15  17
HETATM   17  C14 UNL     1      25.914   4.837  48.917  1.00  0.00     0.069 A 
HETATM   18  C15 UNL     1      27.126   4.302  48.947  1.00  0.00     0.032 A 
HETATM   19  C16 UNL     1      28.143   5.155  48.618  1.00  0.00     0.002 A 
HETATM   20  C17 UNL     1      27.910   6.486  48.278  1.00  0.00     0.003 A 
HETATM   21  C18 UNL     1      26.562   6.931  48.285  1.00  0.00     0.044 A 
HETATM   22  C19 UNL     1      25.335   6.173  48.609  1.00  0.00     0.142 A 
HETATM   23  F1  UNL     1      24.689   7.231  48.381  1.00  0.00    -0.204 F 
ENDBRANCH  15  17
ENDBRANCH  12  15
BRANCH   1  24
HETATM   24  C3  UNL     1      21.618   6.102  51.089  1.00  0.00     0.037 C 
BRANCH  24  25
HETATM   25  C2  UNL     1      22.301   7.425  50.882  1.00  0.00    -0.000 C 
HETATM   26  C1  UNL     1      21.641   8.173  49.752  1.00  0.00     0.005 C 
ENDBRANCH  24  25
ENDBRANCH   1  24
BRANCH   4  27
HETATM   27  O1  UNL     1      24.170   1.781  51.268  1.00  0.00    -0.357 OA
HETATM   28  C8  UNL     1      25.299   1.314  51.981  1.00  0.00     0.209 C 
ENDBRANCH   4  27
TORSDOF 5
ENDMDL
MODEL 5
REMARK VINA RESULT:      -6.4      3.412      6.245
REMARK  5 active torsions:
REMARK  status: ('A' for Active; 'I' for Inactive)
REMARK    1  A    between atoms: C2_2  and  C3_3 
REMARK    2  A    between atoms: C3_3  and  C4_4 
REMARK    3  A    between atoms: C7_7  and  O1_8 
REMARK    4  A    between atoms: C12_17  and  N4_19 
REMARK    5  A    between atoms: N4_19  and  C14_20 
ROOT
HETATM    1  C4  UNL     1      24.511   3.101  49.795  1.00  0.00    -0.041 A 
HETATM    2  C5  UNL     1      25.544   2.296  49.654  1.00  0.00     0.008 A 
HETATM    3  C6  UNL     1      26.264   2.176  50.914  1.00  0.00     0.036 A 
HETATM    4  C7  UNL     1      25.617   2.949  51.807  1.00  0.00     0.083 A 
HETATM    5  C9  UNL     1      24.469   3.610  51.158  1.00  0.00     0.149 A 
HETATM    6  N1  UNL     1      24.709   5.082  51.137  1.00  0.00    -0.362 N 
HETATM    7  C10 UNL     1      23.947   6.311  51.372  1.00  0.00     0.207 C 
HETATM    8  N2  UNL     1      22.680   6.258  51.298  1.00  0.00    -0.214 NA
HETATM    9  C11 UNL     1      21.756   5.255  51.032  1.00  0.00     0.222 C 
HETATM   10 CL1  UNL     1      20.196   5.636  50.304  1.00  0.00    -0.041 Cl
HETATM   11  N3  UNL     1      22.042   4.064  51.326  1.00  0.00    -0.225 NA
HETATM   12  C12 UNL     1      23.208   3.439  51.931  1.00  0.00     0.161 C 
HETATM   13  C13 UNL     1      23.511   4.251  53.247  1.00  0.00     0.069 C 
HETATM   14  H13 UNL     1      25.728   5.209  50.874  1.00  0.00     0.162 HD
ENDROOT
BRANCH  12  15
HETATM   15  N4  UNL     1      22.826   2.175  52.405  1.00  0.00    -0.357 N 
HETATM   16  H18 UNL     1      23.393   1.803  51.609  1.00  0.00     0.162 HD
BRANCH  15  17
HETATM   17  C14 UNL     1      22.432   0.863  52.895  1.00  0.00     0.069 A 
HETATM   18  C15 UNL     1      22.987  -0.315  53.143  1.00  0.00     0.032 A 
HETATM   19  C16 UNL     1      22.130  -1.269  53.618  1.00  0.00     0.002 A 
HETATM   20  C17 UNL     1      20.777  -1.012  53.822  1.00  0.00     0.003 A 
HETATM   21  C18 UNL     1      20.311   0.294  53.515  1.00  0.00     0.044 A 
HETATM   22  C19 UNL     1      21.070   1.452  52.997  1.00  0.00     0.142 A 
HETATM   23  F1  UNL     1      19.988   2.100  53.025  1.00  0.00    -0.204 F 
ENDBRANCH  15  17
ENDBRANCH  12  15
BRANCH   1  24
HETATM   24  C3  UNL     1      23.474   3.557  48.843  1.00  0.00     0.037 C 
BRANCH  24  25
HETATM   25  C2  UNL     1      22.846   2.462  48.025  1.00  0.00    -0.000 C 
HETATM   26  C1  UNL     1      21.937   1.629  48.891  1.00  0.00     0.005 C 
ENDBRANCH  24  25
ENDBRANCH   1  24
BRANCH   4  27
HETATM   27  O1  UNL     1      26.041   3.055  53.129  1.00  0.00    -0.357 OA
HETATM   28  C8  UNL     1      26.294   1.884  53.879  1.00  0.00     0.209 C 
ENDBRANCH   4  27
TORSDOF 5
ENDMDL
MODEL 6
REMARK VINA RESULT:      -6.3      6.918      9.392
REMARK  5 active torsions:
REMARK  status: ('A' for Active; 'I' for Inactive)
REMARK    1  A    between atoms: C2_2  and  C3_3 
REMARK    2  A    between atoms: C3_3  and  C4_4 
REMARK    3  A    between atoms: C7_7  and  O1_8 
REMARK    4  A    between atoms: C12_17  and  N4_19 
REMARK    5  A    between atoms: N4_19  and  C14_20 
ROOT
HETATM    1  C4  UNL     1      31.130   8.377  45.583  1.00  0.00    -0.041 A 
HETATM    2  C5  UNL     1      32.056   8.897  44.802  1.00  0.00     0.008 A 
HETATM    3  C6  UNL     1      33.217   9.287  45.590  1.00  0.00     0.036 A 
HETATM    4  C7  UNL     1      32.938   8.982  46.871  1.00  0.00     0.083 A 
HETATM    5  C9  UNL     1      31.585   8.402  46.965  1.00  0.00     0.149 A 
HETATM    6  N1  UNL     1      30.717   9.329  47.749  1.00  0.00    -0.362 N 
HETATM    7  C10 UNL     1      29.695   9.236  48.794  1.00  0.00     0.207 C 
HETATM    8  N2  UNL     1      29.097   8.128  48.957  1.00  0.00    -0.214 NA
HETATM    9  C11 UNL     1      29.168   6.879  48.352  1.00  0.00     0.222 C 
HETATM   10 CL1  UNL     1      27.761   5.818  48.303  1.00  0.00    -0.041 Cl
HETATM   11  N3  UNL     1      30.259   6.506  47.842  1.00  0.00    -0.225 NA
HETATM   12  C12 UNL     1      31.570   7.125  47.730  1.00  0.00     0.161 C 
HETATM   13  C13 UNL     1      31.958   7.601  49.181  1.00  0.00     0.069 C 
HETATM   14  H13 UNL     1      30.952  10.306  47.411  1.00  0.00     0.162 HD
ENDROOT
BRANCH  12  15
HETATM   15  N4  UNL     1      32.504   6.116  47.454  1.00  0.00    -0.357 N 
HETATM   16  H18 UNL     1      31.816   5.475  47.911  1.00  0.00     0.162 HD
BRANCH  15  17
HETATM   17  C14 UNL     1      33.472   5.067  47.168  1.00  0.00     0.069 A 
HETATM   18  C15 UNL     1      34.288   4.258  47.830  1.00  0.00     0.032 A 
HETATM   19  C16 UNL     1      35.025   3.414  47.046  1.00  0.00     0.002 A 
HETATM   20  C17 UNL     1      34.918   3.411  45.657  1.00  0.00     0.003 A 
HETATM   21  C18 UNL     1      34.005   4.330  45.076  1.00  0.00     0.044 A 
HETATM   22  C19 UNL     1      33.127   5.315  45.742  1.00  0.00     0.142 A 
HETATM   23  F1  UNL     1      32.722   5.645  44.595  1.00  0.00    -0.204 F 
ENDBRANCH  15  17
ENDBRANCH  12  15
BRANCH   1  24
HETATM   24  C3  UNL     1      29.784   7.835  45.297  1.00  0.00     0.037 C 
BRANCH  24  25
HETATM   25  C2  UNL     1      28.779   8.857  44.839  1.00  0.00    -0.000 C 
HETATM   26  C1  UNL     1      27.506   8.718  45.633  1.00  0.00     0.005 C 
ENDBRANCH  24  25
ENDBRANCH   1  24
BRANCH   4  27
HETATM   27  O1  UNL     1      33.850   9.218  47.897  1.00  0.00    -0.357 OA
HETATM   28  C8  UNL     1      35.130   8.618  47.847  1.00  0.00     0.209 C 
ENDBRANCH   4  27
TORSDOF 5
ENDMDL
MODEL 7
REMARK VINA RESULT:      -6.3      6.703     10.529
REMARK  5 active torsions:
REMARK  status: ('A' for Active; 'I' for Inactive)
REMARK    1  A    between atoms: C2_2  and  C3_3 
REMARK    2  A    between atoms: C3_3  and  C4_4 
REMARK    3  A    between atoms: C7_7  and  O1_8 
REMARK    4  A    between atoms: C12_17  and  N4_19 
REMARK    5  A    between atoms: N4_19  and  C14_20 
ROOT
HETATM    1  C4  UNL     1      32.984   6.902  45.046  1.00  0.00    -0.041 A 
HETATM    2  C5  UNL     1      32.869   5.711  44.496  1.00  0.00     0.008 A 
HETATM    3  C6  UNL     1      33.099   4.673  45.490  1.00  0.00     0.036 A 
HETATM    4  C7  UNL     1      33.361   5.299  46.653  1.00  0.00     0.083 A 
HETATM    5  C9  UNL     1      33.329   6.761  46.453  1.00  0.00     0.149 A 
HETATM    6  N1  UNL     1      34.698   7.308  46.678  1.00  0.00    -0.362 N 
HETATM    7  C10 UNL     1      35.311   8.463  47.340  1.00  0.00     0.207 C 
HETATM    8  N2  UNL     1      34.589   9.482  47.567  1.00  0.00    -0.214 NA
HETATM    9  C11 UNL     1      33.259   9.811  47.332  1.00  0.00     0.222 C 
HETATM   10 CL1  UNL     1      32.772  11.490  47.100  1.00  0.00    -0.041 Cl
HETATM   11  N3  UNL     1      32.397   8.892  47.296  1.00  0.00    -0.225 NA
HETATM   12  C12 UNL     1      32.472   7.449  47.457  1.00  0.00     0.161 C 
HETATM   13  C13 UNL     1      33.259   7.195  48.798  1.00  0.00     0.069 C 
HETATM   14  H13 UNL     1      35.365   6.632  46.208  1.00  0.00     0.162 HD
ENDROOT
BRANCH  12  15
HETATM   15  N4  UNL     1      31.181   6.976  47.739  1.00  0.00    -0.357 N 
HETATM   16  H18 UNL     1      30.887   7.973  47.626  1.00  0.00     0.162 HD
BRANCH  15  17
HETATM   17  C14 UNL     1      29.841   6.488  48.030  1.00  0.00     0.069 A 
HETATM   18  C15 UNL     1      29.211   5.330  48.162  1.00  0.00     0.032 A 
HETATM   19  C16 UNL     1      27.878   5.427  48.453  1.00  0.00     0.002 A 
HETATM   20  C17 UNL     1      27.241   6.657  48.599  1.00  0.00     0.003 A 
HETATM   21  C18 UNL     1      28.034   7.822  48.431  1.00  0.00     0.044 A 
HETATM   22  C19 UNL     1      29.475   7.928  48.117  1.00  0.00     0.142 A 
HETATM   23  F1  UNL     1      29.334   9.180  48.156  1.00  0.00    -0.204 F 
ENDBRANCH  15  17
ENDBRANCH  12  15
BRANCH   1  24
HETATM   24  C3  UNL     1      32.852   8.268  44.490  1.00  0.00     0.037 C 
BRANCH  24  25
HETATM   25  C2  UNL     1      31.619   8.492  43.659  1.00  0.00    -0.000 C 
HETATM   26  C1  UNL     1      30.412   8.616  44.552  1.00  0.00     0.005 C 
ENDBRANCH  24  25
ENDBRANCH   1  24
BRANCH   4  27
HETATM   27  O1  UNL     1      33.620   4.593  47.826  1.00  0.00    -0.357 OA
HETATM   28  C8  UNL     1      34.757   3.756  47.902  1.00  0.00     0.209 C 
ENDBRANCH   4  27
TORSDOF 5
ENDMDL
MODEL 8
REMARK VINA RESULT:      -6.3      3.977      6.746
REMARK  5 active torsions:
REMARK  status: ('A' for Active; 'I' for Inactive)
REMARK    1  A    between atoms: C2_2  and  C3_3 
REMARK    2  A    between atoms: C3_3  and  C4_4 
REMARK    3  A    between atoms: C7_7  and  O1_8 
REMARK    4  A    between atoms: C12_17  and  N4_19 
REMARK    5  A    between atoms: N4_19  and  C14_20 
ROOT
HETATM    1  C4  UNL     1      27.485   6.403  48.362  1.00  0.00    -0.041 A 
HETATM    2  C5  UNL     1      27.349   5.110  48.572  1.00  0.00     0.008 A 
HETATM    3  C6  UNL     1      26.204   4.858  49.435  1.00  0.00     0.036 A 
HETATM    4  C7  UNL     1      25.670   6.058  49.733  1.00  0.00     0.083 A 
HETATM    5  C9  UNL     1      26.456   7.129  49.092  1.00  0.00     0.149 A 
HETATM    6  N1  UNL     1      27.100   7.956  50.154  1.00  0.00    -0.362 N 
HETATM    7  C10 UNL     1      27.344   9.374  50.427  1.00  0.00     0.207 C 
HETATM    8  N2  UNL     1      27.305  10.191  49.457  1.00  0.00    -0.214 NA
HETATM    9  C11 UNL     1      27.069  10.079  48.092  1.00  0.00     0.222 C 
HETATM   10 CL1  UNL     1      27.783  11.224  46.956  1.00  0.00    -0.041 Cl
HETATM   11  N3  UNL     1      26.328   9.151  47.671  1.00  0.00    -0.225 NA
HETATM   12  C12 UNL     1      25.599   8.081  48.333  1.00  0.00     0.161 C 
HETATM   13  C13 UNL     1      24.761   8.762  49.480  1.00  0.00     0.069 C 
HETATM   14  H13 UNL     1      27.459   7.272  50.879  1.00  0.00     0.162 HD
ENDROOT
BRANCH  12  15
HETATM   15  N4  UNL     1      24.620   7.609  47.445  1.00  0.00    -0.357 N 
HETATM   16  H18 UNL     1      23.937   7.901  48.182  1.00  0.00     0.162 HD
BRANCH  15  17
HETATM   17  C14 UNL     1      23.603   7.122  46.526  1.00  0.00     0.069 A 
HETATM   18  C15 UNL     1      22.503   6.383  46.560  1.00  0.00     0.032 A 
HETATM   19  C16 UNL     1      21.882   6.216  45.353  1.00  0.00     0.002 A 
HETATM   20  C17 UNL     1      22.376   6.785  44.181  1.00  0.00     0.003 A 
HETATM   21  C18 UNL     1      23.565   7.554  44.286  1.00  0.00     0.044 A 
HETATM   22  C19 UNL     1      24.378   7.849  45.485  1.00  0.00     0.142 A 
HETATM   23  F1  UNL     1      25.142   8.513  44.733  1.00  0.00    -0.204 F 
ENDBRANCH  15  17
ENDBRANCH  12  15
BRANCH   1  24
HETATM   24  C3  UNL     1      28.469   7.181  47.576  1.00  0.00     0.037 C 
BRANCH  24  25
HETATM   25  C2  UNL     1      29.893   7.043  48.039  1.00  0.00    -0.000 C 
HETATM   26  C1  UNL     1      30.396   8.365  48.558  1.00  0.00     0.005 C 
ENDBRANCH  24  25
ENDBRANCH   1  24
BRANCH   4  27
HETATM   27  O1  UNL     1      24.542   6.179  50.540  1.00  0.00    -0.357 OA
HETATM   28  C8  UNL     1      23.393   5.403  50.260  1.00  0.00     0.209 C 
ENDBRANCH   4  27
TORSDOF 5
ENDMDL
MODEL 9
REMARK VINA RESULT:      -6.2      5.137      8.818
REMARK  5 active torsions:
REMARK  status: ('A' for Active; 'I' for Inactive)
REMARK    1  A    between atoms: C2_2  and  C3_3 
REMARK    2  A    between atoms: C3_3  and  C4_4 
REMARK    3  A    between atoms: C7_7  and  O1_8 
REMARK    4  A    between atoms: C12_17  and  N4_19 
REMARK    5  A    between atoms: N4_19  and  C14_20 
ROOT
HETATM    1  C4  UNL     1      31.101   9.403  48.484  1.00  0.00    -0.041 A 
HETATM    2  C5  UNL     1      30.609  10.202  49.408  1.00  0.00     0.008 A 
HETATM    3  C6  UNL     1      29.454  10.922  48.888  1.00  0.00     0.036 A 
HETATM    4  C7  UNL     1      29.287  10.519  47.613  1.00  0.00     0.083 A 
HETATM    5  C9  UNL     1      30.333   9.542  47.255  1.00  0.00     0.149 A 
HETATM    6  N1  UNL     1      31.203  10.133  46.198  1.00  0.00    -0.362 N 
HETATM    7  C10 UNL     1      31.843   9.703  44.952  1.00  0.00     0.207 C 
HETATM    8  N2  UNL     1      32.020   8.460  44.762  1.00  0.00    -0.214 NA
HETATM    9  C11 UNL     1      31.738   7.309  45.488  1.00  0.00     0.222 C 
HETATM   10 CL1  UNL     1      32.727   5.861  45.303  1.00  0.00    -0.041 Cl
HETATM   11  N3  UNL     1      30.757   7.308  46.280  1.00  0.00    -0.225 NA
HETATM   12  C12 UNL     1      29.767   8.310  46.641  1.00  0.00     0.161 C 
HETATM   13  C13 UNL     1      29.176   8.854  45.285  1.00  0.00     0.069 C 
HETATM   14  H13 UNL     1      31.367  11.141  46.483  1.00  0.00     0.162 HD
ENDROOT
BRANCH  12  15
HETATM   15  N4  UNL     1      28.679   7.651  47.232  1.00  0.00    -0.357 N 
HETATM   16  H18 UNL     1      28.394   7.426  46.251  1.00  0.00     0.162 HD
BRANCH  15  17
HETATM   17  C14 UNL     1      27.550   6.966  47.844  1.00  0.00     0.069 A 
HETATM   18  C15 UNL     1      26.269   7.190  48.099  1.00  0.00     0.032 A 
HETATM   19  C16 UNL     1      25.617   6.167  48.729  1.00  0.00     0.002 A 
HETATM   20  C17 UNL     1      26.260   4.981  49.074  1.00  0.00     0.003 A 
HETATM   21  C18 UNL     1      27.637   4.870  48.743  1.00  0.00     0.044 A 
HETATM   22  C19 UNL     1      28.512   5.853  48.069  1.00  0.00     0.142 A 
HETATM   23  F1  UNL     1      29.445   5.012  48.180  1.00  0.00    -0.204 F 
ENDBRANCH  15  17
ENDBRANCH  12  15
BRANCH   1  24
HETATM   24  C3  UNL     1      32.251   8.471  48.490  1.00  0.00     0.037 C 
BRANCH  24  25
HETATM   25  C2  UNL     1      32.151   7.358  49.497  1.00  0.00    -0.000 C 
HETATM   26  C1  UNL     1      32.835   6.123  48.967  1.00  0.00     0.005 C 
ENDBRANCH  24  25
ENDBRANCH   1  24
BRANCH   4  27
HETATM   27  O1  UNL     1      28.254  11.009  46.818  1.00  0.00    -0.357 OA
HETATM   28  C8  UNL     1      26.930  11.011  47.315  1.00  0.00     0.209 C 
ENDBRANCH   4  27
TORSDOF 5
ENDMDL
