MODEL 1
REMARK VINA RESULT:      -7.2      0.000      0.000
REMARK  7 active torsions:
REMARK  status: ('A' for Active; 'I' for Inactive)
REMARK    1  A    between atoms: C2_2  and  C3_3 
REMARK    2  A    between atoms: C2_2  and  N1_6 
REMARK    3  A    between atoms: C3_3  and  C4_4 
REMARK    4  A    between atoms: N1_6  and  C5_7 
REMARK    5  A    between atoms: C7_9  and  C8_10 
REMARK    6  A    between atoms: C8_10  and  C9_11 
REMARK    7  A    between atoms: C18_24  and  N4_25 
ROOT
HETATM    1  C5  UNL     1      24.737   0.730  53.324  1.00  0.00     0.050 C 
HETATM    2  C6  UNL     1      23.485   0.276  53.014  1.00  0.00     0.002 C 
HETATM    3  C7  UNL     1      22.258   0.583  52.206  1.00  0.00    -0.021 C 
HETATM    4  C14 UNL     1      21.258   0.154  52.964  1.00  0.00     0.069 C 
HETATM    5  C15 UNL     1      19.949   0.360  52.413  1.00  0.00     0.101 C 
HETATM    6  N2  UNL     1      18.891   0.507  51.974  1.00  0.00    -0.191 NA
HETATM    7  C16 UNL     1      21.384  -0.719  54.128  1.00  0.00     0.134 C 
HETATM    8  N3  UNL     1      22.523  -1.219  54.551  1.00  0.00    -0.288 NA
HETATM    9  C17 UNL     1      23.701  -0.928  53.842  1.00  0.00     0.182 C 
HETATM   10  C18 UNL     1      24.926  -0.340  54.353  1.00  0.00     0.296 C 
ENDROOT
BRANCH   3  11
HETATM   11  C8  UNL     1      22.371   1.249  50.941  1.00  0.00     0.078 C 
BRANCH  11  12
HETATM   12  C9  UNL     1      22.523   2.683  50.849  1.00  0.00    -0.032 C 
HETATM   13  C10 UNL     1      23.068   3.186  49.731  1.00  0.00     0.120 C 
HETATM   14  F1  UNL     1      23.488   2.411  48.674  1.00  0.00    -0.206 F 
HETATM   15  C11 UNL     1      23.260   4.612  49.594  1.00  0.00     0.056 C 
HETATM   16  C12 UNL     1      23.788   5.419  50.470  1.00  0.00    -0.012 C 
HETATM   17  P1  UNL     1      23.455   4.958  52.009  1.00  0.00    -0.044 P 
HETATM   18  C13 UNL     1      22.151   3.589  51.967  1.00  0.00     0.082 C 
ENDBRANCH  11  12
ENDBRANCH   3  11
BRANCH   1  19
HETATM   19  N1  UNL     1      25.622   1.811  53.020  1.00  0.00    -0.386 N 
HETATM   20  H8  UNL     1      25.347   2.678  53.579  1.00  0.00     0.159 HD
BRANCH  19  21
HETATM   21  C2  UNL     1      26.725   1.824  52.126  1.00  0.00     0.080 C 
HETATM   22  C1  UNL     1      26.564   2.652  50.905  1.00  0.00     0.032 C 
BRANCH  21  23
HETATM   23  C3  UNL     1      27.929   2.366  52.912  1.00  0.00     0.061 C 
BRANCH  23  24
HETATM   24  C4  UNL     1      28.575   1.270  53.718  1.00  0.00     0.392 C 
HETATM   25  O1  UNL     1      28.143   0.966  54.814  1.00  0.00    -0.430 OA
ENDBRANCH  23  24
ENDBRANCH  21  23
ENDBRANCH  19  21
ENDBRANCH   1  19
BRANCH  10  26
HETATM   26  N4  UNL     1      26.071  -1.217  54.071  1.00  0.00     0.091 N 
HETATM   27  H17 UNL     1      26.920  -0.622  53.915  1.00  0.00     0.313 HD
HETATM   28  H18 UNL     1      26.251  -1.732  54.978  1.00  0.00     0.313 HD
ENDBRANCH  10  26
TORSDOF 7
ENDMDL
MODEL 2
REMARK VINA RESULT:      -7.0      3.251      5.403
REMARK  7 active torsions:
REMARK  status: ('A' for Active; 'I' for Inactive)
REMARK    1  A    between atoms: C2_2  and  C3_3 
REMARK    2  A    between atoms: C2_2  and  N1_6 
REMARK    3  A    between atoms: C3_3  and  C4_4 
REMARK    4  A    between atoms: N1_6  and  C5_7 
REMARK    5  A    between atoms: C7_9  and  C8_10 
REMARK    6  A    between atoms: C8_10  and  C9_11 
REMARK    7  A    between atoms: C18_24  and  N4_25 
ROOT
HETATM    1  C5  UNL     1      24.310   4.023  50.717  1.00  0.00     0.050 C 
HETATM    2  C6  UNL     1      23.875   3.090  51.618  1.00  0.00     0.002 C 
HETATM    3  C7  UNL     1      24.043   1.662  52.050  1.00  0.00    -0.021 C 
HETATM    4  C14 UNL     1      22.826   1.297  52.429  1.00  0.00     0.069 C 
HETATM    5  C15 UNL     1      22.712  -0.064  52.872  1.00  0.00     0.101 C 
HETATM    6  N2  UNL     1      22.612  -1.152  53.245  1.00  0.00    -0.191 NA
HETATM    7  C16 UNL     1      21.706   2.198  52.686  1.00  0.00     0.134 C 
HETATM    8  N3  UNL     1      21.782   3.508  52.600  1.00  0.00    -0.288 NA
HETATM    9  C17 UNL     1      23.012   4.098  52.266  1.00  0.00     0.182 C 
HETATM   10  C18 UNL     1      23.292   5.017  51.178  1.00  0.00     0.296 C 
ENDROOT
BRANCH   3  11
HETATM   11  C8  UNL     1      25.318   1.016  51.939  1.00  0.00     0.078 C 
BRANCH  11  12
HETATM   12  C9  UNL     1      26.359   1.218  52.921  1.00  0.00    -0.032 C 
HETATM   13  C10 UNL     1      27.324   2.106  52.639  1.00  0.00     0.120 C 
HETATM   14  F1  UNL     1      27.374   2.829  51.469  1.00  0.00    -0.206 F 
HETATM   15  C11 UNL     1      28.399   2.334  53.578  1.00  0.00     0.056 C 
HETATM   16  C12 UNL     1      29.113   1.430  54.186  1.00  0.00    -0.012 C 
HETATM   17  P1  UNL     1      28.241   0.080  54.519  1.00  0.00    -0.044 P 
HETATM   18  C13 UNL     1      26.414   0.436  54.184  1.00  0.00     0.082 C 
ENDBRANCH  11  12
ENDBRANCH   3  11
BRANCH   1  19
HETATM   19  N1  UNL     1      25.228   4.156  49.629  1.00  0.00    -0.386 N 
HETATM   20  H8  UNL     1      25.056   3.388  48.908  1.00  0.00     0.159 HD
BRANCH  19  21
HETATM   21  C2  UNL     1      26.247   5.129  49.447  1.00  0.00     0.080 C 
HETATM   22  C1  UNL     1      27.485   4.659  48.779  1.00  0.00     0.032 C 
BRANCH  21  23
HETATM   23  C3  UNL     1      25.641   6.252  48.590  1.00  0.00     0.061 C 
BRANCH  23  24
HETATM   24  C4  UNL     1      25.975   7.602  49.169  1.00  0.00     0.392 C 
HETATM   25  O1  UNL     1      26.196   7.730  50.359  1.00  0.00    -0.430 OA
ENDBRANCH  23  24
ENDBRANCH  21  23
ENDBRANCH  19  21
ENDBRANCH   1  19
BRANCH  10  26
HETATM   26  N4  UNL     1      23.889   6.257  51.695  1.00  0.00     0.091 N 
HETATM   27  H17 UNL     1      24.925   6.220  51.544  1.00  0.00     0.313 HD
HETATM   28  H18 UNL     1      23.537   7.019  51.051  1.00  0.00     0.313 HD
ENDBRANCH  10  26
TORSDOF 7
ENDMDL
MODEL 3
REMARK VINA RESULT:      -7.0      2.364      3.501
REMARK  7 active torsions:
REMARK  status: ('A' for Active; 'I' for Inactive)
REMARK    1  A    between atoms: C2_2  and  C3_3 
REMARK    2  A    between atoms: C2_2  and  N1_6 
REMARK    3  A    between atoms: C3_3  and  C4_4 
REMARK    4  A    between atoms: N1_6  and  C5_7 
REMARK    5  A    between atoms: C7_9  and  C8_10 
REMARK    6  A    between atoms: C8_10  and  C9_11 
REMARK    7  A    between atoms: C18_24  and  N4_25 
ROOT
HETATM    1  C5  UNL     1      25.570   1.722  52.872  1.00  0.00     0.050 C 
HETATM    2  C6  UNL     1      24.799   0.637  53.189  1.00  0.00     0.002 C 
HETATM    3  C7  UNL     1      23.403   0.089  53.119  1.00  0.00    -0.021 C 
HETATM    4  C14 UNL     1      23.277  -0.611  54.238  1.00  0.00     0.069 C 
HETATM    5  C15 UNL     1      21.995  -1.229  54.424  1.00  0.00     0.101 C 
HETATM    6  N2  UNL     1      20.972  -1.743  54.577  1.00  0.00    -0.191 NA
HETATM    7  C16 UNL     1      24.369  -1.017  55.119  1.00  0.00     0.134 C 
HETATM    8  N3  UNL     1      25.636  -0.759  54.885  1.00  0.00    -0.288 NA
HETATM    9  C17 UNL     1      25.986  -0.072  53.710  1.00  0.00     0.182 C 
HETATM   10  C18 UNL     1      26.753   1.155  53.590  1.00  0.00     0.296 C 
ENDROOT
BRANCH   3  11
HETATM   11  C8  UNL     1      22.548   0.421  52.017  1.00  0.00     0.078 C 
BRANCH  11  12
HETATM   12  C9  UNL     1      21.543   1.454  52.121  1.00  0.00    -0.032 C 
HETATM   13  C10 UNL     1      20.261   1.102  51.943  1.00  0.00     0.120 C 
HETATM   14  F1  UNL     1      19.856  -0.184  51.667  1.00  0.00    -0.206 F 
HETATM   15  C11 UNL     1      19.216   2.098  52.019  1.00  0.00     0.056 C 
HETATM   16  C12 UNL     1      19.201   3.263  51.435  1.00  0.00    -0.012 C 
HETATM   17  P1  UNL     1      20.704   3.912  51.317  1.00  0.00    -0.044 P 
HETATM   18  C13 UNL     1      21.897   2.878  52.358  1.00  0.00     0.082 C 
ENDBRANCH  11  12
ENDBRANCH   3  11
BRANCH   1  19
HETATM   19  N1  UNL     1      25.460   3.005  52.251  1.00  0.00    -0.386 N 
HETATM   20  H8  UNL     1      25.632   3.775  52.969  1.00  0.00     0.159 HD
BRANCH  19  21
HETATM   21  C2  UNL     1      25.171   3.307  50.894  1.00  0.00     0.080 C 
HETATM   22  C1  UNL     1      24.679   4.680  50.623  1.00  0.00     0.032 C 
BRANCH  21  23
HETATM   23  C3  UNL     1      26.474   3.105  50.106  1.00  0.00     0.061 C 
BRANCH  23  24
HETATM   24  C4  UNL     1      26.754   4.295  49.226  1.00  0.00     0.392 C 
HETATM   25  O1  UNL     1      27.870   4.491  48.783  1.00  0.00    -0.430 OA
ENDBRANCH  23  24
ENDBRANCH  21  23
ENDBRANCH  19  21
ENDBRANCH   1  19
BRANCH  10  26
HETATM   26  N4  UNL     1      27.916   0.948  52.714  1.00  0.00     0.091 N 
HETATM   27  H17 UNL     1      28.732   0.654  53.303  1.00  0.00     0.313 HD
HETATM   28  H18 UNL     1      27.670   0.100  52.130  1.00  0.00     0.313 HD
ENDBRANCH  10  26
TORSDOF 7
ENDMDL
MODEL 4
REMARK VINA RESULT:      -6.8      2.639      5.167
REMARK  7 active torsions:
REMARK  status: ('A' for Active; 'I' for Inactive)
REMARK    1  A    between atoms: C2_2  and  C3_3 
REMARK    2  A    between atoms: C2_2  and  N1_6 
REMARK    3  A    between atoms: C3_3  and  C4_4 
REMARK    4  A    between atoms: N1_6  and  C5_7 
REMARK    5  A    between atoms: C7_9  and  C8_10 
REMARK    6  A    between atoms: C8_10  and  C9_11 
REMARK    7  A    between atoms: C18_24  and  N4_25 
ROOT
HETATM    1  C5  UNL     1      22.076   0.538  52.953  1.00  0.00     0.050 C 
HETATM    2  C6  UNL     1      23.407   0.810  53.118  1.00  0.00     0.002 C 
HETATM    3  C7  UNL     1      24.465   1.846  52.874  1.00  0.00    -0.021 C 
HETATM    4  C14 UNL     1      25.553   1.137  52.607  1.00  0.00     0.069 C 
HETATM    5  C15 UNL     1      26.723   1.913  52.309  1.00  0.00     0.101 C 
HETATM    6  N2  UNL     1      27.674   2.527  52.081  1.00  0.00    -0.191 NA
HETATM    7  C16 UNL     1      25.722  -0.293  52.854  1.00  0.00     0.134 C 
HETATM    8  N3  UNL     1      24.807  -1.055  53.410  1.00  0.00    -0.288 NA
HETATM    9  C17 UNL     1      23.595  -0.476  53.822  1.00  0.00     0.182 C 
HETATM   10  C18 UNL     1      22.249  -0.864  53.444  1.00  0.00     0.296 C 
ENDROOT
BRANCH   3  11
HETATM   11  C8  UNL     1      24.137   3.241  52.918  1.00  0.00     0.078 C 
BRANCH  11  12
HETATM   12  C9  UNL     1      23.660   3.945  51.750  1.00  0.00    -0.032 C 
HETATM   13  C10 UNL     1      22.383   4.356  51.742  1.00  0.00     0.120 C 
HETATM   14  F1  UNL     1      21.508   4.141  52.783  1.00  0.00    -0.206 F 
HETATM   15  C11 UNL     1      21.849   5.049  50.592  1.00  0.00     0.056 C 
HETATM   16  C12 UNL     1      21.968   4.701  49.342  1.00  0.00    -0.012 C 
HETATM   17  P1  UNL     1      23.405   3.966  49.043  1.00  0.00    -0.044 P 
HETATM   18  C13 UNL     1      24.519   4.168  50.558  1.00  0.00     0.082 C 
ENDBRANCH  11  12
ENDBRANCH   3  11
BRANCH   1  19
HETATM   19  N1  UNL     1      20.889   1.139  52.431  1.00  0.00    -0.386 N 
HETATM   20  H8  UNL     1      20.307   1.552  53.224  1.00  0.00     0.159 HD
BRANCH  19  21
HETATM   21  C2  UNL     1      20.464   1.225  51.078  1.00  0.00     0.080 C 
HETATM   22  C1  UNL     1      21.449   0.789  50.058  1.00  0.00     0.032 C 
BRANCH  21  23
HETATM   23  C3  UNL     1      19.217   0.335  50.946  1.00  0.00     0.061 C 
BRANCH  23  24
HETATM   24  C4  UNL     1      18.556   0.144  52.286  1.00  0.00     0.392 C 
HETATM   25  O1  UNL     1      18.779  -0.849  52.953  1.00  0.00    -0.430 OA
ENDBRANCH  23  24
ENDBRANCH  21  23
ENDBRANCH  19  21
ENDBRANCH   1  19
BRANCH  10  26
HETATM   26  N4  UNL     1      21.447  -1.160  54.640  1.00  0.00     0.091 N 
HETATM   27  H17 UNL     1      21.914  -1.930  55.176  1.00  0.00     0.313 HD
HETATM   28  H18 UNL     1      21.536  -0.299  55.249  1.00  0.00     0.313 HD
ENDBRANCH  10  26
TORSDOF 7
ENDMDL
MODEL 5
REMARK VINA RESULT:      -6.8      2.564      5.041
REMARK  7 active torsions:
REMARK  status: ('A' for Active; 'I' for Inactive)
REMARK    1  A    between atoms: C2_2  and  C3_3 
REMARK    2  A    between atoms: C2_2  and  N1_6 
REMARK    3  A    between atoms: C3_3  and  C4_4 
REMARK    4  A    between atoms: N1_6  and  C5_7 
REMARK    5  A    between atoms: C7_9  and  C8_10 
REMARK    6  A    between atoms: C8_10  and  C9_11 
REMARK    7  A    between atoms: C18_24  and  N4_25 
ROOT
HETATM    1  C5  UNL     1      23.741   0.357  52.701  1.00  0.00     0.050 C 
HETATM    2  C6  UNL     1      24.495   1.438  52.333  1.00  0.00     0.002 C 
HETATM    3  C7  UNL     1      24.444   2.755  51.616  1.00  0.00    -0.021 C 
HETATM    4  C14 UNL     1      25.630   2.849  51.033  1.00  0.00     0.069 C 
HETATM    5  C15 UNL     1      25.827   4.034  50.247  1.00  0.00     0.101 C 
HETATM    6  N2  UNL     1      26.002   4.991  49.625  1.00  0.00    -0.191 NA
HETATM    7  C16 UNL     1      26.797   2.024  51.334  1.00  0.00     0.134 C 
HETATM    8  N3  UNL     1      26.819   1.091  52.260  1.00  0.00    -0.288 NA
HETATM    9  C17 UNL     1      25.667   0.876  53.036  1.00  0.00     0.182 C 
HETATM   10  C18 UNL     1      24.940  -0.367  53.225  1.00  0.00     0.296 C 
ENDROOT
BRANCH   3  11
HETATM   11  C8  UNL     1      23.251   3.550  51.645  1.00  0.00     0.078 C 
BRANCH  11  12
HETATM   12  C9  UNL     1      22.165   3.323  50.719  1.00  0.00    -0.032 C 
HETATM   13  C10 UNL     1      20.911   3.455  51.178  1.00  0.00     0.120 C 
HETATM   14  F1  UNL     1      20.608   3.793  52.477  1.00  0.00    -0.206 F 
HETATM   15  C11 UNL     1      19.787   3.222  50.299  1.00  0.00     0.056 C 
HETATM   16  C12 UNL     1      19.615   2.208  49.500  1.00  0.00    -0.012 C 
HETATM   17  P1  UNL     1      21.036   1.659  48.889  1.00  0.00    -0.044 P 
HETATM   18  C13 UNL     1      22.401   2.896  49.315  1.00  0.00     0.082 C 
ENDBRANCH  11  12
ENDBRANCH   3  11
BRANCH   1  19
HETATM   19  N1  UNL     1      22.401  -0.133  52.603  1.00  0.00    -0.386 N 
HETATM   20  H8  UNL     1      22.384  -1.045  52.049  1.00  0.00     0.159 HD
BRANCH  19  21
HETATM   21  C2  UNL     1      21.212   0.437  53.131  1.00  0.00     0.080 C 
HETATM   22  C1  UNL     1      19.951   0.064  52.444  1.00  0.00     0.032 C 
BRANCH  21  23
HETATM   23  C3  UNL     1      21.110  -0.023  54.594  1.00  0.00     0.061 C 
BRANCH  23  24
HETATM   24  C4  UNL     1      21.274  -1.516  54.695  1.00  0.00     0.392 C 
HETATM   25  O1  UNL     1      22.235  -1.999  55.266  1.00  0.00    -0.430 OA
ENDBRANCH  23  24
ENDBRANCH  21  23
ENDBRANCH  19  21
ENDBRANCH   1  19
BRANCH  10  26
HETATM   26  N4  UNL     1      24.842  -0.689  54.655  1.00  0.00     0.091 N 
HETATM   27  H17 UNL     1      23.917  -0.350  55.014  1.00  0.00     0.313 HD
HETATM   28  H18 UNL     1      24.788  -1.746  54.694  1.00  0.00     0.313 HD
ENDBRANCH  10  26
TORSDOF 7
ENDMDL
MODEL 6
REMARK VINA RESULT:      -6.7      2.693      4.422
REMARK  7 active torsions:
REMARK  status: ('A' for Active; 'I' for Inactive)
REMARK    1  A    between atoms: C2_2  and  C3_3 
REMARK    2  A    between atoms: C2_2  and  N1_6 
REMARK    3  A    between atoms: C3_3  and  C4_4 
REMARK    4  A    between atoms: N1_6  and  C5_7 
REMARK    5  A    between atoms: C7_9  and  C8_10 
REMARK    6  A    between atoms: C8_10  and  C9_11 
REMARK    7  A    between atoms: C18_24  and  N4_25 
ROOT
HETATM    1  C5  UNL     1      24.770   2.859  52.249  1.00  0.00     0.050 C 
HETATM    2  C6  UNL     1      24.277   1.621  52.558  1.00  0.00     0.002 C 
HETATM    3  C7  UNL     1      23.111   0.909  53.180  1.00  0.00    -0.021 C 
HETATM    4  C14 UNL     1      23.657  -0.136  53.785  1.00  0.00     0.069 C 
HETATM    5  C15 UNL     1      22.734  -0.980  54.489  1.00  0.00     0.101 C 
HETATM    6  N2  UNL     1      21.999  -1.674  55.046  1.00  0.00    -0.191 NA
HETATM    7  C16 UNL     1      25.015  -0.631  53.573  1.00  0.00     0.134 C 
HETATM    8  N3  UNL     1      25.863  -0.107  52.715  1.00  0.00    -0.288 NA
HETATM    9  C17 UNL     1      25.450   0.981  51.928  1.00  0.00     0.182 C 
HETATM   10  C18 UNL     1      26.079   2.284  51.808  1.00  0.00     0.296 C 
ENDROOT
BRANCH   3  11
HETATM   11  C8  UNL     1      21.787   1.449  53.064  1.00  0.00     0.078 C 
BRANCH  11  12
HETATM   12  C9  UNL     1      20.844   0.944  52.093  1.00  0.00    -0.032 C 
HETATM   13  C10 UNL     1      20.938   1.395  50.833  1.00  0.00     0.120 C 
HETATM   14  F1  UNL     1      21.880   2.308  50.420  1.00  0.00    -0.206 F 
HETATM   15  C11 UNL     1      20.008   0.936  49.826  1.00  0.00     0.056 C 
HETATM   16  C12 UNL     1      18.711   0.865  49.930  1.00  0.00    -0.012 C 
HETATM   17  P1  UNL     1      18.237   0.503  51.459  1.00  0.00    -0.044 P 
HETATM   18  C13 UNL     1      19.757   0.001  52.466  1.00  0.00     0.082 C 
ENDBRANCH  11  12
ENDBRANCH   3  11
BRANCH   1  19
HETATM   19  N1  UNL     1      24.414   4.240  52.347  1.00  0.00    -0.386 N 
HETATM   20  H8  UNL     1      24.933   4.695  53.161  1.00  0.00     0.159 HD
BRANCH  19  21
HETATM   21  C2  UNL     1      23.518   4.981  51.532  1.00  0.00     0.080 C 
HETATM   22  C1  UNL     1      22.124   5.088  52.028  1.00  0.00     0.032 C 
BRANCH  21  23
HETATM   23  C3  UNL     1      24.092   6.402  51.416  1.00  0.00     0.061 C 
BRANCH  23  24
HETATM   24  C4  UNL     1      25.166   6.457  50.362  1.00  0.00     0.392 C 
HETATM   25  O1  UNL     1      25.676   5.436  49.940  1.00  0.00    -0.430 OA
ENDBRANCH  23  24
ENDBRANCH  21  23
ENDBRANCH  19  21
ENDBRANCH   1  19
BRANCH  10  26
HETATM   26  N4  UNL     1      26.394   2.574  50.402  1.00  0.00     0.091 N 
HETATM   27  H17 UNL     1      26.603   3.597  50.309  1.00  0.00     0.313 HD
HETATM   28  H18 UNL     1      27.312   2.080  50.221  1.00  0.00     0.313 HD
ENDBRANCH  10  26
TORSDOF 7
ENDMDL
MODEL 7
REMARK VINA RESULT:      -6.7      2.653      4.793
REMARK  7 active torsions:
REMARK  status: ('A' for Active; 'I' for Inactive)
REMARK    1  A    between atoms: C2_2  and  C3_3 
REMARK    2  A    between atoms: C2_2  and  N1_6 
REMARK    3  A    between atoms: C3_3  and  C4_4 
REMARK    4  A    between atoms: N1_6  and  C5_7 
REMARK    5  A    between atoms: C7_9  and  C8_10 
REMARK    6  A    between atoms: C8_10  and  C9_11 
REMARK    7  A    between atoms: C18_24  and  N4_25 
ROOT
HETATM    1  C5  UNL     1      25.159   2.948  51.355  1.00  0.00     0.050 C 
HETATM    2  C6  UNL     1      23.870   2.767  50.933  1.00  0.00     0.002 C 
HETATM    3  C7  UNL     1      22.583   2.068  51.260  1.00  0.00    -0.021 C 
HETATM    4  C14 UNL     1      22.073   1.763  50.075  1.00  0.00     0.069 C 
HETATM    5  C15 UNL     1      20.827   1.052  50.115  1.00  0.00     0.101 C 
HETATM    6  N2  UNL     1      19.817   0.493  50.136  1.00  0.00    -0.191 NA
HETATM    7  C16 UNL     1      22.511   2.308  48.792  1.00  0.00     0.134 C 
HETATM    8  N3  UNL     1      23.461   3.208  48.661  1.00  0.00    -0.288 NA
HETATM    9  C17 UNL     1      24.090   3.706  49.815  1.00  0.00     0.182 C 
HETATM   10  C18 UNL     1      25.508   3.718  50.121  1.00  0.00     0.296 C 
ENDROOT
BRANCH   3  11
HETATM   11  C8  UNL     1      22.208   1.839  52.625  1.00  0.00     0.078 C 
BRANCH  11  12
HETATM   12  C9  UNL     1      22.490   0.587  53.290  1.00  0.00    -0.032 C 
HETATM   13  C10 UNL     1      21.597   0.136  54.183  1.00  0.00     0.120 C 
HETATM   14  F1  UNL     1      20.434   0.800  54.499  1.00  0.00    -0.206 F 
HETATM   15  C11 UNL     1      21.838  -1.102  54.890  1.00  0.00     0.056 C 
HETATM   16  C12 UNL     1      22.939  -1.462  55.488  1.00  0.00    -0.012 C 
HETATM   17  P1  UNL     1      24.271  -0.887  54.721  1.00  0.00    -0.044 P 
HETATM   18  C13 UNL     1      23.750  -0.165  53.052  1.00  0.00     0.082 C 
ENDBRANCH  11  12
ENDBRANCH   3  11
BRANCH   1  19
HETATM   19  N1  UNL     1      26.036   2.551  52.412  1.00  0.00    -0.386 N 
HETATM   20  H8  UNL     1      25.572   2.723  53.357  1.00  0.00     0.159 HD
BRANCH  19  21
HETATM   21  C2  UNL     1      27.341   2.000  52.316  1.00  0.00     0.080 C 
HETATM   22  C1  UNL     1      28.285   2.370  53.398  1.00  0.00     0.032 C 
BRANCH  21  23
HETATM   23  C3  UNL     1      27.182   0.471  52.326  1.00  0.00     0.061 C 
BRANCH  23  24
HETATM   24  C4  UNL     1      28.192  -0.163  53.246  1.00  0.00     0.392 C 
HETATM   25  O1  UNL     1      27.861  -1.038  54.023  1.00  0.00    -0.430 OA
ENDBRANCH  23  24
ENDBRANCH  21  23
ENDBRANCH  19  21
ENDBRANCH   1  19
BRANCH  10  26
HETATM   26  N4  UNL     1      25.960   5.088  50.403  1.00  0.00     0.091 N 
HETATM   27  H17 UNL     1      25.434   5.750  49.783  1.00  0.00     0.313 HD
HETATM   28  H18 UNL     1      25.620   5.292  51.385  1.00  0.00     0.313 HD
ENDBRANCH  10  26
TORSDOF 7
ENDMDL
MODEL 8
REMARK VINA RESULT:      -6.7      1.894      2.314
REMARK  7 active torsions:
REMARK  status: ('A' for Active; 'I' for Inactive)
REMARK    1  A    between atoms: C2_2  and  C3_3 
REMARK    2  A    between atoms: C2_2  and  N1_6 
REMARK    3  A    between atoms: C3_3  and  C4_4 
REMARK    4  A    between atoms: N1_6  and  C5_7 
REMARK    5  A    between atoms: C7_9  and  C8_10 
REMARK    6  A    between atoms: C8_10  and  C9_11 
REMARK    7  A    between atoms: C18_24  and  N4_25 
ROOT
HETATM    1  C5  UNL     1      25.721   1.066  54.157  1.00  0.00     0.050 C 
HETATM    2  C6  UNL     1      24.566   0.393  53.865  1.00  0.00     0.002 C 
HETATM    3  C7  UNL     1      23.245   0.515  53.163  1.00  0.00    -0.021 C 
HETATM    4  C14 UNL     1      22.414  -0.187  53.921  1.00  0.00     0.069 C 
HETATM    5  C15 UNL     1      21.052  -0.207  53.468  1.00  0.00     0.101 C 
HETATM    6  N2  UNL     1      19.956  -0.242  53.105  1.00  0.00    -0.191 NA
HETATM    7  C16 UNL     1      22.802  -1.126  54.970  1.00  0.00     0.134 C 
HETATM    8  N3  UNL     1      24.048  -1.416  55.273  1.00  0.00    -0.288 NA
HETATM    9  C17 UNL     1      25.084  -0.815  54.539  1.00  0.00     0.182 C 
HETATM   10  C18 UNL     1      26.200  -0.037  55.046  1.00  0.00     0.296 C 
ENDROOT
BRANCH   3  11
HETATM   11  C8  UNL     1      23.125   1.312  51.977  1.00  0.00     0.078 C 
BRANCH  11  12
HETATM   12  C9  UNL     1      22.666   2.681  52.026  1.00  0.00    -0.032 C 
HETATM   13  C10 UNL     1      21.462   2.959  51.503  1.00  0.00     0.120 C 
HETATM   14  F1  UNL     1      20.648   2.013  50.924  1.00  0.00    -0.206 F 
HETATM   15  C11 UNL     1      20.963   4.315  51.509  1.00  0.00     0.056 C 
HETATM   16  C12 UNL     1      21.606   5.389  51.147  1.00  0.00    -0.012 C 
HETATM   17  P1  UNL     1      23.208   5.290  51.488  1.00  0.00    -0.044 P 
HETATM   18  C13 UNL     1      23.507   3.775  52.579  1.00  0.00     0.082 C 
ENDBRANCH  11  12
ENDBRANCH   3  11
BRANCH   1  19
HETATM   19  N1  UNL     1      26.342   2.334  53.929  1.00  0.00    -0.386 N 
HETATM   20  H8  UNL     1      25.952   3.059  54.607  1.00  0.00     0.159 HD
BRANCH  19  21
HETATM   21  C2  UNL     1      27.336   2.671  52.972  1.00  0.00     0.080 C 
HETATM   22  C1  UNL     1      28.715   2.218  53.278  1.00  0.00     0.032 C 
BRANCH  21  23
HETATM   23  C3  UNL     1      26.909   2.029  51.642  1.00  0.00     0.061 C 
BRANCH  23  24
HETATM   24  C4  UNL     1      26.577   3.087  50.623  1.00  0.00     0.392 C 
HETATM   25  O1  UNL     1      25.650   2.937  49.849  1.00  0.00    -0.430 OA
ENDBRANCH  23  24
ENDBRANCH  21  23
ENDBRANCH  19  21
ENDBRANCH   1  19
BRANCH  10  26
HETATM   26  N4  UNL     1      27.474  -0.622  54.606  1.00  0.00     0.091 N 
HETATM   27  H17 UNL     1      27.732  -1.399  55.262  1.00  0.00     0.313 HD
HETATM   28  H18 UNL     1      27.255  -1.093  53.684  1.00  0.00     0.313 HD
ENDBRANCH  10  26
TORSDOF 7
ENDMDL
MODEL 9
REMARK VINA RESULT:      -6.6      2.106      2.542
REMARK  7 active torsions:
REMARK  status: ('A' for Active; 'I' for Inactive)
REMARK    1  A    between atoms: C2_2  and  C3_3 
REMARK    2  A    between atoms: C2_2  and  N1_6 
REMARK    3  A    between atoms: C3_3  and  C4_4 
REMARK    4  A    between atoms: N1_6  and  C5_7 
REMARK    5  A    between atoms: C7_9  and  C8_10 
REMARK    6  A    between atoms: C8_10  and  C9_11 
REMARK    7  A    between atoms: C18_24  and  N4_25 
ROOT
HETATM    1  C5  UNL     1      24.148   0.972  52.359  1.00  0.00     0.050 C 
HETATM    2  C6  UNL     1      23.060   0.192  52.638  1.00  0.00     0.002 C 
HETATM    3  C7  UNL     1      21.620  -0.040  52.282  1.00  0.00    -0.021 C 
HETATM    4  C14 UNL     1      21.061  -0.402  53.428  1.00  0.00     0.069 C 
HETATM    5  C15 UNL     1      19.651  -0.662  53.358  1.00  0.00     0.101 C 
HETATM    6  N2  UNL     1      18.520  -0.888  53.310  1.00  0.00    -0.191 NA
HETATM    7  C16 UNL     1      21.774  -0.809  54.636  1.00  0.00     0.134 C 
HETATM    8  N3  UNL     1      23.083  -0.897  54.721  1.00  0.00    -0.288 NA
HETATM    9  C17 UNL     1      23.861  -0.609  53.586  1.00  0.00     0.182 C 
HETATM   10  C18 UNL     1      24.940   0.354  53.467  1.00  0.00     0.296 C 
ENDROOT
BRANCH   3  11
HETATM   11  C8  UNL     1      21.158   0.192  50.945  1.00  0.00     0.078 C 
BRANCH  11  12
HETATM   12  C9  UNL     1      20.724   1.499  50.508  1.00  0.00    -0.032 C 
HETATM   13  C10 UNL     1      21.422   2.099  49.532  1.00  0.00     0.120 C 
HETATM   14  F1  UNL     1      22.525   1.538  48.930  1.00  0.00    -0.206 F 
HETATM   15  C11 UNL     1      21.042   3.415  49.070  1.00  0.00     0.056 C 
HETATM   16  C12 UNL     1      20.767   4.455  49.805  1.00  0.00    -0.012 C 
HETATM   17  P1  UNL     1      20.046   4.035  51.219  1.00  0.00    -0.044 P 
HETATM   18  C13 UNL     1      19.580   2.203  51.144  1.00  0.00     0.082 C 
ENDBRANCH  11  12
ENDBRANCH   3  11
BRANCH   1  19
HETATM   19  N1  UNL     1      24.534   2.058  51.513  1.00  0.00    -0.386 N 
HETATM   20  H8  UNL     1      25.370   1.776  50.912  1.00  0.00     0.159 HD
BRANCH  19  21
HETATM   21  C2  UNL     1      23.954   3.351  51.416  1.00  0.00     0.080 C 
HETATM   22  C1  UNL     1      23.737   4.065  52.697  1.00  0.00     0.032 C 
BRANCH  21  23
HETATM   23  C3  UNL     1      24.902   4.200  50.553  1.00  0.00     0.061 C 
BRANCH  23  24
HETATM   24  C4  UNL     1      25.982   3.343  49.948  1.00  0.00     0.392 C 
HETATM   25  O1  UNL     1      27.079   3.267  50.468  1.00  0.00    -0.430 OA
ENDBRANCH  23  24
ENDBRANCH  21  23
ENDBRANCH  19  21
ENDBRANCH   1  19
BRANCH  10  26
HETATM   26  N4  UNL     1      26.167  -0.308  53.001  1.00  0.00     0.091 N 
HETATM   27  H17 UNL     1      26.143  -0.363  51.955  1.00  0.00     0.313 HD
HETATM   28  H18 UNL     1      26.947   0.371  53.229  1.00  0.00     0.313 HD
ENDBRANCH  10  26
TORSDOF 7
ENDMDL
