MODEL 1
REMARK VINA RESULT:      -8.0      0.000      0.000
REMARK  4 active torsions:
REMARK  status: ('A' for Active; 'I' for Inactive)
REMARK    1  A    between atoms: O1_2  and  C2_3 
REMARK    2  A    between atoms: C8_12  and  N3_13 
REMARK    3  A    between atoms: N3_13  and  C9_14 
REMARK    4  A    between atoms: C17_25  and  O3_26 
ROOT
HETATM    1  C2  UNL     1      26.950  -0.163  54.164  1.00  0.00     0.081 A 
HETATM    2  C3  UNL     1      25.706  -0.615  54.127  1.00  0.00     0.046 A 
HETATM    3  C4  UNL     1      24.819   0.169  53.267  1.00  0.00    -0.005 A 
HETATM    4  C5  UNL     1      25.611   1.119  52.793  1.00  0.00     0.099 A 
HETATM    5  O2  UNL     1      25.200   2.127  51.910  1.00  0.00    -0.291 OA
HETATM    6  C6  UNL     1      23.964   2.782  51.890  1.00  0.00     0.201 A 
HETATM    7  N1  UNL     1      23.960   4.014  51.343  1.00  0.00    -0.215 NA
HETATM    8  C7  UNL     1      22.785   4.690  51.301  1.00  0.00     0.238 A 
HETATM    9  N2  UNL     1      21.607   4.198  51.779  1.00  0.00    -0.222 NA
HETATM   10  C8  UNL     1      21.599   2.955  52.334  1.00  0.00     0.160 A 
HETATM   11  C15 UNL     1      22.785   2.257  52.383  1.00  0.00     0.129 A 
HETATM   12  N4  UNL     1      22.545   1.012  52.993  1.00  0.00    -0.379 N 
HETATM   13  C16 UNL     1      23.387  -0.173  53.089  1.00  0.00     0.161 C 
HETATM   14  C17 UNL     1      27.013   1.033  53.284  1.00  0.00     0.235 A 
HETATM   15  H10 UNL     1      21.611   0.914  53.453  1.00  0.00     0.160 HD
ENDROOT
BRANCH  10  16
HETATM   16  N3  UNL     1      20.329   2.554  52.796  1.00  0.00    -0.339 N 
HETATM   17  H6  UNL     1      20.046   2.802  53.754  1.00  0.00     0.167 HD
BRANCH  16  18
HETATM   18  C9  UNL     1      19.463   1.807  51.922  1.00  0.00     0.035 A 
HETATM   19  C10 UNL     1      19.248   0.476  52.213  1.00  0.00     0.032 A 
HETATM   20  C11 UNL     1      18.422  -0.261  51.367  1.00  0.00     0.046 A 
HETATM   21  C12 UNL     1      17.852   0.370  50.271  1.00  0.00     0.138 A 
HETATM   22  F1  UNL     1      17.046  -0.342  49.438  1.00  0.00    -0.204 F 
HETATM   23  C13 UNL     1      18.073   1.701  49.985  1.00  0.00     0.074 A 
HETATM   24 CL1  UNL     1      17.338   2.492  48.578  1.00  0.00    -0.081 Cl
HETATM   25  C14 UNL     1      18.893   2.457  50.816  1.00  0.00     0.056 A 
ENDBRANCH  16  18
ENDBRANCH  10  16
BRANCH  14  26
HETATM   26  O3  UNL     1      27.376   2.180  53.988  1.00  0.00    -0.377 OA
HETATM   27  C18 UNL     1      28.600   2.603  53.501  1.00  0.00     0.203 C 
ENDBRANCH  14  26
BRANCH   1  28
HETATM   28  O1  UNL     1      28.143  -0.477  54.762  1.00  0.00    -0.357 OA
HETATM   29  C1  UNL     1      29.334  -0.803  54.083  1.00  0.00     0.209 C 
ENDBRANCH   1  28
TORSDOF 4
ENDMDL
MODEL 2
REMARK VINA RESULT:      -8.0      4.769      8.354
REMARK  4 active torsions:
REMARK  status: ('A' for Active; 'I' for Inactive)
REMARK    1  A    between atoms: O1_2  and  C2_3 
REMARK    2  A    between atoms: C8_12  and  N3_13 
REMARK    3  A    between atoms: N3_13  and  C9_14 
REMARK    4  A    between atoms: C17_25  and  O3_26 
ROOT
HETATM    1  C2  UNL     1      23.741   6.474  47.869  1.00  0.00     0.081 A 
HETATM    2  C3  UNL     1      24.891   6.214  48.471  1.00  0.00     0.046 A 
HETATM    3  C4  UNL     1      24.914   4.926  49.165  1.00  0.00    -0.005 A 
HETATM    4  C5  UNL     1      23.705   4.434  48.940  1.00  0.00     0.099 A 
HETATM    5  O2  UNL     1      23.252   3.196  49.416  1.00  0.00    -0.291 OA
HETATM    6  C6  UNL     1      23.554   2.600  50.645  1.00  0.00     0.201 A 
HETATM    7  N1  UNL     1      22.648   1.714  51.108  1.00  0.00    -0.215 NA
HETATM    8  C7  UNL     1      22.894   1.110  52.297  1.00  0.00     0.238 A 
HETATM    9  N2  UNL     1      24.004   1.346  53.053  1.00  0.00    -0.222 NA
HETATM   10  C8  UNL     1      24.925   2.238  52.597  1.00  0.00     0.160 A 
HETATM   11  C15 UNL     1      24.687   2.859  51.391  1.00  0.00     0.129 A 
HETATM   12  N4  UNL     1      25.756   3.732  51.121  1.00  0.00    -0.379 N 
HETATM   13  C16 UNL     1      26.110   4.447  49.901  1.00  0.00     0.161 C 
HETATM   14  C17 UNL     1      22.838   5.321  48.119  1.00  0.00     0.235 A 
HETATM   15  H10 UNL     1      26.409   3.899  51.921  1.00  0.00     0.160 HD
ENDROOT
BRANCH  10  16
HETATM   16  N3  UNL     1      26.025   2.404  53.463  1.00  0.00    -0.339 N 
HETATM   17  H6  UNL     1      26.050   3.222  54.087  1.00  0.00     0.167 HD
BRANCH  16  18
HETATM   18  C9  UNL     1      27.084   1.428  53.452  1.00  0.00     0.035 A 
HETATM   19  C10 UNL     1      28.353   1.855  53.783  1.00  0.00     0.032 A 
HETATM   20  C11 UNL     1      29.389   0.923  53.764  1.00  0.00     0.046 A 
HETATM   21  C12 UNL     1      29.105  -0.389  53.414  1.00  0.00     0.138 A 
HETATM   22  F1  UNL     1      30.110  -1.304  53.391  1.00  0.00    -0.204 F 
HETATM   23  C13 UNL     1      27.833  -0.807  53.083  1.00  0.00     0.074 A 
HETATM   24 CL1  UNL     1      27.486  -2.488  52.637  1.00  0.00    -0.081 Cl
HETATM   25  C14 UNL     1      26.783   0.104  53.096  1.00  0.00     0.056 A 
ENDBRANCH  16  18
ENDBRANCH  10  16
BRANCH  14  26
HETATM   26  O3  UNL     1      21.691   5.698  48.816  1.00  0.00    -0.377 OA
HETATM   27  C18 UNL     1      20.601   5.158  48.157  1.00  0.00     0.203 C 
ENDBRANCH  14  26
BRANCH   1  28
HETATM   28  O1  UNL     1      23.177   7.468  47.112  1.00  0.00    -0.357 OA
HETATM   29  C1  UNL     1      23.607   7.860  45.829  1.00  0.00     0.209 C 
ENDBRANCH   1  28
TORSDOF 4
ENDMDL
MODEL 3
REMARK VINA RESULT:      -8.0      2.895      3.735
REMARK  4 active torsions:
REMARK  status: ('A' for Active; 'I' for Inactive)
REMARK    1  A    between atoms: O1_2  and  C2_3 
REMARK    2  A    between atoms: C8_12  and  N3_13 
REMARK    3  A    between atoms: N3_13  and  C9_14 
REMARK    4  A    between atoms: C17_25  and  O3_26 
ROOT
HETATM    1  C2  UNL     1      25.766   0.010  54.814  1.00  0.00     0.081 A 
HETATM    2  C3  UNL     1      24.794  -0.730  55.326  1.00  0.00     0.046 A 
HETATM    3  C4  UNL     1      23.652  -0.905  54.428  1.00  0.00    -0.005 A 
HETATM    4  C5  UNL     1      24.003  -0.224  53.348  1.00  0.00     0.099 A 
HETATM    5  O2  UNL     1      23.212  -0.100  52.197  1.00  0.00    -0.291 OA
HETATM    6  C6  UNL     1      21.819   0.009  52.135  1.00  0.00     0.201 A 
HETATM    7  N1  UNL     1      21.325   0.621  51.040  1.00  0.00    -0.215 NA
HETATM    8  C7  UNL     1      19.979   0.751  50.934  1.00  0.00     0.238 A 
HETATM    9  N2  UNL     1      19.096   0.301  51.869  1.00  0.00    -0.222 NA
HETATM   10  C8  UNL     1      19.583  -0.318  52.979  1.00  0.00     0.160 A 
HETATM   11  C15 UNL     1      20.948  -0.457  53.100  1.00  0.00     0.129 A 
HETATM   12  N4  UNL     1      21.223  -1.116  54.312  1.00  0.00    -0.379 N 
HETATM   13  C16 UNL     1      22.461  -1.701  54.812  1.00  0.00     0.161 C 
HETATM   14  C17 UNL     1      25.340   0.421  53.451  1.00  0.00     0.235 A 
HETATM   15  H10 UNL     1      20.411  -1.205  54.965  1.00  0.00     0.160 HD
ENDROOT
BRANCH  10  16
HETATM   16  N3  UNL     1      18.579  -0.736  53.876  1.00  0.00    -0.339 N 
HETATM   17  H6  UNL     1      18.534  -0.306  54.810  1.00  0.00     0.167 HD
BRANCH  16  18
HETATM   18  C9  UNL     1      17.646  -1.753  53.467  1.00  0.00     0.035 A 
HETATM   19  C10 UNL     1      17.905  -3.053  53.847  1.00  0.00     0.032 A 
HETATM   20  C11 UNL     1      17.016  -4.049  53.446  1.00  0.00     0.046 A 
HETATM   21  C12 UNL     1      15.912  -3.694  52.684  1.00  0.00     0.138 A 
HETATM   22  F1  UNL     1      15.040  -4.659  52.287  1.00  0.00    -0.204 F 
HETATM   23  C13 UNL     1      15.661  -2.392  52.307  1.00  0.00     0.074 A 
HETATM   24 CL1  UNL     1      14.245  -1.956  51.331  1.00  0.00    -0.081 Cl
HETATM   25  C14 UNL     1      16.533  -1.382  52.696  1.00  0.00     0.056 A 
ENDBRANCH  16  18
ENDBRANCH  10  16
BRANCH  14  26
HETATM   26  O3  UNL     1      25.247   1.806  53.330  1.00  0.00    -0.377 OA
HETATM   27  C18 UNL     1      25.961   2.179  52.204  1.00  0.00     0.203 C 
ENDBRANCH  14  26
BRANCH   1  28
HETATM   28  O1  UNL     1      27.001   0.481  55.177  1.00  0.00    -0.357 OA
HETATM   29  C1  UNL     1      28.225   0.091  54.597  1.00  0.00     0.209 C 
ENDBRANCH   1  28
TORSDOF 4
ENDMDL
MODEL 4
REMARK VINA RESULT:      -7.8      5.175      6.818
REMARK  4 active torsions:
REMARK  status: ('A' for Active; 'I' for Inactive)
REMARK    1  A    between atoms: O1_2  and  C2_3 
REMARK    2  A    between atoms: C8_12  and  N3_13 
REMARK    3  A    between atoms: N3_13  and  C9_14 
REMARK    4  A    between atoms: C17_25  and  O3_26 
ROOT
HETATM    1  C2  UNL     1      29.581   7.069  47.642  1.00  0.00     0.081 A 
HETATM    2  C3  UNL     1      29.290   5.871  48.124  1.00  0.00     0.046 A 
HETATM    3  C4  UNL     1      27.874   5.694  48.447  1.00  0.00    -0.005 A 
HETATM    4  C5  UNL     1      27.337   6.862  48.128  1.00  0.00     0.099 A 
HETATM    5  O2  UNL     1      25.978   7.174  48.267  1.00  0.00    -0.291 OA
HETATM    6  C6  UNL     1      25.113   6.757  49.284  1.00  0.00     0.201 A 
HETATM    7  N1  UNL     1      24.049   7.552  49.515  1.00  0.00    -0.215 NA
HETATM    8  C7  UNL     1      23.181   7.190  50.492  1.00  0.00     0.238 A 
HETATM    9  N2  UNL     1      23.321   6.070  51.256  1.00  0.00    -0.222 NA
HETATM   10  C8  UNL     1      24.391   5.259  51.032  1.00  0.00     0.160 A 
HETATM   11  C15 UNL     1      25.281   5.615  50.043  1.00  0.00     0.129 A 
HETATM   12  N4  UNL     1      26.299   4.645  49.989  1.00  0.00    -0.379 N 
HETATM   13  C16 UNL     1      27.343   4.423  48.997  1.00  0.00     0.161 C 
HETATM   14  C17 UNL     1      28.316   7.848  47.597  1.00  0.00     0.235 A 
HETATM   15  H10 UNL     1      26.314   3.970  50.788  1.00  0.00     0.160 HD
ENDROOT
BRANCH  10  16
HETATM   16  N3  UNL     1      24.434   4.136  51.882  1.00  0.00    -0.339 N 
HETATM   17  H6  UNL     1      25.085   4.138  52.679  1.00  0.00     0.167 HD
BRANCH  16  18
HETATM   18  C9  UNL     1      23.569   3.016  51.615  1.00  0.00     0.035 A 
HETATM   19  C10 UNL     1      23.249   2.750  50.300  1.00  0.00     0.032 A 
HETATM   20  C11 UNL     1      22.403   1.677  50.029  1.00  0.00     0.046 A 
HETATM   21  C12 UNL     1      21.919   0.922  51.088  1.00  0.00     0.138 A 
HETATM   22  F1  UNL     1      21.091  -0.127  50.833  1.00  0.00    -0.204 F 
HETATM   23  C13 UNL     1      22.242   1.194  52.400  1.00  0.00     0.074 A 
HETATM   24 CL1  UNL     1      21.613   0.220  53.742  1.00  0.00    -0.081 Cl
HETATM   25  C14 UNL     1      23.086   2.260  52.695  1.00  0.00     0.056 A 
ENDBRANCH  16  18
ENDBRANCH  10  16
BRANCH  14  26
HETATM   26  O3  UNL     1      28.376   8.987  48.399  1.00  0.00    -0.377 OA
HETATM   27  C18 UNL     1      28.116  10.083  47.594  1.00  0.00     0.203 C 
ENDBRANCH  14  26
BRANCH   1  28
HETATM   28  O1  UNL     1      30.676   7.761  47.193  1.00  0.00    -0.357 OA
HETATM   29  C1  UNL     1      31.743   8.209  47.997  1.00  0.00     0.209 C 
ENDBRANCH   1  28
TORSDOF 4
ENDMDL
MODEL 5
REMARK VINA RESULT:      -7.8      5.245      7.744
REMARK  4 active torsions:
REMARK  status: ('A' for Active; 'I' for Inactive)
REMARK    1  A    between atoms: O1_2  and  C2_3 
REMARK    2  A    between atoms: C8_12  and  N3_13 
REMARK    3  A    between atoms: N3_13  and  C9_14 
REMARK    4  A    between atoms: C17_25  and  O3_26 
ROOT
HETATM    1  C2  UNL     1      27.886   6.851  48.482  1.00  0.00     0.081 A 
HETATM    2  C3  UNL     1      27.954   5.529  48.477  1.00  0.00     0.046 A 
HETATM    3  C4  UNL     1      26.739   4.874  48.962  1.00  0.00    -0.005 A 
HETATM    4  C5  UNL     1      25.940   5.888  49.257  1.00  0.00     0.099 A 
HETATM    5  O2  UNL     1      24.642   5.753  49.766  1.00  0.00    -0.291 OA
HETATM    6  C6  UNL     1      24.183   4.786  50.668  1.00  0.00     0.201 A 
HETATM    7  N1  UNL     1      23.105   5.130  51.401  1.00  0.00    -0.215 NA
HETATM    8  C7  UNL     1      22.623   4.227  52.290  1.00  0.00     0.238 A 
HETATM    9  N2  UNL     1      23.163   2.991  52.487  1.00  0.00    -0.222 NA
HETATM   10  C8  UNL     1      24.252   2.633  51.753  1.00  0.00     0.160 A 
HETATM   11  C15 UNL     1      24.752   3.541  50.847  1.00  0.00     0.129 A 
HETATM   12  N4  UNL     1      25.867   2.966  50.209  1.00  0.00    -0.379 N 
HETATM   13  C16 UNL     1      26.613   3.398  49.034  1.00  0.00     0.161 C 
HETATM   14  C17 UNL     1      26.544   7.224  49.000  1.00  0.00     0.235 A 
HETATM   15  H10 UNL     1      26.222   2.083  50.643  1.00  0.00     0.160 HD
ENDROOT
BRANCH  10  16
HETATM   16  N3  UNL     1      24.726   1.338  52.045  1.00  0.00    -0.339 N 
HETATM   17  H6  UNL     1      24.156   0.526  51.770  1.00  0.00     0.167 HD
BRANCH  16  18
HETATM   18  C9  UNL     1      25.988   1.183  52.719  1.00  0.00     0.035 A 
HETATM   19  C10 UNL     1      26.441   2.237  53.485  1.00  0.00     0.032 A 
HETATM   20  C11 UNL     1      27.668   2.105  54.132  1.00  0.00     0.046 A 
HETATM   21  C12 UNL     1      28.382   0.925  53.981  1.00  0.00     0.138 A 
HETATM   22  F1  UNL     1      29.581   0.788  54.607  1.00  0.00    -0.204 F 
HETATM   23  C13 UNL     1      27.923  -0.124  53.212  1.00  0.00     0.074 A 
HETATM   24 CL1  UNL     1      28.849  -1.625  53.027  1.00  0.00    -0.081 Cl
HETATM   25  C14 UNL     1      26.701  -0.015  52.557  1.00  0.00     0.056 A 
ENDBRANCH  16  18
ENDBRANCH  10  16
BRANCH  14  26
HETATM   26  O3  UNL     1      26.628   7.977  50.170  1.00  0.00    -0.377 OA
HETATM   27  C18 UNL     1      25.943   9.161  49.958  1.00  0.00     0.203 C 
ENDBRANCH  14  26
BRANCH   1  28
HETATM   28  O1  UNL     1      28.674   7.924  48.156  1.00  0.00    -0.357 OA
HETATM   29  C1  UNL     1      30.024   8.087  48.525  1.00  0.00     0.209 C 
ENDBRANCH   1  28
TORSDOF 4
ENDMDL
MODEL 6
REMARK VINA RESULT:      -7.7      4.506      8.199
REMARK  4 active torsions:
REMARK  status: ('A' for Active; 'I' for Inactive)
REMARK    1  A    between atoms: O1_2  and  C2_3 
REMARK    2  A    between atoms: C8_12  and  N3_13 
REMARK    3  A    between atoms: N3_13  and  C9_14 
REMARK    4  A    between atoms: C17_25  and  O3_26 
ROOT
HETATM    1  C2  UNL     1      19.573   3.797  50.256  1.00  0.00     0.081 A 
HETATM    2  C3  UNL     1      20.143   3.845  51.450  1.00  0.00     0.046 A 
HETATM    3  C4  UNL     1      21.588   4.071  51.404  1.00  0.00    -0.005 A 
HETATM    4  C5  UNL     1      21.845   4.155  50.107  1.00  0.00     0.099 A 
HETATM    5  O2  UNL     1      23.119   4.371  49.564  1.00  0.00    -0.291 OA
HETATM    6  C6  UNL     1      24.337   3.877  50.042  1.00  0.00     0.201 A 
HETATM    7  N1  UNL     1      25.324   3.761  49.129  1.00  0.00    -0.215 NA
HETATM    8  C7  UNL     1      26.524   3.286  49.544  1.00  0.00     0.238 A 
HETATM    9  N2  UNL     1      26.794   2.919  50.828  1.00  0.00    -0.222 NA
HETATM   10  C8  UNL     1      25.806   3.031  51.758  1.00  0.00     0.160 A 
HETATM   11  C15 UNL     1      24.582   3.512  51.351  1.00  0.00     0.129 A 
HETATM   12  N4  UNL     1      23.721   3.541  52.464  1.00  0.00    -0.379 N 
HETATM   13  C16 UNL     1      22.413   4.159  52.633  1.00  0.00     0.161 C 
HETATM   14  C17 UNL     1      20.643   3.997  49.245  1.00  0.00     0.235 A 
HETATM   15  H10 UNL     1      24.073   3.040  53.312  1.00  0.00     0.160 HD
ENDROOT
BRANCH  10  16
HETATM   16  N3  UNL     1      26.198   2.619  53.048  1.00  0.00    -0.339 N 
HETATM   17  H6  UNL     1      25.818   3.114  53.866  1.00  0.00     0.167 HD
BRANCH  16  18
HETATM   18  C9  UNL     1      27.119   1.522  53.189  1.00  0.00     0.035 A 
HETATM   19  C10 UNL     1      28.381   1.800  53.671  1.00  0.00     0.032 A 
HETATM   20  C11 UNL     1      29.286   0.748  53.800  1.00  0.00     0.046 A 
HETATM   21  C12 UNL     1      28.884  -0.530  53.439  1.00  0.00     0.138 A 
HETATM   22  F1  UNL     1      29.762  -1.562  53.560  1.00  0.00    -0.204 F 
HETATM   23  C13 UNL     1      27.621  -0.800  52.957  1.00  0.00     0.074 A 
HETATM   24 CL1  UNL     1      27.124  -2.439  52.499  1.00  0.00    -0.081 Cl
HETATM   25  C14 UNL     1      26.700   0.234  52.821  1.00  0.00     0.056 A 
ENDBRANCH  16  18
ENDBRANCH  10  16
BRANCH  14  26
HETATM   26  O3  UNL     1      20.768   2.899  48.394  1.00  0.00    -0.377 OA
HETATM   27  C18 UNL     1      20.787   3.374  47.095  1.00  0.00     0.203 C 
ENDBRANCH  14  26
BRANCH   1  28
HETATM   28  O1  UNL     1      18.324   3.622  49.717  1.00  0.00    -0.357 OA
HETATM   29  C1  UNL     1      17.353   2.716  50.187  1.00  0.00     0.209 C 
ENDBRANCH   1  28
TORSDOF 4
ENDMDL
MODEL 7
REMARK VINA RESULT:      -7.7      4.808      6.871
REMARK  4 active torsions:
REMARK  status: ('A' for Active; 'I' for Inactive)
REMARK    1  A    between atoms: O1_2  and  C2_3 
REMARK    2  A    between atoms: C8_12  and  N3_13 
REMARK    3  A    between atoms: N3_13  and  C9_14 
REMARK    4  A    between atoms: C17_25  and  O3_26 
ROOT
HETATM    1  C2  UNL     1      26.308  -0.339  52.803  1.00  0.00     0.081 A 
HETATM    2  C3  UNL     1      26.911   0.541  52.020  1.00  0.00     0.046 A 
HETATM    3  C4  UNL     1      26.250   1.845  51.980  1.00  0.00    -0.005 A 
HETATM    4  C5  UNL     1      25.214   1.689  52.790  1.00  0.00     0.099 A 
HETATM    5  O2  UNL     1      24.272   2.688  53.074  1.00  0.00    -0.291 OA
HETATM    6  C6  UNL     1      23.775   3.657  52.196  1.00  0.00     0.201 A 
HETATM    7  N1  UNL     1      22.557   4.153  52.495  1.00  0.00    -0.215 NA
HETATM    8  C7  UNL     1      22.032   5.095  51.673  1.00  0.00     0.238 A 
HETATM    9  N2  UNL     1      22.663   5.571  50.562  1.00  0.00    -0.222 NA
HETATM   10  C8  UNL     1      23.892   5.078  50.250  1.00  0.00     0.160 A 
HETATM   11  C15 UNL     1      24.437   4.120  51.076  1.00  0.00     0.129 A 
HETATM   12  N4  UNL     1      25.697   3.757  50.566  1.00  0.00    -0.379 N 
HETATM   13  C16 UNL     1      26.769   2.969  51.163  1.00  0.00     0.161 C 
HETATM   14  C17 UNL     1      25.121   0.332  53.393  1.00  0.00     0.235 A 
HETATM   15  H10 UNL     1      25.906   4.107  49.603  1.00  0.00     0.160 HD
ENDROOT
BRANCH  10  16
HETATM   16  N3  UNL     1      24.443   5.639  49.080  1.00  0.00    -0.339 N 
HETATM   17  H6  UNL     1      24.045   5.380  48.168  1.00  0.00     0.167 HD
BRANCH  16  18
HETATM   18  C9  UNL     1      25.548   6.556  49.191  1.00  0.00     0.035 A 
HETATM   19  C10 UNL     1      25.437   7.590  50.097  1.00  0.00     0.032 A 
HETATM   20  C11 UNL     1      26.494   8.491  50.205  1.00  0.00     0.046 A 
HETATM   21  C12 UNL     1      27.609   8.315  49.399  1.00  0.00     0.138 A 
HETATM   22  F1  UNL     1      28.645   9.191  49.496  1.00  0.00    -0.204 F 
HETATM   23  C13 UNL     1      27.712   7.280  48.494  1.00  0.00     0.074 A 
HETATM   24 CL1  UNL     1      29.145   7.069  47.470  1.00  0.00    -0.081 Cl
HETATM   25  C14 UNL     1      26.671   6.367  48.370  1.00  0.00     0.056 A 
ENDBRANCH  16  18
ENDBRANCH  10  16
BRANCH  14  26
HETATM   26  O3  UNL     1      23.932  -0.302  53.037  1.00  0.00    -0.377 OA
HETATM   27  C18 UNL     1      23.260  -0.622  54.204  1.00  0.00     0.203 C 
ENDBRANCH  14  26
BRANCH   1  28
HETATM   28  O1  UNL     1      26.467  -1.640  53.205  1.00  0.00    -0.357 OA
HETATM   29  C1  UNL     1      27.394  -2.553  52.663  1.00  0.00     0.209 C 
ENDBRANCH   1  28
TORSDOF 4
ENDMDL
MODEL 8
REMARK VINA RESULT:      -7.7      4.428      8.084
REMARK  4 active torsions:
REMARK  status: ('A' for Active; 'I' for Inactive)
REMARK    1  A    between atoms: O1_2  and  C2_3 
REMARK    2  A    between atoms: C8_12  and  N3_13 
REMARK    3  A    between atoms: N3_13  and  C9_14 
REMARK    4  A    between atoms: C17_25  and  O3_26 
ROOT
HETATM    1  C2  UNL     1      17.375   0.829  51.132  1.00  0.00     0.081 A 
HETATM    2  C3  UNL     1      18.443   0.058  51.272  1.00  0.00     0.046 A 
HETATM    3  C4  UNL     1      19.611   0.761  51.803  1.00  0.00    -0.005 A 
HETATM    4  C5  UNL     1      19.174   2.000  51.971  1.00  0.00     0.099 A 
HETATM    5  O2  UNL     1      19.953   3.054  52.468  1.00  0.00    -0.291 OA
HETATM    6  C6  UNL     1      21.313   3.285  52.236  1.00  0.00     0.201 A 
HETATM    7  N1  UNL     1      21.722   4.564  52.356  1.00  0.00    -0.215 NA
HETATM    8  C7  UNL     1      23.032   4.838  52.139  1.00  0.00     0.238 A 
HETATM    9  N2  UNL     1      23.961   3.898  51.807  1.00  0.00    -0.222 NA
HETATM   10  C8  UNL     1      23.560   2.603  51.683  1.00  0.00     0.160 A 
HETATM   11  C15 UNL     1      22.232   2.310  51.900  1.00  0.00     0.129 A 
HETATM   12  N4  UNL     1      22.045   0.927  51.717  1.00  0.00    -0.379 N 
HETATM   13  C16 UNL     1      20.906   0.076  52.036  1.00  0.00     0.161 C 
HETATM   14  C17 UNL     1      17.752   2.194  51.581  1.00  0.00     0.235 A 
HETATM   15  H10 UNL     1      22.851   0.422  51.283  1.00  0.00     0.160 HD
ENDROOT
BRANCH  10  16
HETATM   16  N3  UNL     1      24.603   1.722  51.333  1.00  0.00    -0.339 N 
HETATM   17  H6  UNL     1      24.687   1.412  50.356  1.00  0.00     0.167 HD
BRANCH  16  18
HETATM   18  C9  UNL     1      25.521   1.277  52.349  1.00  0.00     0.035 A 
HETATM   19  C10 UNL     1      25.188   0.146  53.066  1.00  0.00     0.032 A 
HETATM   20  C11 UNL     1      26.062  -0.287  54.060  1.00  0.00     0.046 A 
HETATM   21  C12 UNL     1      27.226   0.431  54.290  1.00  0.00     0.138 A 
HETATM   22  F1  UNL     1      28.084   0.016  55.260  1.00  0.00    -0.204 F 
HETATM   23  C13 UNL     1      27.552   1.561  53.570  1.00  0.00     0.074 A 
HETATM   24 CL1  UNL     1      29.044   2.470  53.876  1.00  0.00    -0.081 Cl
HETATM   25  C14 UNL     1      26.696   2.013  52.571  1.00  0.00     0.056 A 
ENDBRANCH  16  18
ENDBRANCH  10  16
BRANCH  14  26
HETATM   26  O3  UNL     1      17.630   3.132  50.556  1.00  0.00    -0.377 OA
HETATM   27  C18 UNL     1      16.909   4.205  51.051  1.00  0.00     0.203 C 
ENDBRANCH  14  26
BRANCH   1  28
HETATM   28  O1  UNL     1      16.076   0.722  50.707  1.00  0.00    -0.357 OA
HETATM   29  C1  UNL     1      15.568  -0.306  49.888  1.00  0.00     0.209 C 
ENDBRANCH   1  28
TORSDOF 4
ENDMDL
MODEL 9
REMARK VINA RESULT:      -7.6      3.713      4.705
REMARK  4 active torsions:
REMARK  status: ('A' for Active; 'I' for Inactive)
REMARK    1  A    between atoms: O1_2  and  C2_3 
REMARK    2  A    between atoms: C8_12  and  N3_13 
REMARK    3  A    between atoms: N3_13  and  C9_14 
REMARK    4  A    between atoms: C17_25  and  O3_26 
ROOT
HETATM    1  C2  UNL     1      25.567   0.100  54.072  1.00  0.00     0.081 A 
HETATM    2  C3  UNL     1      24.452   0.325  53.395  1.00  0.00     0.046 A 
HETATM    3  C4  UNL     1      24.659   1.054  52.144  1.00  0.00    -0.005 A 
HETATM    4  C5  UNL     1      25.969   1.250  52.115  1.00  0.00     0.099 A 
HETATM    5  O2  UNL     1      26.648   1.919  51.088  1.00  0.00    -0.291 OA
HETATM    6  C6  UNL     1      26.201   3.025  50.358  1.00  0.00     0.201 A 
HETATM    7  N1  UNL     1      27.163   3.802  49.818  1.00  0.00    -0.215 NA
HETATM    8  C7  UNL     1      26.779   4.888  49.101  1.00  0.00     0.238 A 
HETATM    9  N2  UNL     1      25.479   5.241  48.894  1.00  0.00    -0.222 NA
HETATM   10  C8  UNL     1      24.500   4.465  49.434  1.00  0.00     0.160 A 
HETATM   11  C15 UNL     1      24.875   3.359  50.164  1.00  0.00     0.129 A 
HETATM   12  N4  UNL     1      23.713   2.714  50.625  1.00  0.00    -0.379 N 
HETATM   13  C16 UNL     1      23.537   1.404  51.239  1.00  0.00     0.161 C 
HETATM   14  C17 UNL     1      26.686   0.691  53.293  1.00  0.00     0.235 A 
HETATM   15  H10 UNL     1      22.826   3.257  50.509  1.00  0.00     0.160 HD
ENDROOT
BRANCH  10  16
HETATM   16  N3  UNL     1      23.198   4.929  49.158  1.00  0.00    -0.339 N 
HETATM   17  H6  UNL     1      22.633   5.314  49.927  1.00  0.00     0.167 HD
BRANCH  16  18
HETATM   18  C9  UNL     1      22.692   4.852  47.812  1.00  0.00     0.035 A 
HETATM   19  C10 UNL     1      22.256   3.624  47.360  1.00  0.00     0.032 A 
HETATM   20  C11 UNL     1      21.775   3.533  46.055  1.00  0.00     0.046 A 
HETATM   21  C12 UNL     1      21.755   4.675  45.267  1.00  0.00     0.138 A 
HETATM   22  F1  UNL     1      21.290   4.595  43.992  1.00  0.00    -0.204 F 
HETATM   23  C13 UNL     1      22.194   5.898  45.726  1.00  0.00     0.074 A 
HETATM   24 CL1  UNL     1      22.163   7.348  44.705  1.00  0.00    -0.081 Cl
HETATM   25  C14 UNL     1      22.677   6.014  47.026  1.00  0.00     0.056 A 
ENDBRANCH  16  18
ENDBRANCH  10  16
BRANCH  14  26
HETATM   26  O3  UNL     1      27.348   1.690  54.006  1.00  0.00    -0.377 OA
HETATM   27  C18 UNL     1      28.708   1.472  53.871  1.00  0.00     0.203 C 
ENDBRANCH  14  26
BRANCH   1  28
HETATM   28  O1  UNL     1      25.959  -0.500  55.241  1.00  0.00    -0.357 OA
HETATM   29  C1  UNL     1      25.093  -0.959  56.252  1.00  0.00     0.209 C 
ENDBRANCH   1  28
TORSDOF 4
ENDMDL
