MODEL 1
REMARK VINA RESULT:     -10.0      0.000      0.000
REMARK  2 active torsions:
REMARK  status: ('A' for Active; 'I' for Inactive)
REMARK    1  A    between atoms: C2_2  and  N2_23 
REMARK    2  A    between atoms: N1_5  and  C10_12 
ROOT
HETATM    1  C1  UNL     1      22.308   1.723  49.688  1.00  0.00     0.077 C 
HETATM    2  C2  UNL     1      21.808   2.198  50.961  1.00  0.00     0.170 C 
HETATM    3  O1  UNL     1      22.323   3.546  51.113  1.00  0.00    -0.337 OA
HETATM    4  C3  UNL     1      21.506   4.497  51.916  1.00  0.00     0.303 C 
HETATM    5  N1  UNL     1      20.532   3.570  52.306  1.00  0.00    -0.322 N 
HETATM    6  C4  UNL     1      19.392   3.107  51.595  1.00  0.00     0.048 A 
HETATM    7  C5  UNL     1      18.046   3.122  51.405  1.00  0.00     0.030 A 
HETATM    8  C6  UNL     1      17.506   2.333  50.416  1.00  0.00     0.002 A 
HETATM    9  C7  UNL     1      18.314   1.540  49.630  1.00  0.00     0.001 A 
HETATM   10  C8  UNL     1      19.700   1.525  49.827  1.00  0.00     0.014 A 
HETATM   11  C9  UNL     1      20.343   2.325  50.843  1.00  0.00     0.024 A 
ENDROOT
BRANCH   2  12
HETATM   12  N2  UNL     1      22.252   1.388  52.125  1.00  0.00    -0.306 N 
HETATM   13  C20 UNL     1      21.896   0.377  52.953  1.00  0.00     0.049 A 
HETATM   14  C15 UNL     1      22.928  -0.087  53.736  1.00  0.00     0.004 A 
HETATM   15  C19 UNL     1      20.641  -0.162  53.010  1.00  0.00     0.031 A 
HETATM   16  C14 UNL     1      24.029   0.632  53.425  1.00  0.00     0.015 A 
HETATM   17  C16 UNL     1      22.845  -1.096  54.633  1.00  0.00     0.014 A 
HETATM   18  C13 UNL     1      25.391   0.749  53.571  1.00  0.00    -0.011 A 
HETATM   19  C21 UNL     1      23.605   1.522  52.477  1.00  0.00     0.076 A 
HETATM   20  C12 UNL     1      26.195   1.626  52.859  1.00  0.00     0.043 A 
HETATM   21  C22 UNL     1      26.252  -0.025  54.490  1.00  0.00     0.163 A 
HETATM   22  C11 UNL     1      25.804   2.543  51.892  1.00  0.00     0.050 A 
HETATM   23  C23 UNL     1      27.597   1.489  53.172  1.00  0.00     0.252 A 
HETATM   24  C10 UNL     1      24.461   2.448  51.751  1.00  0.00     0.066 A 
HETATM   25  N3  UNL     1      27.599   0.427  54.166  1.00  0.00    -0.353 N 
HETATM   26  O2  UNL     1      28.525   2.183  52.642  1.00  0.00    -0.268 OA
HETATM   27  H17 UNL     1      28.498   0.075  54.560  1.00  0.00     0.163 HD
HETATM   28  C17 UNL     1      21.571  -1.655  54.702  1.00  0.00     0.001 A 
HETATM   29  C18 UNL     1      20.506  -1.196  53.911  1.00  0.00     0.002 A 
ENDBRANCH   2  12
TORSDOF 2
ENDMDL
MODEL 2
REMARK VINA RESULT:      -9.7      2.518      5.610
REMARK  2 active torsions:
REMARK  status: ('A' for Active; 'I' for Inactive)
REMARK    1  A    between atoms: C2_2  and  N2_23 
REMARK    2  A    between atoms: N1_5  and  C10_12 
ROOT
HETATM    1  C1  UNL     1      21.673   4.575  51.793  1.00  0.00     0.077 C 
HETATM    2  C2  UNL     1      22.554   3.738  51.005  1.00  0.00     0.170 C 
HETATM    3  O1  UNL     1      21.776   3.313  49.856  1.00  0.00    -0.337 OA
HETATM    4  C3  UNL     1      22.524   3.032  48.598  1.00  0.00     0.303 C 
HETATM    5  N1  UNL     1      23.802   3.224  49.135  1.00  0.00    -0.322 N 
HETATM    6  C4  UNL     1      24.516   4.433  49.353  1.00  0.00     0.048 A 
HETATM    7  C5  UNL     1      25.500   5.295  48.981  1.00  0.00     0.030 A 
HETATM    8  C6  UNL     1      25.700   6.436  49.722  1.00  0.00     0.002 A 
HETATM    9  C7  UNL     1      24.917   6.703  50.824  1.00  0.00     0.001 A 
HETATM   10  C8  UNL     1      23.904   5.815  51.208  1.00  0.00     0.014 A 
HETATM   11  C9  UNL     1      23.632   4.597  50.482  1.00  0.00     0.024 A 
ENDROOT
BRANCH   2  12
HETATM   12  N2  UNL     1      23.039   2.528  51.721  1.00  0.00    -0.306 N 
HETATM   13  C20 UNL     1      24.097   1.998  52.377  1.00  0.00     0.049 A 
HETATM   14  C15 UNL     1      23.804   0.839  53.058  1.00  0.00     0.004 A 
HETATM   15  C19 UNL     1      25.347   2.554  52.393  1.00  0.00     0.031 A 
HETATM   16  C14 UNL     1      22.493   0.574  52.861  1.00  0.00     0.015 A 
HETATM   17  C16 UNL     1      24.674   0.120  53.803  1.00  0.00     0.014 A 
HETATM   18  C13 UNL     1      21.419  -0.197  53.237  1.00  0.00    -0.011 A 
HETATM   19  C21 UNL     1      22.055   1.580  52.045  1.00  0.00     0.076 A 
HETATM   20  C12 UNL     1      20.106   0.025  52.852  1.00  0.00     0.043 A 
HETATM   21  C22 UNL     1      21.447  -1.386  54.116  1.00  0.00     0.163 A 
HETATM   22  C11 UNL     1      19.622   1.032  52.025  1.00  0.00     0.050 A 
HETATM   23  C23 UNL     1      19.176  -0.903  53.448  1.00  0.00     0.252 A 
HETATM   24  C10 UNL     1      20.674   1.789  51.635  1.00  0.00     0.066 A 
HETATM   25  N3  UNL     1      20.043  -1.746  54.257  1.00  0.00    -0.353 N 
HETATM   26  O2  UNL     1      17.918  -0.893  53.245  1.00  0.00    -0.268 OA
HETATM   27  H17 UNL     1      19.638  -2.503  54.849  1.00  0.00     0.163 HD
HETATM   28  C17 UNL     1      25.952   0.674  53.828  1.00  0.00     0.001 A 
HETATM   29  C18 UNL     1      26.270   1.856  53.141  1.00  0.00     0.002 A 
ENDBRANCH   2  12
TORSDOF 2
ENDMDL
MODEL 3
REMARK VINA RESULT:      -9.6      2.045      2.569
REMARK  2 active torsions:
REMARK  status: ('A' for Active; 'I' for Inactive)
REMARK    1  A    between atoms: C2_2  and  N2_23 
REMARK    2  A    between atoms: N1_5  and  C10_12 
ROOT
HETATM    1  C1  UNL     1      25.274   2.863  49.397  1.00  0.00     0.077 C 
HETATM    2  C2  UNL     1      24.236   3.289  50.313  1.00  0.00     0.170 C 
HETATM    3  O1  UNL     1      24.720   4.513  50.922  1.00  0.00    -0.337 OA
HETATM    4  C3  UNL     1      23.696   5.503  51.359  1.00  0.00     0.303 C 
HETATM    5  N1  UNL     1      22.581   4.714  51.055  1.00  0.00    -0.322 N 
HETATM    6  C4  UNL     1      21.932   4.513  49.807  1.00  0.00     0.048 A 
HETATM    7  C5  UNL     1      20.882   4.765  48.980  1.00  0.00     0.030 A 
HETATM    8  C6  UNL     1      20.858   4.174  47.738  1.00  0.00     0.002 A 
HETATM    9  C7  UNL     1      21.879   3.340  47.337  1.00  0.00     0.001 A 
HETATM   10  C8  UNL     1      22.959   3.081  48.190  1.00  0.00     0.014 A 
HETATM   11  C9  UNL     1      23.058   3.663  49.508  1.00  0.00     0.024 A 
ENDROOT
BRANCH   2  12
HETATM   12  N2  UNL     1      23.942   2.309  51.392  1.00  0.00    -0.306 N 
HETATM   13  C20 UNL     1      23.032   1.409  51.833  1.00  0.00     0.049 A 
HETATM   14  C15 UNL     1      23.498   0.597  52.841  1.00  0.00     0.004 A 
HETATM   15  C19 UNL     1      21.767   1.287  51.328  1.00  0.00     0.031 A 
HETATM   16  C14 UNL     1      24.777   0.955  53.091  1.00  0.00     0.015 A 
HETATM   17  C16 UNL     1      22.798  -0.390  53.447  1.00  0.00     0.014 A 
HETATM   18  C13 UNL     1      25.943   0.630  53.744  1.00  0.00    -0.011 A 
HETATM   19  C21 UNL     1      25.022   1.990  52.232  1.00  0.00     0.076 A 
HETATM   20  C12 UNL     1      27.165   1.255  53.548  1.00  0.00     0.043 A 
HETATM   21  C22 UNL     1      26.124  -0.431  54.757  1.00  0.00     0.163 A 
HETATM   22  C11 UNL     1      27.453   2.308  52.688  1.00  0.00     0.050 A 
HETATM   23  C23 UNL     1      28.232   0.667  54.321  1.00  0.00     0.252 A 
HETATM   24  C10 UNL     1      26.308   2.646  52.051  1.00  0.00     0.066 A 
HETATM   25  N3  UNL     1      27.554  -0.403  55.037  1.00  0.00    -0.353 N 
HETATM   26  O2  UNL     1      29.441   1.068  54.303  1.00  0.00    -0.268 OA
HETATM   27  H17 UNL     1      28.090  -1.043  55.662  1.00  0.00     0.163 HD
HETATM   28  C17 UNL     1      21.507  -0.526  52.942  1.00  0.00     0.001 A 
HETATM   29  C18 UNL     1      21.014   0.293  51.913  1.00  0.00     0.002 A 
ENDBRANCH   2  12
TORSDOF 2
ENDMDL
MODEL 4
REMARK VINA RESULT:      -9.5      2.475      4.475
REMARK  2 active torsions:
REMARK  status: ('A' for Active; 'I' for Inactive)
REMARK    1  A    between atoms: C2_2  and  N2_23 
REMARK    2  A    between atoms: N1_5  and  C10_12 
ROOT
HETATM    1  C1  UNL     1      20.835   3.655  52.058  1.00  0.00     0.077 C 
HETATM    2  C2  UNL     1      21.341   2.985  50.878  1.00  0.00     0.170 C 
HETATM    3  O1  UNL     1      20.489   1.827  50.682  1.00  0.00    -0.337 OA
HETATM    4  C3  UNL     1      20.313   1.345  49.283  1.00  0.00     0.303 C 
HETATM    5  N1  UNL     1      21.211   2.245  48.698  1.00  0.00    -0.322 N 
HETATM    6  C4  UNL     1      21.009   3.598  48.313  1.00  0.00     0.048 A 
HETATM    7  C5  UNL     1      20.809   4.519  47.333  1.00  0.00     0.030 A 
HETATM    8  C6  UNL     1      20.680   5.843  47.682  1.00  0.00     0.002 A 
HETATM    9  C7  UNL     1      20.753   6.232  49.001  1.00  0.00     0.001 A 
HETATM   10  C8  UNL     1      20.959   5.283  50.011  1.00  0.00     0.014 A 
HETATM   11  C9  UNL     1      21.104   3.875  49.726  1.00  0.00     0.024 A 
ENDROOT
BRANCH   2  12
HETATM   12  N2  UNL     1      22.748   2.521  51.003  1.00  0.00    -0.306 N 
HETATM   13  C20 UNL     1      24.028   2.815  50.677  1.00  0.00     0.049 A 
HETATM   14  C15 UNL     1      24.959   2.053  51.345  1.00  0.00     0.004 A 
HETATM   15  C19 UNL     1      24.389   3.787  49.785  1.00  0.00     0.031 A 
HETATM   16  C14 UNL     1      24.285   1.212  52.160  1.00  0.00     0.015 A 
HETATM   17  C16 UNL     1      26.302   2.155  51.214  1.00  0.00     0.014 A 
HETATM   18  C13 UNL     1      24.380   0.307  53.191  1.00  0.00    -0.011 A 
HETATM   19  C21 UNL     1      22.966   1.489  51.930  1.00  0.00     0.076 A 
HETATM   20  C12 UNL     1      23.303  -0.224  53.884  1.00  0.00     0.043 A 
HETATM   21  C22 UNL     1      25.620  -0.261  53.760  1.00  0.00     0.163 A 
HETATM   22  C11 UNL     1      21.952   0.031  53.681  1.00  0.00     0.050 A 
HETATM   23  C23 UNL     1      23.699  -1.101  54.959  1.00  0.00     0.252 A 
HETATM   24  C10 UNL     1      21.846   0.909  52.656  1.00  0.00     0.066 A 
HETATM   25  N3  UNL     1      25.151  -1.073  54.875  1.00  0.00    -0.353 N 
HETATM   26  O2  UNL     1      22.886  -1.702  55.736  1.00  0.00    -0.268 OA
HETATM   27  H17 UNL     1      25.729  -1.596  55.567  1.00  0.00     0.163 HD
HETATM   28  C17 UNL     1      26.684   3.141  50.308  1.00  0.00     0.001 A 
HETATM   29  C18 UNL     1      25.750   3.929  49.618  1.00  0.00     0.002 A 
ENDBRANCH   2  12
TORSDOF 2
ENDMDL
MODEL 5
REMARK VINA RESULT:      -9.4      2.856      6.348
REMARK  2 active torsions:
REMARK  status: ('A' for Active; 'I' for Inactive)
REMARK    1  A    between atoms: C2_2  and  N2_23 
REMARK    2  A    between atoms: N1_5  and  C10_12 
ROOT
HETATM    1  C1  UNL     1      19.941   3.420  51.847  1.00  0.00     0.077 C 
HETATM    2  C2  UNL     1      20.734   2.369  51.243  1.00  0.00     0.170 C 
HETATM    3  O1  UNL     1      20.159   2.142  49.931  1.00  0.00    -0.337 OA
HETATM    4  C3  UNL     1      21.077   1.655  48.863  1.00  0.00     0.303 C 
HETATM    5  N1  UNL     1      22.203   1.517  49.683  1.00  0.00    -0.322 N 
HETATM    6  C4  UNL     1      23.134   2.502  50.110  1.00  0.00     0.048 A 
HETATM    7  C5  UNL     1      24.365   3.072  50.007  1.00  0.00     0.030 A 
HETATM    8  C6  UNL     1      24.675   4.135  50.824  1.00  0.00     0.002 A 
HETATM    9  C7  UNL     1      23.756   4.615  51.731  1.00  0.00     0.001 A 
HETATM   10  C8  UNL     1      22.489   4.027  51.836  1.00  0.00     0.014 A 
HETATM   11  C9  UNL     1      22.087   2.909  51.015  1.00  0.00     0.024 A 
ENDROOT
BRANCH   2  12
HETATM   12  N2  UNL     1      20.714   1.088  51.996  1.00  0.00    -0.306 N 
HETATM   13  C20 UNL     1      21.391   0.342  52.901  1.00  0.00     0.049 A 
HETATM   14  C15 UNL     1      20.668  -0.719  53.396  1.00  0.00     0.004 A 
HETATM   15  C19 UNL     1      22.667   0.608  53.315  1.00  0.00     0.031 A 
HETATM   16  C14 UNL     1      19.451  -0.689  52.810  1.00  0.00     0.015 A 
HETATM   17  C16 UNL     1      21.103  -1.608  54.320  1.00  0.00     0.014 A 
HETATM   18  C13 UNL     1      18.175  -1.202  52.810  1.00  0.00    -0.011 A 
HETATM   19  C21 UNL     1      19.500   0.382  51.962  1.00  0.00     0.076 A 
HETATM   20  C12 UNL     1      17.115  -0.697  52.071  1.00  0.00     0.043 A 
HETATM   21  C22 UNL     1      17.686  -2.361  53.586  1.00  0.00     0.163 A 
HETATM   22  C11 UNL     1      17.126   0.386  51.200  1.00  0.00     0.050 A 
HETATM   23  C23 UNL     1      15.875  -1.393  52.313  1.00  0.00     0.252 A 
HETATM   24  C10 UNL     1      18.382   0.888  51.180  1.00  0.00     0.066 A 
HETATM   25  N3  UNL     1      16.260  -2.401  53.289  1.00  0.00    -0.353 N 
HETATM   26  O2  UNL     1      14.767  -1.107  51.752  1.00  0.00    -0.268 OA
HETATM   27  H17 UNL     1      15.546  -3.046  53.691  1.00  0.00     0.163 HD
HETATM   28  C17 UNL     1      22.402  -1.349  54.750  1.00  0.00     0.001 A 
HETATM   29  C18 UNL     1      23.155  -0.271  54.257  1.00  0.00     0.002 A 
ENDBRANCH   2  12
TORSDOF 2
ENDMDL
MODEL 6
REMARK VINA RESULT:      -9.3      2.421      4.433
REMARK  2 active torsions:
REMARK  status: ('A' for Active; 'I' for Inactive)
REMARK    1  A    between atoms: C2_2  and  N2_23 
REMARK    2  A    between atoms: N1_5  and  C10_12 
ROOT
HETATM    1  C1  UNL     1      21.321   3.561  52.315  1.00  0.00     0.077 C 
HETATM    2  C2  UNL     1      21.670   3.076  50.996  1.00  0.00     0.170 C 
HETATM    3  O1  UNL     1      21.065   1.762  50.883  1.00  0.00    -0.337 OA
HETATM    4  C3  UNL     1      20.676   1.311  49.517  1.00  0.00     0.303 C 
HETATM    5  N1  UNL     1      21.198   2.417  48.837  1.00  0.00    -0.322 N 
HETATM    6  C4  UNL     1      20.626   3.702  48.633  1.00  0.00     0.048 A 
HETATM    7  C5  UNL     1      20.010   4.592  47.810  1.00  0.00     0.030 A 
HETATM    8  C6  UNL     1      19.684   5.835  48.300  1.00  0.00     0.002 A 
HETATM    9  C7  UNL     1      19.977   6.175  49.603  1.00  0.00     0.001 A 
HETATM   10  C8  UNL     1      20.611   5.258  50.450  1.00  0.00     0.014 A 
HETATM   11  C9  UNL     1      20.985   3.934  50.011  1.00  0.00     0.024 A 
ENDROOT
BRANCH   2  12
HETATM   12  N2  UNL     1      23.133   2.944  50.768  1.00  0.00    -0.306 N 
HETATM   13  C20 UNL     1      24.208   3.538  50.199  1.00  0.00     0.049 A 
HETATM   14  C15 UNL     1      25.411   2.985  50.575  1.00  0.00     0.004 A 
HETATM   15  C19 UNL     1      24.133   4.602  49.343  1.00  0.00     0.031 A 
HETATM   16  C14 UNL     1      25.142   1.979  51.437  1.00  0.00     0.015 A 
HETATM   17  C16 UNL     1      26.632   3.399  50.165  1.00  0.00     0.014 A 
HETATM   18  C13 UNL     1      25.667   1.080  52.335  1.00  0.00    -0.011 A 
HETATM   19  C21 UNL     1      23.778   1.954  51.527  1.00  0.00     0.076 A 
HETATM   20  C12 UNL     1      24.921   0.288  53.195  1.00  0.00     0.043 A 
HETATM   21  C22 UNL     1      27.098   0.792  52.566  1.00  0.00     0.163 A 
HETATM   22  C11 UNL     1      23.538   0.232  53.315  1.00  0.00     0.050 A 
HETATM   23  C23 UNL     1      25.736  -0.516  54.073  1.00  0.00     0.252 A 
HETATM   24  C10 UNL     1      23.010   1.103  52.423  1.00  0.00     0.066 A 
HETATM   25  N3  UNL     1      27.088  -0.151  53.677  1.00  0.00    -0.353 N 
HETATM   26  O2  UNL     1      25.276  -1.319  54.949  1.00  0.00    -0.268 OA
HETATM   27  H17 UNL     1      27.910  -0.554  54.175  1.00  0.00     0.163 HD
HETATM   28  C17 UNL     1      26.571   4.482  49.292  1.00  0.00     0.001 A 
HETATM   29  C18 UNL     1      25.354   5.061  48.897  1.00  0.00     0.002 A 
ENDBRANCH   2  12
TORSDOF 2
ENDMDL
MODEL 7
REMARK VINA RESULT:      -8.3      9.463     12.927
REMARK  2 active torsions:
REMARK  status: ('A' for Active; 'I' for Inactive)
REMARK    1  A    between atoms: C2_2  and  N2_23 
REMARK    2  A    between atoms: N1_5  and  C10_12 
ROOT
HETATM    1  C1  UNL     1      33.660   7.637  48.556  1.00  0.00     0.077 C 
HETATM    2  C2  UNL     1      32.849   7.276  47.411  1.00  0.00     0.170 C 
HETATM    3  O1  UNL     1      33.271   8.151  46.333  1.00  0.00    -0.337 OA
HETATM    4  C3  UNL     1      33.140   7.627  44.944  1.00  0.00     0.303 C 
HETATM    5  N1  UNL     1      32.513   6.426  45.294  1.00  0.00    -0.322 N 
HETATM    6  C4  UNL     1      33.086   5.211  45.755  1.00  0.00     0.048 A 
HETATM    7  C5  UNL     1      33.460   3.926  45.512  1.00  0.00     0.030 A 
HETATM    8  C6  UNL     1      34.033   3.197  46.528  1.00  0.00     0.002 A 
HETATM    9  C7  UNL     1      34.224   3.756  47.772  1.00  0.00     0.001 A 
HETATM   10  C8  UNL     1      33.838   5.079  48.023  1.00  0.00     0.014 A 
HETATM   11  C9  UNL     1      33.231   5.909  47.009  1.00  0.00     0.024 A 
ENDROOT
BRANCH   2  12
HETATM   12  N2  UNL     1      31.389   7.457  47.623  1.00  0.00    -0.306 N 
HETATM   13  C20 UNL     1      30.234   6.803  47.888  1.00  0.00     0.049 A 
HETATM   14  C15 UNL     1      29.189   7.636  48.219  1.00  0.00     0.004 A 
HETATM   15  C19 UNL     1      30.098   5.443  47.856  1.00  0.00     0.031 A 
HETATM   16  C14 UNL     1      29.654   8.904  48.182  1.00  0.00     0.015 A 
HETATM   17  C16 UNL     1      27.936   7.239  48.542  1.00  0.00     0.014 A 
HETATM   18  C13 UNL     1      29.394  10.220  48.484  1.00  0.00    -0.011 A 
HETATM   19  C21 UNL     1      30.962   8.783  47.805  1.00  0.00     0.076 A 
HETATM   20  C12 UNL     1      30.323  11.248  48.421  1.00  0.00     0.043 A 
HETATM   21  C22 UNL     1      28.106  10.788  48.934  1.00  0.00     0.163 A 
HETATM   22  C11 UNL     1      31.657  11.166  48.043  1.00  0.00     0.050 A 
HETATM   23  C23 UNL     1      29.791  12.517  48.855  1.00  0.00     0.252 A 
HETATM   24  C10 UNL     1      31.920   9.877  47.728  1.00  0.00     0.066 A 
HETATM   25  N3  UNL     1      28.417  12.186  49.201  1.00  0.00    -0.353 N 
HETATM   26  O2  UNL     1      30.456  13.604  48.889  1.00  0.00    -0.268 OA
HETATM   27  H17 UNL     1      27.782  12.914  49.592  1.00  0.00     0.163 HD
HETATM   28  C17 UNL     1      27.783   5.855  48.513  1.00  0.00     0.001 A 
HETATM   29  C18 UNL     1      28.837   4.990  48.179  1.00  0.00     0.002 A 
ENDBRANCH   2  12
TORSDOF 2
ENDMDL
MODEL 8
REMARK VINA RESULT:      -7.9     11.028     13.970
REMARK  2 active torsions:
REMARK  status: ('A' for Active; 'I' for Inactive)
REMARK    1  A    between atoms: C2_2  and  N2_23 
REMARK    2  A    between atoms: N1_5  and  C10_12 
ROOT
HETATM    1  C1  UNL     1      30.707   5.926  48.290  1.00  0.00     0.077 C 
HETATM    2  C2  UNL     1      32.057   6.150  47.817  1.00  0.00     0.170 C 
HETATM    3  O1  UNL     1      32.817   6.584  48.973  1.00  0.00    -0.337 OA
HETATM    4  C3  UNL     1      34.272   6.262  48.987  1.00  0.00     0.303 C 
HETATM    5  N1  UNL     1      34.317   5.703  47.705  1.00  0.00    -0.322 N 
HETATM    6  C4  UNL     1      33.976   4.390  47.282  1.00  0.00     0.048 A 
HETATM    7  C5  UNL     1      34.366   3.150  46.882  1.00  0.00     0.030 A 
HETATM    8  C6  UNL     1      33.404   2.216  46.576  1.00  0.00     0.002 A 
HETATM    9  C7  UNL     1      32.066   2.530  46.671  1.00  0.00     0.001 A 
HETATM   10  C8  UNL     1      31.664   3.807  47.083  1.00  0.00     0.014 A 
HETATM   11  C9  UNL     1      32.613   4.842  47.421  1.00  0.00     0.024 A 
ENDROOT
BRANCH   2  12
HETATM   12  N2  UNL     1      32.162   7.193  46.762  1.00  0.00    -0.306 N 
HETATM   13  C20 UNL     1      32.286   7.391  45.429  1.00  0.00     0.049 A 
HETATM   14  C15 UNL     1      32.072   8.693  45.039  1.00  0.00     0.004 A 
HETATM   15  C19 UNL     1      32.579   6.402  44.531  1.00  0.00     0.031 A 
HETATM   16  C14 UNL     1      31.785   9.406  46.150  1.00  0.00     0.015 A 
HETATM   17  C16 UNL     1      32.120   9.154  43.768  1.00  0.00     0.014 A 
HETATM   18  C13 UNL     1      31.333  10.607  46.646  1.00  0.00    -0.011 A 
HETATM   19  C21 UNL     1      31.862   8.503  47.173  1.00  0.00     0.076 A 
HETATM   20  C12 UNL     1      31.004  10.846  47.972  1.00  0.00     0.043 A 
HETATM   21  C22 UNL     1      31.105  11.851  45.882  1.00  0.00     0.163 A 
HETATM   22  C11 UNL     1      31.070   9.956  49.038  1.00  0.00     0.050 A 
HETATM   23  C23 UNL     1      30.497  12.177  48.198  1.00  0.00     0.252 A 
HETATM   24  C10 UNL     1      31.530   8.775  48.563  1.00  0.00     0.066 A 
HETATM   25  N3  UNL     1      30.541  12.765  46.868  1.00  0.00    -0.353 N 
HETATM   26  O2  UNL     1      30.127  12.625  49.332  1.00  0.00    -0.268 OA
HETATM   27  H17 UNL     1      30.191  13.734  46.707  1.00  0.00     0.163 HD
HETATM   28  C17 UNL     1      32.417   8.157  42.842  1.00  0.00     0.001 A 
HETATM   29  C18 UNL     1      32.639   6.823  43.220  1.00  0.00     0.002 A 
ENDBRANCH   2  12
TORSDOF 2
ENDMDL
MODEL 9
REMARK VINA RESULT:      -7.8     11.689     14.885
REMARK  2 active torsions:
REMARK  status: ('A' for Active; 'I' for Inactive)
REMARK    1  A    between atoms: C2_2  and  N2_23 
REMARK    2  A    between atoms: N1_5  and  C10_12 
ROOT
HETATM    1  C1  UNL     1      35.001   8.541  44.080  1.00  0.00     0.077 C 
HETATM    2  C2  UNL     1      34.116   7.446  43.740  1.00  0.00     0.170 C 
HETATM    3  O1  UNL     1      32.876   8.059  43.302  1.00  0.00    -0.337 OA
HETATM    4  C3  UNL     1      32.061   7.304  42.309  1.00  0.00     0.303 C 
HETATM    5  N1  UNL     1      32.869   6.161  42.287  1.00  0.00    -0.322 N 
HETATM    6  C4  UNL     1      34.070   5.920  41.565  1.00  0.00     0.048 A 
HETATM    7  C5  UNL     1      34.710   5.323  40.525  1.00  0.00     0.030 A 
HETATM    8  C6  UNL     1      36.063   5.520  40.376  1.00  0.00     0.002 A 
HETATM    9  C7  UNL     1      36.760   6.308  41.266  1.00  0.00     0.001 A 
HETATM   10  C8  UNL     1      36.100   6.922  42.337  1.00  0.00     0.014 A 
HETATM   11  C9  UNL     1      34.682   6.765  42.561  1.00  0.00     0.024 A 
ENDROOT
BRANCH   2  12
HETATM   12  N2  UNL     1      33.817   6.536  44.877  1.00  0.00    -0.306 N 
HETATM   13  C20 UNL     1      34.139   5.347  45.439  1.00  0.00     0.049 A 
HETATM   14  C15 UNL     1      33.634   5.179  46.708  1.00  0.00     0.004 A 
HETATM   15  C19 UNL     1      34.908   4.394  44.831  1.00  0.00     0.031 A 
HETATM   16  C14 UNL     1      32.947   6.300  47.023  1.00  0.00     0.015 A 
HETATM   17  C16 UNL     1      33.820   4.093  47.494  1.00  0.00     0.014 A 
HETATM   18  C13 UNL     1      32.314   7.004  48.020  1.00  0.00    -0.011 A 
HETATM   19  C21 UNL     1      33.048   7.092  45.913  1.00  0.00     0.076 A 
HETATM   20  C12 UNL     1      31.864   8.311  47.908  1.00  0.00     0.043 A 
HETATM   21  C22 UNL     1      32.002   6.524  49.383  1.00  0.00     0.163 A 
HETATM   22  C11 UNL     1      31.947   9.146  46.800  1.00  0.00     0.050 A 
HETATM   23  C23 UNL     1      31.295   8.820  49.131  1.00  0.00     0.252 A 
HETATM   24  C10 UNL     1      32.554   8.456  45.806  1.00  0.00     0.066 A 
HETATM   25  N3  UNL     1      31.429   7.692  50.039  1.00  0.00    -0.353 N 
HETATM   26  O2  UNL     1      30.820   9.995  49.271  1.00  0.00    -0.268 OA
HETATM   27  H17 UNL     1      31.131   7.777  51.035  1.00  0.00     0.163 HD
HETATM   28  C17 UNL     1      34.602   3.114  46.887  1.00  0.00     0.001 A 
HETATM   29  C18 UNL     1      35.127   3.267  45.594  1.00  0.00     0.002 A 
ENDBRANCH   2  12
TORSDOF 2
ENDMDL
