MODEL 1
REMARK VINA RESULT:      -8.1      0.000      0.000
REMARK  2 active torsions:
REMARK  status: ('A' for Active; 'I' for Inactive)
REMARK    1  A    between atoms: C13_13  and  N1_14 
REMARK    2  A    between atoms: N4_19  and  O1_20 
ROOT
HETATM    1  C1  UNL     1      22.956   2.711  50.377  1.00  0.00     0.016 C 
HETATM    2  C2  UNL     1      23.788   2.327  51.656  1.00  0.00    -0.034 C 
HETATM    3  C3  UNL     1      23.328   0.918  51.884  1.00  0.00     0.010 C 
HETATM    4  C4  UNL     1      23.230   0.417  53.283  1.00  0.00     0.005 C 
HETATM    5  C5  UNL     1      24.486  -0.481  53.481  1.00  0.00     0.038 C 
HETATM    6  C6  UNL     1      25.592   0.326  52.831  1.00  0.00    -0.061 C 
HETATM    7  C7  UNL     1      26.487   0.521  51.874  1.00  0.00    -0.011 C 
HETATM    8  C8  UNL     1      26.356   2.027  51.824  1.00  0.00     0.040 C 
HETATM    9  C9  UNL     1      26.588   2.365  53.245  1.00  0.00    -0.017 C 
HETATM   10  C10 UNL     1      25.659   1.519  53.728  1.00  0.00     0.003 C 
HETATM   11  C11 UNL     1      25.162   2.485  51.138  1.00  0.00     0.046 C 
HETATM   12  C12 UNL     1      25.406   3.839  50.553  1.00  0.00     0.041 A 
HETATM   13  C13 UNL     1      26.353   3.769  49.519  1.00  0.00     0.133 A 
HETATM   14  N2  UNL     1      26.770   4.854  48.838  1.00  0.00    -0.224 NA
HETATM   15  C14 UNL     1      26.268   6.068  49.148  1.00  0.00     0.237 A 
HETATM   16  N3  UNL     1      25.352   6.217  50.129  1.00  0.00    -0.222 NA
HETATM   17  C15 UNL     1      24.927   5.123  50.820  1.00  0.00     0.161 A 
HETATM   18  N4  UNL     1      23.930   5.438  51.792  1.00  0.00    -0.242 N 
HETATM   19  C16 UNL     1      22.772   4.618  52.070  1.00  0.00     0.158 C 
HETATM   20  C17 UNL     1      23.265   3.282  52.655  1.00  0.00     0.032 C 
ENDROOT
BRANCH  13  21
HETATM   21  N1  UNL     1      26.963   2.574  49.050  1.00  0.00    -0.383 N 
HETATM   22  H15 UNL     1      27.925   2.209  48.999  1.00  0.00     0.157 HD
HETATM   23  H16 UNL     1      26.410   1.786  48.624  1.00  0.00     0.157 HD
ENDBRANCH  13  21
BRANCH  18  24
HETATM   24  O1  UNL     1      24.199   6.626  52.430  1.00  0.00    -0.286 OA
HETATM   25  H18 UNL     1      25.089   6.593  52.865  1.00  0.00     0.244 HD
ENDBRANCH  18  24
TORSDOF 2
ENDMDL
MODEL 2
REMARK VINA RESULT:      -8.0      2.912      4.733
REMARK  2 active torsions:
REMARK  status: ('A' for Active; 'I' for Inactive)
REMARK    1  A    between atoms: C13_13  and  N1_14 
REMARK    2  A    between atoms: N4_19  and  O1_20 
ROOT
HETATM    1  C1  UNL     1      24.282   3.219  53.398  1.00  0.00     0.016 C 
HETATM    2  C2  UNL     1      25.348   2.159  52.933  1.00  0.00    -0.034 C 
HETATM    3  C3  UNL     1      26.466   2.437  53.893  1.00  0.00     0.010 C 
HETATM    4  C4  UNL     1      27.868   2.260  53.425  1.00  0.00     0.005 C 
HETATM    5  C5  UNL     1      28.333   0.907  54.039  1.00  0.00     0.038 C 
HETATM    6  C6  UNL     1      27.134   0.003  53.828  1.00  0.00    -0.061 C 
HETATM    7  C7  UNL     1      26.110  -0.703  54.283  1.00  0.00    -0.011 C 
HETATM    8  C8  UNL     1      25.181  -0.420  53.124  1.00  0.00     0.040 C 
HETATM    9  C9  UNL     1      26.029  -0.844  51.989  1.00  0.00    -0.017 C 
HETATM   10  C10 UNL     1      27.089  -0.091  52.338  1.00  0.00     0.003 C 
HETATM   11  C11 UNL     1      24.595   0.908  53.158  1.00  0.00     0.046 C 
HETATM   12  C12 UNL     1      23.275   0.893  52.457  1.00  0.00     0.041 A 
HETATM   13  C13 UNL     1      22.343   0.123  53.169  1.00  0.00     0.133 A 
HETATM   14  N2  UNL     1      21.081  -0.072  52.742  1.00  0.00    -0.224 NA
HETATM   15  C14 UNL     1      20.675   0.489  51.583  1.00  0.00     0.237 A 
HETATM   16  N3  UNL     1      21.513   1.246  50.842  1.00  0.00    -0.222 NA
HETATM   17  C15 UNL     1      22.790   1.446  51.269  1.00  0.00     0.161 A 
HETATM   18  N4  UNL     1      23.535   2.300  50.401  1.00  0.00    -0.242 N 
HETATM   19  C16 UNL     1      24.464   3.313  50.850  1.00  0.00     0.158 C 
HETATM   20  C17 UNL     1      25.635   2.605  51.554  1.00  0.00     0.032 C 
ENDROOT
BRANCH  13  21
HETATM   21  N1  UNL     1      22.594  -0.517  54.413  1.00  0.00    -0.383 N 
HETATM   22  H15 UNL     1      22.179  -0.483  55.355  1.00  0.00     0.157 HD
HETATM   23  H16 UNL     1      23.365  -1.222  54.542  1.00  0.00     0.157 HD
ENDBRANCH  13  21
BRANCH  18  24
HETATM   24  O1  UNL     1      23.255   2.048  49.078  1.00  0.00    -0.286 OA
HETATM   25  H18 UNL     1      24.022   2.305  48.506  1.00  0.00     0.244 HD
ENDBRANCH  18  24
TORSDOF 2
ENDMDL
MODEL 3
REMARK VINA RESULT:      -7.7      1.778      3.735
REMARK  2 active torsions:
REMARK  status: ('A' for Active; 'I' for Inactive)
REMARK    1  A    between atoms: C13_13  and  N1_14 
REMARK    2  A    between atoms: N4_19  and  O1_20 
ROOT
HETATM    1  C1  UNL     1      25.276   2.564  53.574  1.00  0.00     0.016 C 
HETATM    2  C2  UNL     1      24.281   1.714  52.700  1.00  0.00    -0.034 C 
HETATM    3  C3  UNL     1      23.736   0.767  53.727  1.00  0.00     0.010 C 
HETATM    4  C4  UNL     1      23.378  -0.615  53.304  1.00  0.00     0.005 C 
HETATM    5  C5  UNL     1      21.826  -0.617  53.192  1.00  0.00     0.038 C 
HETATM    6  C6  UNL     1      21.529   0.700  52.502  1.00  0.00    -0.061 C 
HETATM    7  C7  UNL     1      21.040   1.931  52.496  1.00  0.00    -0.011 C 
HETATM    8  C8  UNL     1      22.088   2.526  51.584  1.00  0.00     0.040 C 
HETATM    9  C9  UNL     1      21.998   1.603  50.431  1.00  0.00    -0.017 C 
HETATM   10  C10 UNL     1      22.147   0.480  51.160  1.00  0.00     0.003 C 
HETATM   11  C11 UNL     1      23.359   2.773  52.239  1.00  0.00     0.046 C 
HETATM   12  C12 UNL     1      24.068   3.898  51.557  1.00  0.00     0.041 A 
HETATM   13  C13 UNL     1      23.379   5.106  51.748  1.00  0.00     0.133 A 
HETATM   14  N2  UNL     1      23.793   6.273  51.218  1.00  0.00    -0.224 NA
HETATM   15  C14 UNL     1      24.916   6.303  50.468  1.00  0.00     0.237 A 
HETATM   16  N3  UNL     1      25.635   5.182  50.241  1.00  0.00    -0.222 NA
HETATM   17  C15 UNL     1      25.220   4.001  50.775  1.00  0.00     0.161 A 
HETATM   18  N4  UNL     1      26.107   2.921  50.481  1.00  0.00    -0.242 N 
HETATM   19  C16 UNL     1      26.467   1.880  51.418  1.00  0.00     0.158 C 
HETATM   20  C17 UNL     1      25.199   1.070  51.738  1.00  0.00     0.032 C 
ENDROOT
BRANCH  13  21
HETATM   21  N1  UNL     1      22.198   5.259  52.524  1.00  0.00    -0.383 N 
HETATM   22  H15 UNL     1      21.671   4.673  53.187  1.00  0.00     0.157 HD
HETATM   23  H16 UNL     1      21.622   6.141  52.511  1.00  0.00     0.157 HD
ENDBRANCH  13  21
BRANCH  18  24
HETATM   24  O1  UNL     1      26.587   2.995  49.194  1.00  0.00    -0.286 OA
HETATM   25  H18 UNL     1      26.244   2.240  48.652  1.00  0.00     0.244 HD
ENDBRANCH  18  24
TORSDOF 2
ENDMDL
MODEL 4
REMARK VINA RESULT:      -7.3      1.675      2.342
REMARK  2 active torsions:
REMARK  status: ('A' for Active; 'I' for Inactive)
REMARK    1  A    between atoms: C13_13  and  N1_14 
REMARK    2  A    between atoms: N4_19  and  O1_20 
ROOT
HETATM    1  C1  UNL     1      22.739   2.795  48.170  1.00  0.00     0.016 C 
HETATM    2  C2  UNL     1      22.586   2.698  49.733  1.00  0.00    -0.034 C 
HETATM    3  C3  UNL     1      22.105   1.286  49.886  1.00  0.00     0.010 C 
HETATM    4  C4  UNL     1      21.156   0.971  50.989  1.00  0.00     0.005 C 
HETATM    5  C5  UNL     1      22.020   0.277  52.082  1.00  0.00     0.038 C 
HETATM    6  C6  UNL     1      23.277   1.123  52.117  1.00  0.00    -0.061 C 
HETATM    7  C7  UNL     1      24.572   1.300  51.900  1.00  0.00    -0.011 C 
HETATM    8  C8  UNL     1      24.480   2.755  51.500  1.00  0.00     0.040 C 
HETATM    9  C9  UNL     1      23.761   3.311  52.668  1.00  0.00    -0.017 C 
HETATM   10  C10 UNL     1      22.747   2.425  52.622  1.00  0.00     0.003 C 
HETATM   11  C11 UNL     1      23.978   2.960  50.154  1.00  0.00     0.046 C 
HETATM   12  C12 UNL     1      24.516   4.241  49.605  1.00  0.00     0.041 A 
HETATM   13  C13 UNL     1      25.903   4.154  49.411  1.00  0.00     0.133 A 
HETATM   14  N2  UNL     1      26.640   5.181  48.944  1.00  0.00    -0.224 NA
HETATM   15  C14 UNL     1      26.037   6.351  48.646  1.00  0.00     0.237 A 
HETATM   16  N3  UNL     1      24.705   6.513  48.804  1.00  0.00    -0.222 NA
HETATM   17  C15 UNL     1      23.957   5.478  49.274  1.00  0.00     0.161 A 
HETATM   18  N4  UNL     1      22.566   5.791  49.345  1.00  0.00    -0.242 N 
HETATM   19  C16 UNL     1      21.502   4.874  48.997  1.00  0.00     0.158 C 
HETATM   20  C17 UNL     1      21.537   3.705  49.996  1.00  0.00     0.032 C 
ENDROOT
BRANCH  13  21
HETATM   21  N1  UNL     1      26.690   2.994  49.650  1.00  0.00    -0.383 N 
HETATM   22  H15 UNL     1      26.508   2.038  49.986  1.00  0.00     0.157 HD
HETATM   23  H16 UNL     1      27.730   2.972  49.485  1.00  0.00     0.157 HD
ENDBRANCH  13  21
BRANCH  18  24
HETATM   24  O1  UNL     1      22.356   7.079  49.778  1.00  0.00    -0.286 OA
HETATM   25  H18 UNL     1      23.196   7.602  49.731  1.00  0.00     0.244 HD
ENDBRANCH  18  24
TORSDOF 2
ENDMDL
MODEL 5
REMARK VINA RESULT:      -7.1      2.486      5.134
REMARK  2 active torsions:
REMARK  status: ('A' for Active; 'I' for Inactive)
REMARK    1  A    between atoms: C13_13  and  N1_14 
REMARK    2  A    between atoms: N4_19  and  O1_20 
ROOT
HETATM    1  C1  UNL     1      24.147   2.463  49.026  1.00  0.00     0.016 C 
HETATM    2  C2  UNL     1      23.877   3.717  49.938  1.00  0.00    -0.034 C 
HETATM    3  C3  UNL     1      22.879   4.466  49.107  1.00  0.00     0.010 C 
HETATM    4  C4  UNL     1      22.890   5.954  49.148  1.00  0.00     0.005 C 
HETATM    5  C5  UNL     1      21.691   6.344  50.059  1.00  0.00     0.038 C 
HETATM    6  C6  UNL     1      21.793   5.356  51.205  1.00  0.00    -0.061 C 
HETATM    7  C7  UNL     1      21.346   4.317  51.894  1.00  0.00    -0.011 C 
HETATM    8  C8  UNL     1      22.704   3.752  52.248  1.00  0.00     0.040 C 
HETATM    9  C9  UNL     1      23.335   4.937  52.868  1.00  0.00    -0.017 C 
HETATM   10  C10 UNL     1      23.082   5.767  51.839  1.00  0.00     0.003 C 
HETATM   11  C11 UNL     1      23.349   3.056  51.150  1.00  0.00     0.046 C 
HETATM   12  C12 UNL     1      24.274   2.014  51.689  1.00  0.00     0.041 A 
HETATM   13  C13 UNL     1      23.553   0.992  52.324  1.00  0.00     0.133 A 
HETATM   14  N2  UNL     1      24.148  -0.062  52.917  1.00  0.00    -0.224 NA
HETATM   15  C14 UNL     1      25.495  -0.156  52.909  1.00  0.00     0.237 A 
HETATM   16  N3  UNL     1      26.259   0.787  52.316  1.00  0.00    -0.222 NA
HETATM   17  C15 UNL     1      25.661   1.852  51.717  1.00  0.00     0.161 A 
HETATM   18  N4  UNL     1      26.599   2.736  51.100  1.00  0.00    -0.242 N 
HETATM   19  C16 UNL     1      26.394   3.386  49.825  1.00  0.00     0.158 C 
HETATM   20  C17 UNL     1      25.209   4.357  49.971  1.00  0.00     0.032 C 
ENDROOT
BRANCH  13  21
HETATM   21  N1  UNL     1      22.135   0.921  52.405  1.00  0.00    -0.383 N 
HETATM   22  H15 UNL     1      21.407   1.369  52.979  1.00  0.00     0.157 HD
HETATM   23  H16 UNL     1      21.564   0.294  51.781  1.00  0.00     0.157 HD
ENDBRANCH  13  21
BRANCH  18  24
HETATM   24  O1  UNL     1      27.732   2.889  51.865  1.00  0.00    -0.286 OA
HETATM   25  H18 UNL     1      27.887   2.083  52.420  1.00  0.00     0.244 HD
ENDBRANCH  18  24
TORSDOF 2
ENDMDL
MODEL 6
REMARK VINA RESULT:      -7.1      1.967      3.975
REMARK  2 active torsions:
REMARK  status: ('A' for Active; 'I' for Inactive)
REMARK    1  A    between atoms: C13_13  and  N1_14 
REMARK    2  A    between atoms: N4_19  and  O1_20 
ROOT
HETATM    1  C1  UNL     1      24.212   3.197  53.166  1.00  0.00     0.016 C 
HETATM    2  C2  UNL     1      23.420   2.417  52.052  1.00  0.00    -0.034 C 
HETATM    3  C3  UNL     1      22.559   1.518  52.889  1.00  0.00     0.010 C 
HETATM    4  C4  UNL     1      22.224   0.164  52.370  1.00  0.00     0.005 C 
HETATM    5  C5  UNL     1      20.759   0.276  51.858  1.00  0.00     0.038 C 
HETATM    6  C6  UNL     1      20.748   1.608  51.132  1.00  0.00    -0.061 C 
HETATM    7  C7  UNL     1      20.368   2.871  51.016  1.00  0.00    -0.011 C 
HETATM    8  C8  UNL     1      21.658   3.381  50.415  1.00  0.00     0.040 C 
HETATM    9  C9  UNL     1      21.805   2.460  49.267  1.00  0.00    -0.017 C 
HETATM   10  C10 UNL     1      21.677   1.334  49.994  1.00  0.00     0.003 C 
HETATM   11  C11 UNL     1      22.730   3.538  51.382  1.00  0.00     0.046 C 
HETATM   12  C12 UNL     1      23.671   4.604  50.922  1.00  0.00     0.041 A 
HETATM   13  C13 UNL     1      23.046   5.860  50.943  1.00  0.00     0.133 A 
HETATM   14  N2  UNL     1      23.668   6.990  50.555  1.00  0.00    -0.224 NA
HETATM   15  C14 UNL     1      24.946   6.933  50.123  1.00  0.00     0.237 A 
HETATM   16  N3  UNL     1      25.616   5.761  50.076  1.00  0.00    -0.222 NA
HETATM   17  C15 UNL     1      24.992   4.617  50.468  1.00  0.00     0.161 A 
HETATM   18  N4  UNL     1      25.843   3.473  50.400  1.00  0.00    -0.242 N 
HETATM   19  C16 UNL     1      25.871   2.413  51.385  1.00  0.00     0.158 C 
HETATM   20  C17 UNL     1      24.507   1.701  51.354  1.00  0.00     0.032 C 
ENDROOT
BRANCH  13  21
HETATM   21  N1  UNL     1      21.718   6.105  51.388  1.00  0.00    -0.383 N 
HETATM   22  H15 UNL     1      21.272   6.321  52.290  1.00  0.00     0.157 HD
HETATM   23  H16 UNL     1      20.891   6.090  50.736  1.00  0.00     0.157 HD
ENDBRANCH  13  21
BRANCH  18  24
HETATM   24  O1  UNL     1      26.646   3.502  49.284  1.00  0.00    -0.286 OA
HETATM   25  H18 UNL     1      26.107   3.684  48.473  1.00  0.00     0.244 HD
ENDBRANCH  18  24
TORSDOF 2
ENDMDL
MODEL 7
REMARK VINA RESULT:      -7.1      3.343      5.121
REMARK  2 active torsions:
REMARK  status: ('A' for Active; 'I' for Inactive)
REMARK    1  A    between atoms: C13_13  and  N1_14 
REMARK    2  A    between atoms: N4_19  and  O1_20 
ROOT
HETATM    1  C1  UNL     1      23.363  -1.550  52.587  1.00  0.00     0.016 C 
HETATM    2  C2  UNL     1      24.076  -0.244  53.098  1.00  0.00    -0.034 C 
HETATM    3  C3  UNL     1      25.516  -0.600  52.879  1.00  0.00     0.010 C 
HETATM    4  C4  UNL     1      26.535  -0.073  53.828  1.00  0.00     0.005 C 
HETATM    5  C5  UNL     1      27.219   1.105  53.077  1.00  0.00     0.038 C 
HETATM    6  C6  UNL     1      26.053   1.826  52.430  1.00  0.00    -0.061 C 
HETATM    7  C7  UNL     1      25.355   2.199  51.368  1.00  0.00    -0.011 C 
HETATM    8  C8  UNL     1      23.994   2.111  52.021  1.00  0.00     0.040 C 
HETATM    9  C9  UNL     1      24.207   2.972  53.205  1.00  0.00    -0.017 C 
HETATM   10  C10 UNL     1      25.315   2.332  53.626  1.00  0.00     0.003 C 
HETATM   11  C11 UNL     1      23.505   0.753  52.170  1.00  0.00     0.046 C 
HETATM   12  C12 UNL     1      22.010   0.754  52.171  1.00  0.00     0.041 A 
HETATM   13  C13 UNL     1      21.513   1.128  50.914  1.00  0.00     0.133 A 
HETATM   14  N2  UNL     1      20.196   1.230  50.651  1.00  0.00    -0.224 NA
HETATM   15  C14 UNL     1      19.300   0.965  51.626  1.00  0.00     0.237 A 
HETATM   16  N3  UNL     1      19.701   0.596  52.862  1.00  0.00    -0.222 NA
HETATM   17  C15 UNL     1      21.030   0.491  53.131  1.00  0.00     0.161 A 
HETATM   18  N4  UNL     1      21.290   0.052  54.465  1.00  0.00    -0.242 N 
HETATM   19  C16 UNL     1      22.331  -0.884  54.830  1.00  0.00     0.158 C 
HETATM   20  C17 UNL     1      23.689  -0.227  54.524  1.00  0.00     0.032 C 
ENDROOT
BRANCH  13  21
HETATM   21  N1  UNL     1      22.311   1.419  49.773  1.00  0.00    -0.383 N 
HETATM   22  H15 UNL     1      22.322   1.122  48.787  1.00  0.00     0.157 HD
HETATM   23  H16 UNL     1      23.125   2.086  49.807  1.00  0.00     0.157 HD
ENDBRANCH  13  21
BRANCH  18  24
HETATM   24  O1  UNL     1      20.421   0.621  55.366  1.00  0.00    -0.286 OA
HETATM   25  H18 UNL     1      19.484   0.498  55.070  1.00  0.00     0.244 HD
ENDBRANCH  18  24
TORSDOF 2
ENDMDL
MODEL 8
REMARK VINA RESULT:      -7.0      2.640      5.048
REMARK  2 active torsions:
REMARK  status: ('A' for Active; 'I' for Inactive)
REMARK    1  A    between atoms: C13_13  and  N1_14 
REMARK    2  A    between atoms: N4_19  and  O1_20 
ROOT
HETATM    1  C1  UNL     1      23.378   4.922  53.087  1.00  0.00     0.016 C 
HETATM    2  C2  UNL     1      23.291   4.836  51.518  1.00  0.00    -0.034 C 
HETATM    3  C3  UNL     1      23.589   6.256  51.137  1.00  0.00     0.010 C 
HETATM    4  C4  UNL     1      22.926   6.825  49.931  1.00  0.00     0.005 C 
HETATM    5  C5  UNL     1      24.020   6.815  48.824  1.00  0.00     0.038 C 
HETATM    6  C6  UNL     1      24.678   5.461  49.003  1.00  0.00    -0.061 C 
HETATM    7  C7  UNL     1      25.707   4.698  49.341  1.00  0.00    -0.011 C 
HETATM    8  C8  UNL     1      24.893   3.566  49.926  1.00  0.00     0.040 C 
HETATM    9  C9  UNL     1      23.990   3.269  48.793  1.00  0.00    -0.017 C 
HETATM   10  C10 UNL     1      23.562   4.536  48.639  1.00  0.00     0.003 C 
HETATM   11  C11 UNL     1      24.360   3.853  51.245  1.00  0.00     0.046 C 
HETATM   12  C12 UNL     1      24.178   2.578  52.003  1.00  0.00     0.041 A 
HETATM   13  C13 UNL     1      25.420   1.991  52.290  1.00  0.00     0.133 A 
HETATM   14  N2  UNL     1      25.539   0.821  52.947  1.00  0.00    -0.224 NA
HETATM   15  C14 UNL     1      24.428   0.170  53.355  1.00  0.00     0.237 A 
HETATM   16  N3  UNL     1      23.197   0.672  53.118  1.00  0.00    -0.222 NA
HETATM   17  C15 UNL     1      23.073   1.854  52.455  1.00  0.00     0.161 A 
HETATM   18  N4  UNL     1      21.713   2.270  52.320  1.00  0.00    -0.242 N 
HETATM   19  C16 UNL     1      21.259   3.637  52.457  1.00  0.00     0.158 C 
HETATM   20  C17 UNL     1      21.877   4.460  51.313  1.00  0.00     0.032 C 
ENDROOT
BRANCH  13  21
HETATM   21  N1  UNL     1      26.684   2.549  51.957  1.00  0.00    -0.383 N 
HETATM   22  H15 UNL     1      27.062   3.100  51.173  1.00  0.00     0.157 HD
HETATM   23  H16 UNL     1      27.529   2.448  52.578  1.00  0.00     0.157 HD
ENDBRANCH  13  21
BRANCH  18  24
HETATM   24  O1  UNL     1      20.881   1.209  52.051  1.00  0.00    -0.286 OA
HETATM   25  H18 UNL     1      20.144   1.489  51.451  1.00  0.00     0.244 HD
ENDBRANCH  18  24
TORSDOF 2
ENDMDL
MODEL 9
REMARK VINA RESULT:      -6.9      8.539     11.104
REMARK  2 active torsions:
REMARK  status: ('A' for Active; 'I' for Inactive)
REMARK    1  A    between atoms: C13_13  and  N1_14 
REMARK    2  A    between atoms: N4_19  and  O1_20 
ROOT
HETATM    1  C1  UNL     1      34.388   7.654  48.565  1.00  0.00     0.016 C 
HETATM    2  C2  UNL     1      33.375   8.302  47.550  1.00  0.00    -0.034 C 
HETATM    3  C3  UNL     1      34.070   9.593  47.238  1.00  0.00     0.010 C 
HETATM    4  C4  UNL     1      33.242  10.800  46.961  1.00  0.00     0.005 C 
HETATM    5  C5  UNL     1      33.280  10.972  45.415  1.00  0.00     0.038 C 
HETATM    6  C6  UNL     1      33.103   9.555  44.905  1.00  0.00    -0.061 C 
HETATM    7  C7  UNL     1      33.556   8.466  44.304  1.00  0.00    -0.011 C 
HETATM    8  C8  UNL     1      32.804   7.474  45.162  1.00  0.00     0.040 C 
HETATM    9  C9  UNL     1      31.422   7.979  45.010  1.00  0.00    -0.017 C 
HETATM   10  C10 UNL     1      31.714   9.246  45.360  1.00  0.00     0.003 C 
HETATM   11  C11 UNL     1      33.383   7.284  46.479  1.00  0.00     0.046 C 
HETATM   12  C12 UNL     1      33.056   5.915  46.980  1.00  0.00     0.041 A 
HETATM   13  C13 UNL     1      33.704   4.936  46.211  1.00  0.00     0.133 A 
HETATM   14  N2  UNL     1      33.561   3.616  46.438  1.00  0.00    -0.224 NA
HETATM   15  C14 UNL     1      32.764   3.197  47.445  1.00  0.00     0.237 A 
HETATM   16  N3  UNL     1      32.109   4.078  48.232  1.00  0.00    -0.222 NA
HETATM   17  C15 UNL     1      32.251   5.412  48.005  1.00  0.00     0.161 A 
HETATM   18  N4  UNL     1      31.531   6.211  48.944  1.00  0.00    -0.242 N 
HETATM   19  C16 UNL     1      32.026   7.440  49.523  1.00  0.00     0.158 C 
HETATM   20  C17 UNL     1      32.172   8.473  48.391  1.00  0.00     0.032 C 
ENDROOT
BRANCH  13  21
HETATM   21  N1  UNL     1      34.593   5.201  45.133  1.00  0.00    -0.383 N 
HETATM   22  H15 UNL     1      35.613   5.180  44.998  1.00  0.00     0.157 HD
HETATM   23  H16 UNL     1      34.255   5.502  44.182  1.00  0.00     0.157 HD
ENDBRANCH  13  21
BRANCH  18  24
HETATM   24  O1  UNL     1      30.305   5.663  49.242  1.00  0.00    -0.286 OA
HETATM   25  H18 UNL     1      29.852   5.356  48.417  1.00  0.00     0.244 HD
ENDBRANCH  18  24
TORSDOF 2
ENDMDL
