MODEL 1
REMARK VINA RESULT:      -7.6      0.000      0.000
REMARK  8 active torsions:
REMARK  status: ('A' for Active; 'I' for Inactive)
REMARK    1  A    between atoms: C4_6  and  N3_7 
REMARK    2  A    between atoms: N3_7  and  C5_8 
REMARK    3  A    between atoms: C11_15  and  C12_16 
REMARK    4  A    between atoms: C13_17  and  C14_18 
REMARK    5  A    between atoms: C14_18  and  C15_19 
REMARK    6  A    between atoms: C15_19  and  N4_20 
REMARK    7  A    between atoms: C16_21  and  C17_22 
REMARK    8  A    between atoms: C17_22  and  O1_23 
ROOT
HETATM    1  C1  UNL     1      20.586  -0.066  53.736  1.00  0.00     0.072 C 
HETATM    2  C2  UNL     1      21.946  -0.429  54.156  1.00  0.00     0.054 A 
HETATM    3  N1  UNL     1      22.166  -1.161  55.286  1.00  0.00    -0.245 NA
HETATM    4  C3  UNL     1      23.429  -1.485  55.656  1.00  0.00     0.235 A 
HETATM    5  N2  UNL     1      24.495  -1.111  54.946  1.00  0.00    -0.223 NA
HETATM    6  C4  UNL     1      24.376  -0.396  53.829  1.00  0.00     0.150 A 
HETATM    7  C11 UNL     1      23.080  -0.078  53.474  1.00  0.00     0.087 A 
ENDROOT
BRANCH   6   8
HETATM    8  N3  UNL     1      25.426   0.058  52.992  1.00  0.00    -0.340 N 
HETATM    9  H5  UNL     1      25.171   0.565  52.111  1.00  0.00     0.167 HD
BRANCH   8  10
HETATM   10  C5  UNL     1      26.815  -0.097  53.217  1.00  0.00     0.035 A 
HETATM   11  C6  UNL     1      27.565  -1.227  52.984  1.00  0.00     0.029 A 
HETATM   12  C7  UNL     1      28.917  -1.333  53.218  1.00  0.00     0.004 A 
HETATM   13  C8  UNL     1      29.601  -0.257  53.718  1.00  0.00     0.024 A 
HETATM   14  C9  UNL     1      28.904   0.891  53.966  1.00  0.00     0.036 A 
HETATM   15 CL1  UNL     1      29.769   2.271  54.604  1.00  0.00    -0.084 Cl
HETATM   16  C10 UNL     1      27.568   0.955  53.722  1.00  0.00     0.053 A 
ENDBRANCH   8  10
ENDBRANCH   6   8
BRANCH   7  17
HETATM   17  C12 UNL     1      22.816   0.702  52.272  1.00  0.00    -0.061 C 
HETATM   18  C13 UNL     1      22.597   1.338  51.251  1.00  0.00    -0.099 C 
BRANCH  18  19
HETATM   19  C14 UNL     1      22.311   2.095  50.032  1.00  0.00     0.116 C 
BRANCH  19  20
HETATM   20  C15 UNL     1      23.601   2.748  49.568  1.00  0.00     0.160 C 
BRANCH  20  21
HETATM   21  N4  UNL     1      23.822   3.883  50.386  1.00  0.00    -0.303 NA
HETATM   22  C16 UNL     1      25.014   4.261  50.616  1.00  0.00     0.109 C 
BRANCH  22  23
HETATM   23  C17 UNL     1      26.187   3.548  50.051  1.00  0.00     0.210 C 
BRANCH  23  24
HETATM   24  O1  UNL     1      27.101   3.264  51.059  1.00  0.00    -0.396 OA
HETATM   25  H17 UNL     1      26.554   3.005  51.859  1.00  0.00     0.209 HD
ENDBRANCH  23  24
ENDBRANCH  22  23
ENDBRANCH  20  21
ENDBRANCH  19  20
ENDBRANCH  18  19
ENDBRANCH   7  17
TORSDOF 8
ENDMDL
MODEL 2
REMARK VINA RESULT:      -7.4      3.216      4.953
REMARK  8 active torsions:
REMARK  status: ('A' for Active; 'I' for Inactive)
REMARK    1  A    between atoms: C4_6  and  N3_7 
REMARK    2  A    between atoms: N3_7  and  C5_8 
REMARK    3  A    between atoms: C11_15  and  C12_16 
REMARK    4  A    between atoms: C13_17  and  C14_18 
REMARK    5  A    between atoms: C14_18  and  C15_19 
REMARK    6  A    between atoms: C15_19  and  N4_20 
REMARK    7  A    between atoms: C16_21  and  C17_22 
REMARK    8  A    between atoms: C17_22  and  O1_23 
ROOT
HETATM    1  C1  UNL     1      23.263   4.426  48.892  1.00  0.00     0.072 C 
HETATM    2  C2  UNL     1      23.596   3.620  50.074  1.00  0.00     0.054 A 
HETATM    3  N1  UNL     1      22.635   2.936  50.758  1.00  0.00    -0.245 NA
HETATM    4  C3  UNL     1      22.964   2.199  51.847  1.00  0.00     0.235 A 
HETATM    5  N2  UNL     1      24.219   2.108  52.291  1.00  0.00    -0.223 NA
HETATM    6  C4  UNL     1      25.222   2.741  51.686  1.00  0.00     0.150 A 
HETATM    7  C11 UNL     1      24.862   3.486  50.580  1.00  0.00     0.087 A 
ENDROOT
BRANCH   6   8
HETATM    8  N3  UNL     1      26.589   2.723  52.060  1.00  0.00    -0.340 N 
HETATM    9  H5  UNL     1      27.150   3.598  51.921  1.00  0.00     0.167 HD
BRANCH   8  10
HETATM   10  C5  UNL     1      27.302   1.632  52.613  1.00  0.00     0.035 A 
HETATM   11  C6  UNL     1      28.390   1.701  53.453  1.00  0.00     0.029 A 
HETATM   12  C7  UNL     1      29.053   0.610  53.968  1.00  0.00     0.004 A 
HETATM   13  C8  UNL     1      28.629  -0.651  53.644  1.00  0.00     0.024 A 
HETATM   14  C9  UNL     1      27.552  -0.775  52.813  1.00  0.00     0.036 A 
HETATM   15 CL1  UNL     1      27.003  -2.382  52.394  1.00  0.00    -0.084 Cl
HETATM   16  C10 UNL     1      26.924   0.327  52.325  1.00  0.00     0.053 A 
ENDBRANCH   8  10
ENDBRANCH   6   8
BRANCH   7  17
HETATM   17  C12 UNL     1      25.868   4.225  49.831  1.00  0.00    -0.061 C 
HETATM   18  C13 UNL     1      26.718   4.828  49.190  1.00  0.00    -0.099 C 
BRANCH  18  19
HETATM   19  C14 UNL     1      27.717   5.556  48.408  1.00  0.00     0.116 C 
BRANCH  19  20
HETATM   20  C15 UNL     1      27.232   6.984  48.234  1.00  0.00     0.160 C 
BRANCH  20  21
HETATM   21  N4  UNL     1      28.359   7.833  48.347  1.00  0.00    -0.303 NA
HETATM   22  C16 UNL     1      28.348   8.771  49.205  1.00  0.00     0.109 C 
BRANCH  22  23
HETATM   23  C17 UNL     1      27.184   9.006  50.097  1.00  0.00     0.210 C 
BRANCH  23  24
HETATM   24  O1  UNL     1      27.583   9.720  51.220  1.00  0.00    -0.396 OA
HETATM   25  H17 UNL     1      27.218  10.646  51.100  1.00  0.00     0.209 HD
ENDBRANCH  23  24
ENDBRANCH  22  23
ENDBRANCH  20  21
ENDBRANCH  19  20
ENDBRANCH  18  19
ENDBRANCH   7  17
TORSDOF 8
ENDMDL
MODEL 3
REMARK VINA RESULT:      -7.4      2.850      5.327
REMARK  8 active torsions:
REMARK  status: ('A' for Active; 'I' for Inactive)
REMARK    1  A    between atoms: C4_6  and  N3_7 
REMARK    2  A    between atoms: N3_7  and  C5_8 
REMARK    3  A    between atoms: C11_15  and  C12_16 
REMARK    4  A    between atoms: C13_17  and  C14_18 
REMARK    5  A    between atoms: C14_18  and  C15_19 
REMARK    6  A    between atoms: C15_19  and  N4_20 
REMARK    7  A    between atoms: C16_21  and  C17_22 
REMARK    8  A    between atoms: C17_22  and  O1_23 
ROOT
HETATM    1  C1  UNL     1      28.913   2.496  53.322  1.00  0.00     0.072 C 
HETATM    2  C2  UNL     1      27.971   1.476  53.806  1.00  0.00     0.054 A 
HETATM    3  N1  UNL     1      28.207   0.786  54.957  1.00  0.00    -0.245 NA
HETATM    4  C3  UNL     1      27.326  -0.152  55.385  1.00  0.00     0.235 A 
HETATM    5  N2  UNL     1      26.208  -0.436  54.713  1.00  0.00    -0.223 NA
HETATM    6  C4  UNL     1      25.897   0.189  53.579  1.00  0.00     0.150 A 
HETATM    7  C11 UNL     1      26.810   1.138  53.164  1.00  0.00     0.087 A 
ENDROOT
BRANCH   6   8
HETATM    8  N3  UNL     1      24.747  -0.023  52.778  1.00  0.00    -0.340 N 
HETATM    9  H5  UNL     1      24.886  -0.261  51.767  1.00  0.00     0.167 HD
BRANCH   8  10
HETATM   10  C5  UNL     1      23.397   0.052  53.198  1.00  0.00     0.035 A 
HETATM   11  C6  UNL     1      22.741  -0.834  54.022  1.00  0.00     0.029 A 
HETATM   12  C7  UNL     1      21.424  -0.721  54.405  1.00  0.00     0.004 A 
HETATM   13  C8  UNL     1      20.679   0.336  53.954  1.00  0.00     0.024 A 
HETATM   14  C9  UNL     1      21.282   1.246  53.134  1.00  0.00     0.036 A 
HETATM   15 CL1  UNL     1      20.340   2.600  52.553  1.00  0.00    -0.084 Cl
HETATM   16  C10 UNL     1      22.587   1.098  52.778  1.00  0.00     0.053 A 
ENDBRANCH   8  10
ENDBRANCH   6   8
BRANCH   7  17
HETATM   17  C12 UNL     1      26.584   1.890  51.938  1.00  0.00    -0.061 C 
HETATM   18  C13 UNL     1      26.412   2.534  50.912  1.00  0.00    -0.099 C 
BRANCH  18  19
HETATM   19  C14 UNL     1      26.219   3.287  49.673  1.00  0.00     0.116 C 
BRANCH  19  20
HETATM   20  C15 UNL     1      25.205   4.385  49.941  1.00  0.00     0.160 C 
BRANCH  20  21
HETATM   21  N4  UNL     1      25.843   5.625  49.694  1.00  0.00    -0.303 NA
HETATM   22  C16 UNL     1      25.359   6.685  50.201  1.00  0.00     0.109 C 
BRANCH  22  23
HETATM   23  C17 UNL     1      24.140   6.666  51.048  1.00  0.00     0.210 C 
BRANCH  23  24
HETATM   24  O1  UNL     1      24.473   6.943  52.368  1.00  0.00    -0.396 OA
HETATM   25  H17 UNL     1      23.663   6.709  52.910  1.00  0.00     0.209 HD
ENDBRANCH  23  24
ENDBRANCH  22  23
ENDBRANCH  20  21
ENDBRANCH  19  20
ENDBRANCH  18  19
ENDBRANCH   7  17
TORSDOF 8
ENDMDL
MODEL 4
REMARK VINA RESULT:      -7.3      1.745      2.082
REMARK  8 active torsions:
REMARK  status: ('A' for Active; 'I' for Inactive)
REMARK    1  A    between atoms: C4_6  and  N3_7 
REMARK    2  A    between atoms: N3_7  and  C5_8 
REMARK    3  A    between atoms: C11_15  and  C12_16 
REMARK    4  A    between atoms: C13_17  and  C14_18 
REMARK    5  A    between atoms: C14_18  and  C15_19 
REMARK    6  A    between atoms: C15_19  and  N4_20 
REMARK    7  A    between atoms: C16_21  and  C17_22 
REMARK    8  A    between atoms: C17_22  and  O1_23 
ROOT
HETATM    1  C1  UNL     1      20.410  -0.591  53.682  1.00  0.00     0.072 C 
HETATM    2  C2  UNL     1      21.819  -0.701  54.081  1.00  0.00     0.054 A 
HETATM    3  N1  UNL     1      22.187  -1.390  55.199  1.00  0.00    -0.245 NA
HETATM    4  C3  UNL     1      23.493  -1.478  55.551  1.00  0.00     0.235 A 
HETATM    5  N2  UNL     1      24.462  -0.907  54.832  1.00  0.00    -0.223 NA
HETATM    6  C4  UNL     1      24.196  -0.215  53.725  1.00  0.00     0.150 A 
HETATM    7  C11 UNL     1      22.859  -0.139  53.390  1.00  0.00     0.087 A 
ENDROOT
BRANCH   6   8
HETATM    8  N3  UNL     1      25.132   0.434  52.881  1.00  0.00    -0.340 N 
HETATM    9  H5  UNL     1      24.804   0.764  51.942  1.00  0.00     0.167 HD
BRANCH   8  10
HETATM   10  C5  UNL     1      26.494   0.694  53.169  1.00  0.00     0.035 A 
HETATM   11  C6  UNL     1      27.063   1.922  53.414  1.00  0.00     0.029 A 
HETATM   12  C7  UNL     1      28.396   2.128  53.690  1.00  0.00     0.004 A 
HETATM   13  C8  UNL     1      29.249   1.057  53.732  1.00  0.00     0.024 A 
HETATM   14  C9  UNL     1      28.734  -0.186  53.497  1.00  0.00     0.036 A 
HETATM   15 CL1  UNL     1      29.815  -1.560  53.550  1.00  0.00    -0.084 Cl
HETATM   16  C10 UNL     1      27.411  -0.347  53.228  1.00  0.00     0.053 A 
ENDBRANCH   8  10
ENDBRANCH   6   8
BRANCH   7  17
HETATM   17  C12 UNL     1      22.438   0.589  52.201  1.00  0.00    -0.061 C 
HETATM   18  C13 UNL     1      22.075   1.216  51.215  1.00  0.00    -0.099 C 
BRANCH  18  19
HETATM   19  C14 UNL     1      21.661   1.978  50.037  1.00  0.00     0.116 C 
BRANCH  19  20
HETATM   20  C15 UNL     1      22.256   3.371  50.144  1.00  0.00     0.160 C 
BRANCH  20  21
HETATM   21  N4  UNL     1      21.460   4.106  51.056  1.00  0.00    -0.303 NA
HETATM   22  C16 UNL     1      22.012   4.656  52.060  1.00  0.00     0.109 C 
BRANCH  22  23
HETATM   23  C17 UNL     1      23.472   4.553  52.309  1.00  0.00     0.210 C 
BRANCH  23  24
HETATM   24  O1  UNL     1      23.889   5.595  53.127  1.00  0.00    -0.396 OA
HETATM   25  H17 UNL     1      24.510   5.185  53.799  1.00  0.00     0.209 HD
ENDBRANCH  23  24
ENDBRANCH  22  23
ENDBRANCH  20  21
ENDBRANCH  19  20
ENDBRANCH  18  19
ENDBRANCH   7  17
TORSDOF 8
ENDMDL
MODEL 5
REMARK VINA RESULT:      -7.3      3.237      6.724
REMARK  8 active torsions:
REMARK  status: ('A' for Active; 'I' for Inactive)
REMARK    1  A    between atoms: C4_6  and  N3_7 
REMARK    2  A    between atoms: N3_7  and  C5_8 
REMARK    3  A    between atoms: C11_15  and  C12_16 
REMARK    4  A    between atoms: C13_17  and  C14_18 
REMARK    5  A    between atoms: C14_18  and  C15_19 
REMARK    6  A    between atoms: C15_19  and  N4_20 
REMARK    7  A    between atoms: C16_21  and  C17_22 
REMARK    8  A    between atoms: C17_22  and  O1_23 
ROOT
HETATM    1  C1  UNL     1      26.501   3.361  49.586  1.00  0.00     0.072 C 
HETATM    2  C2  UNL     1      25.137   3.040  50.027  1.00  0.00     0.054 A 
HETATM    3  N1  UNL     1      24.064   3.240  49.210  1.00  0.00    -0.245 NA
HETATM    4  C3  UNL     1      22.813   2.938  49.637  1.00  0.00     0.235 A 
HETATM    5  N2  UNL     1      22.579   2.439  50.853  1.00  0.00    -0.223 NA
HETATM    6  C4  UNL     1      23.566   2.210  51.717  1.00  0.00     0.150 A 
HETATM    7  C11 UNL     1      24.830   2.527  51.259  1.00  0.00     0.087 A 
ENDROOT
BRANCH   6   8
HETATM    8  N3  UNL     1      23.445   1.687  53.029  1.00  0.00    -0.340 N 
HETATM    9  H5  UNL     1      23.993   2.146  53.796  1.00  0.00     0.167 HD
BRANCH   8  10
HETATM   10  C5  UNL     1      22.650   0.587  53.432  1.00  0.00     0.035 A 
HETATM   11  C6  UNL     1      23.056  -0.488  54.189  1.00  0.00     0.029 A 
HETATM   12  C7  UNL     1      22.245  -1.538  54.558  1.00  0.00     0.004 A 
HETATM   13  C8  UNL     1      20.934  -1.548  54.163  1.00  0.00     0.024 A 
HETATM   14  C9  UNL     1      20.480  -0.503  53.410  1.00  0.00     0.036 A 
HETATM   15 CL1  UNL     1      18.806  -0.507  52.901  1.00  0.00    -0.084 Cl
HETATM   16  C10 UNL     1      21.313   0.515  53.066  1.00  0.00     0.053 A 
ENDBRANCH   8  10
ENDBRANCH   6   8
BRANCH   7  17
HETATM   17  C12 UNL     1      25.994   2.323  52.110  1.00  0.00    -0.061 C 
HETATM   18  C13 UNL     1      26.963   2.132  52.830  1.00  0.00    -0.099 C 
BRANCH  18  19
HETATM   19  C14 UNL     1      28.136   1.894  53.673  1.00  0.00     0.116 C 
BRANCH  19  20
HETATM   20  C15 UNL     1      28.134   0.432  54.081  1.00  0.00     0.160 C 
BRANCH  20  21
HETATM   21  N4  UNL     1      29.461  -0.046  53.959  1.00  0.00    -0.303 NA
HETATM   22  C16 UNL     1      29.663  -1.206  53.479  1.00  0.00     0.109 C 
BRANCH  22  23
HETATM   23  C17 UNL     1      28.547  -2.080  53.039  1.00  0.00     0.210 C 
BRANCH  23  24
HETATM   24  O1  UNL     1      28.775  -3.386  53.452  1.00  0.00    -0.396 OA
HETATM   25  H17 UNL     1      28.291  -3.487  54.325  1.00  0.00     0.209 HD
ENDBRANCH  23  24
ENDBRANCH  22  23
ENDBRANCH  20  21
ENDBRANCH  19  20
ENDBRANCH  18  19
ENDBRANCH   7  17
TORSDOF 8
ENDMDL
MODEL 6
REMARK VINA RESULT:      -7.2      1.562      1.997
REMARK  8 active torsions:
REMARK  status: ('A' for Active; 'I' for Inactive)
REMARK    1  A    between atoms: C4_6  and  N3_7 
REMARK    2  A    between atoms: N3_7  and  C5_8 
REMARK    3  A    between atoms: C11_15  and  C12_16 
REMARK    4  A    between atoms: C13_17  and  C14_18 
REMARK    5  A    between atoms: C14_18  and  C15_19 
REMARK    6  A    between atoms: C15_19  and  N4_20 
REMARK    7  A    between atoms: C16_21  and  C17_22 
REMARK    8  A    between atoms: C17_22  and  O1_23 
ROOT
HETATM    1  C1  UNL     1      20.527   1.634  52.854  1.00  0.00     0.072 C 
HETATM    2  C2  UNL     1      21.538   0.733  53.422  1.00  0.00     0.054 A 
HETATM    3  N1  UNL     1      21.285   0.004  54.546  1.00  0.00    -0.245 NA
HETATM    4  C3  UNL     1      22.233  -0.822  55.055  1.00  0.00     0.235 A 
HETATM    5  N2  UNL     1      23.434  -0.957  54.489  1.00  0.00    -0.223 NA
HETATM    6  C4  UNL     1      23.769  -0.285  53.389  1.00  0.00     0.150 A 
HETATM    7  C11 UNL     1      22.787   0.549  52.892  1.00  0.00     0.087 A 
ENDROOT
BRANCH   6   8
HETATM    8  N3  UNL     1      25.006  -0.344  52.699  1.00  0.00    -0.340 N 
HETATM    9  H5  UNL     1      25.060  -0.930  51.833  1.00  0.00     0.167 HD
BRANCH   8  10
HETATM   10  C5  UNL     1      26.207   0.316  53.056  1.00  0.00     0.035 A 
HETATM   11  C6  UNL     1      26.353   1.650  53.361  1.00  0.00     0.029 A 
HETATM   12  C7  UNL     1      27.544   2.249  53.703  1.00  0.00     0.004 A 
HETATM   13  C8  UNL     1      28.688   1.497  53.754  1.00  0.00     0.024 A 
HETATM   14  C9  UNL     1      28.597   0.167  53.461  1.00  0.00     0.036 A 
HETATM   15 CL1  UNL     1      30.051  -0.803  53.524  1.00  0.00    -0.084 Cl
HETATM   16  C10 UNL     1      27.401  -0.388  53.127  1.00  0.00     0.053 A 
ENDBRANCH   8  10
ENDBRANCH   6   8
BRANCH   7  17
HETATM   17  C12 UNL     1      23.031   1.339  51.693  1.00  0.00    -0.061 C 
HETATM   18  C13 UNL     1      23.255   2.008  50.694  1.00  0.00    -0.099 C 
BRANCH  18  19
HETATM   19  C14 UNL     1      23.532   2.789  49.488  1.00  0.00     0.116 C 
BRANCH  19  20
HETATM   20  C15 UNL     1      24.493   3.905  49.859  1.00  0.00     0.160 C 
BRANCH  20  21
HETATM   21  N4  UNL     1      25.808   3.422  49.653  1.00  0.00    -0.303 NA
HETATM   22  C16 UNL     1      26.708   4.223  49.249  1.00  0.00     0.109 C 
BRANCH  22  23
HETATM   23  C17 UNL     1      26.424   5.656  48.985  1.00  0.00     0.210 C 
BRANCH  23  24
HETATM   24  O1  UNL     1      27.535   6.427  49.302  1.00  0.00    -0.396 OA
HETATM   25  H17 UNL     1      27.226   7.082  49.996  1.00  0.00     0.209 HD
ENDBRANCH  23  24
ENDBRANCH  22  23
ENDBRANCH  20  21
ENDBRANCH  19  20
ENDBRANCH  18  19
ENDBRANCH   7  17
TORSDOF 8
ENDMDL
MODEL 7
REMARK VINA RESULT:      -7.1      2.807      5.449
REMARK  8 active torsions:
REMARK  status: ('A' for Active; 'I' for Inactive)
REMARK    1  A    between atoms: C4_6  and  N3_7 
REMARK    2  A    between atoms: N3_7  and  C5_8 
REMARK    3  A    between atoms: C11_15  and  C12_16 
REMARK    4  A    between atoms: C13_17  and  C14_18 
REMARK    5  A    between atoms: C14_18  and  C15_19 
REMARK    6  A    between atoms: C15_19  and  N4_20 
REMARK    7  A    between atoms: C16_21  and  C17_22 
REMARK    8  A    between atoms: C17_22  and  O1_23 
ROOT
HETATM    1  C1  UNL     1      21.316  -0.292  53.103  1.00  0.00     0.072 C 
HETATM    2  C2  UNL     1      21.480   1.128  52.765  1.00  0.00     0.054 A 
HETATM    3  N1  UNL     1      20.405   1.918  52.487  1.00  0.00    -0.245 NA
HETATM    4  C3  UNL     1      20.579   3.227  52.177  1.00  0.00     0.235 A 
HETATM    5  N2  UNL     1      21.787   3.791  52.132  1.00  0.00    -0.223 NA
HETATM    6  C4  UNL     1      22.894   3.096  52.390  1.00  0.00     0.150 A 
HETATM    7  C11 UNL     1      22.690   1.767  52.701  1.00  0.00     0.087 A 
ENDROOT
BRANCH   6   8
HETATM    8  N3  UNL     1      24.226   3.580  52.374  1.00  0.00    -0.340 N 
HETATM    9  H5  UNL     1      24.710   3.723  53.293  1.00  0.00     0.167 HD
BRANCH   8  10
HETATM   10  C5  UNL     1      24.998   3.900  51.231  1.00  0.00     0.035 A 
HETATM   11  C6  UNL     1      26.016   3.151  50.689  1.00  0.00     0.029 A 
HETATM   12  C7  UNL     1      26.741   3.503  49.573  1.00  0.00     0.004 A 
HETATM   13  C8  UNL     1      26.457   4.677  48.927  1.00  0.00     0.024 A 
HETATM   14  C9  UNL     1      25.453   5.458  49.424  1.00  0.00     0.036 A 
HETATM   15 CL1  UNL     1      25.083   6.960  48.606  1.00  0.00    -0.084 Cl
HETATM   16  C10 UNL     1      24.761   5.075  50.530  1.00  0.00     0.053 A 
ENDBRANCH   8  10
ENDBRANCH   6   8
BRANCH   7  17
HETATM   17  C12 UNL     1      23.821   0.900  53.003  1.00  0.00    -0.061 C 
HETATM   18  C13 UNL     1      24.757   0.160  53.270  1.00  0.00    -0.099 C 
BRANCH  18  19
HETATM   19  C14 UNL     1      25.872  -0.739  53.568  1.00  0.00     0.116 C 
BRANCH  19  20
HETATM   20  C15 UNL     1      26.900   0.035  54.374  1.00  0.00     0.160 C 
BRANCH  20  21
HETATM   21  N4  UNL     1      28.170  -0.527  54.097  1.00  0.00    -0.303 NA
HETATM   22  C16 UNL     1      29.191   0.229  54.069  1.00  0.00     0.109 C 
BRANCH  22  23
HETATM   23  C17 UNL     1      29.096   1.689  54.317  1.00  0.00     0.210 C 
BRANCH  23  24
HETATM   24  O1  UNL     1      29.187   2.383  53.117  1.00  0.00    -0.396 OA
HETATM   25  H17 UNL     1      28.337   2.910  53.039  1.00  0.00     0.209 HD
ENDBRANCH  23  24
ENDBRANCH  22  23
ENDBRANCH  20  21
ENDBRANCH  19  20
ENDBRANCH  18  19
ENDBRANCH   7  17
TORSDOF 8
ENDMDL
MODEL 8
REMARK VINA RESULT:      -7.0      2.417      5.227
REMARK  8 active torsions:
REMARK  status: ('A' for Active; 'I' for Inactive)
REMARK    1  A    between atoms: C4_6  and  N3_7 
REMARK    2  A    between atoms: N3_7  and  C5_8 
REMARK    3  A    between atoms: C11_15  and  C12_16 
REMARK    4  A    between atoms: C13_17  and  C14_18 
REMARK    5  A    between atoms: C14_18  and  C15_19 
REMARK    6  A    between atoms: C15_19  and  N4_20 
REMARK    7  A    between atoms: C16_21  and  C17_22 
REMARK    8  A    between atoms: C17_22  and  O1_23 
ROOT
HETATM    1  C1  UNL     1      21.626  -0.473  54.855  1.00  0.00     0.072 C 
HETATM    2  C2  UNL     1      21.346   0.311  53.644  1.00  0.00     0.054 A 
HETATM    3  N1  UNL     1      20.078   0.708  53.336  1.00  0.00    -0.245 NA
HETATM    4  C3  UNL     1      19.841   1.431  52.214  1.00  0.00     0.235 A 
HETATM    5  N2  UNL     1      20.819   1.781  51.375  1.00  0.00    -0.223 NA
HETATM    6  C4  UNL     1      22.086   1.438  51.596  1.00  0.00     0.150 A 
HETATM    7  C11 UNL     1      22.301   0.702  52.745  1.00  0.00     0.087 A 
ENDROOT
BRANCH   6   8
HETATM    8  N3  UNL     1      23.206   1.748  50.785  1.00  0.00    -0.340 N 
HETATM    9  H5  UNL     1      23.656   0.970  50.246  1.00  0.00     0.167 HD
BRANCH   8  10
HETATM   10  C5  UNL     1      23.803   3.021  50.615  1.00  0.00     0.035 A 
HETATM   11  C6  UNL     1      23.287   4.232  51.018  1.00  0.00     0.029 A 
HETATM   12  C7  UNL     1      23.905   5.448  50.831  1.00  0.00     0.004 A 
HETATM   13  C8  UNL     1      25.121   5.497  50.203  1.00  0.00     0.024 A 
HETATM   14  C9  UNL     1      25.678   4.323  49.784  1.00  0.00     0.036 A 
HETATM   15 CL1  UNL     1      27.231   4.375  48.982  1.00  0.00    -0.084 Cl
HETATM   16  C10 UNL     1      25.036   3.141  49.988  1.00  0.00     0.053 A 
ENDBRANCH   8  10
ENDBRANCH   6   8
BRANCH   7  17
HETATM   17  C12 UNL     1      23.645   0.265  53.098  1.00  0.00    -0.061 C 
HETATM   18  C13 UNL     1      24.764  -0.117  53.408  1.00  0.00    -0.099 C 
BRANCH  18  19
HETATM   19  C14 UNL     1      26.104  -0.590  53.758  1.00  0.00     0.116 C 
BRANCH  19  20
HETATM   20  C15 UNL     1      26.728   0.421  54.704  1.00  0.00     0.160 C 
BRANCH  20  21
HETATM   21  N4  UNL     1      26.719   1.677  54.051  1.00  0.00    -0.303 NA
HETATM   22  C16 UNL     1      27.824   2.225  53.742  1.00  0.00     0.109 C 
BRANCH  22  23
HETATM   23  C17 UNL     1      29.130   1.587  54.045  1.00  0.00     0.210 C 
BRANCH  23  24
HETATM   24  O1  UNL     1      29.882   2.413  54.870  1.00  0.00    -0.396 OA
HETATM   25  H17 UNL     1      29.501   3.334  54.759  1.00  0.00     0.209 HD
ENDBRANCH  23  24
ENDBRANCH  22  23
ENDBRANCH  20  21
ENDBRANCH  19  20
ENDBRANCH  18  19
ENDBRANCH   7  17
TORSDOF 8
ENDMDL
MODEL 9
REMARK VINA RESULT:      -6.9      3.352      6.948
REMARK  8 active torsions:
REMARK  status: ('A' for Active; 'I' for Inactive)
REMARK    1  A    between atoms: C4_6  and  N3_7 
REMARK    2  A    between atoms: N3_7  and  C5_8 
REMARK    3  A    between atoms: C11_15  and  C12_16 
REMARK    4  A    between atoms: C13_17  and  C14_18 
REMARK    5  A    between atoms: C14_18  and  C15_19 
REMARK    6  A    between atoms: C15_19  and  N4_20 
REMARK    7  A    between atoms: C16_21  and  C17_22 
REMARK    8  A    between atoms: C17_22  and  O1_23 
ROOT
HETATM    1  C1  UNL     1      26.491   2.827  50.159  1.00  0.00     0.072 C 
HETATM    2  C2  UNL     1      25.172   3.231  50.663  1.00  0.00     0.054 A 
HETATM    3  N1  UNL     1      24.577   4.385  50.244  1.00  0.00    -0.245 NA
HETATM    4  C3  UNL     1      23.360   4.741  50.723  1.00  0.00     0.235 A 
HETATM    5  N2  UNL     1      22.698   3.992  51.608  1.00  0.00    -0.223 NA
HETATM    6  C4  UNL     1      23.202   2.850  52.073  1.00  0.00     0.150 A 
HETATM    7  C11 UNL     1      24.443   2.511  51.571  1.00  0.00     0.087 A 
ENDROOT
BRANCH   6   8
HETATM    8  N3  UNL     1      22.600   1.973  53.009  1.00  0.00    -0.340 N 
HETATM    9  H5  UNL     1      23.049   1.873  53.951  1.00  0.00     0.167 HD
BRANCH   8  10
HETATM   10  C5  UNL     1      21.432   1.196  52.814  1.00  0.00     0.035 A 
HETATM   11  C6  UNL     1      20.934   0.231  53.659  1.00  0.00     0.029 A 
HETATM   12  C7  UNL     1      19.792  -0.501  53.427  1.00  0.00     0.004 A 
HETATM   13  C8  UNL     1      19.071  -0.281  52.283  1.00  0.00     0.024 A 
HETATM   14  C9  UNL     1      19.522   0.667  51.410  1.00  0.00     0.036 A 
HETATM   15 CL1  UNL     1      18.608   0.955  49.947  1.00  0.00    -0.084 Cl
HETATM   16  C10 UNL     1      20.656   1.369  51.676  1.00  0.00     0.053 A 
ENDBRANCH   8  10
ENDBRANCH   6   8
BRANCH   7  17
HETATM   17  C12 UNL     1      25.100   1.285  52.001  1.00  0.00    -0.061 C 
HETATM   18  C13 UNL     1      25.653   0.262  52.382  1.00  0.00    -0.099 C 
BRANCH  18  19
HETATM   19  C14 UNL     1      26.293  -0.970  52.843  1.00  0.00     0.116 C 
BRANCH  19  20
HETATM   20  C15 UNL     1      27.782  -0.707  52.979  1.00  0.00     0.160 C 
BRANCH  20  21
HETATM   21  N4  UNL     1      28.088  -0.698  54.361  1.00  0.00    -0.303 NA
HETATM   22  C16 UNL     1      28.724   0.288  54.851  1.00  0.00     0.109 C 
BRANCH  22  23
HETATM   23  C17 UNL     1      29.159   1.436  54.016  1.00  0.00     0.210 C 
BRANCH  23  24
HETATM   24  O1  UNL     1      29.727   2.418  54.816  1.00  0.00    -0.396 OA
HETATM   25  H17 UNL     1      29.185   2.433  55.660  1.00  0.00     0.209 HD
ENDBRANCH  23  24
ENDBRANCH  22  23
ENDBRANCH  20  21
ENDBRANCH  19  20
ENDBRANCH  18  19
ENDBRANCH   7  17
TORSDOF 8
ENDMDL
