MODEL 1
REMARK VINA RESULT:      -8.1      0.000      0.000
REMARK  6 active torsions:
REMARK  status: ('A' for Active; 'I' for Inactive)
REMARK    1  A    between atoms: C2_2  and  C3_3 
REMARK    2  A    between atoms: C4_4  and  C5_5 
REMARK    3  A    between atoms: C5_5  and  C6_6 
REMARK    4  A    between atoms: C6_6  and  N1_7 
REMARK    5  A    between atoms: N1_7  and  C7_8 
REMARK    6  A    between atoms: C14_18  and  O1_19 
ROOT
HETATM    1  C7  UNL     1      26.327   1.613  52.857  1.00  0.00     0.155 A 
HETATM    2  N2  UNL     1      27.409   0.894  53.192  1.00  0.00    -0.222 NA
HETATM    3  C8  UNL     1      27.315  -0.267  53.842  1.00  0.00     0.238 A 
HETATM    4  N3  UNL     1      26.176  -0.836  54.225  1.00  0.00    -0.215 NA
HETATM    5  C9  UNL     1      25.018  -0.174  53.925  1.00  0.00     0.202 A 
HETATM    6  C10 UNL     1      25.131   1.045  53.243  1.00  0.00     0.128 A 
HETATM    7  N4  UNL     1      24.032   1.867  52.867  1.00  0.00    -0.379 N 
HETATM    8  C11 UNL     1      22.679   1.522  52.482  1.00  0.00     0.161 C 
HETATM    9  C12 UNL     1      22.118   0.362  53.167  1.00  0.00    -0.004 A 
HETATM   10  C13 UNL     1      20.761   0.372  52.882  1.00  0.00     0.048 A 
HETATM   11  C14 UNL     1      19.912  -0.613  53.386  1.00  0.00     0.069 A 
HETATM   12  C16 UNL     1      20.407  -1.619  54.182  1.00  0.00     0.039 A 
HETATM   13  C17 UNL     1      21.766  -1.659  54.489  1.00  0.00     0.040 A 
HETATM   14  C18 UNL     1      22.569  -0.664  53.968  1.00  0.00     0.086 A 
HETATM   15  O2  UNL     1      23.884  -0.849  54.365  1.00  0.00    -0.289 OA
HETATM   16  H12 UNL     1      24.313   2.888  52.898  1.00  0.00     0.160 HD
ENDROOT
BRANCH   1  17
HETATM   17  N1  UNL     1      26.440   2.842  52.148  1.00  0.00    -0.372 N 
HETATM   18  H10 UNL     1      26.322   3.821  52.449  1.00  0.00     0.161 HD
BRANCH  17  19
HETATM   19  C6  UNL     1      26.772   2.712  50.743  1.00  0.00     0.125 C 
BRANCH  19  20
HETATM   20  C5  UNL     1      25.668   3.223  49.896  1.00  0.00     0.047 C 
BRANCH  20  21
HETATM   21  C4  UNL     1      25.610   4.671  49.708  1.00  0.00    -0.025 C 
HETATM   22  C3  UNL     1      26.494   5.429  49.124  1.00  0.00    -0.008 C 
BRANCH  22  23
HETATM   23  C2  UNL     1      27.741   4.970  48.530  1.00  0.00    -0.027 C 
HETATM   24  C1  UNL     1      28.800   5.714  48.212  1.00  0.00     0.031 C 
ENDBRANCH  22  23
ENDBRANCH  20  21
ENDBRANCH  19  20
ENDBRANCH  17  19
ENDBRANCH   1  17
BRANCH  11  25
HETATM   25  O1  UNL     1      18.551  -0.685  53.156  1.00  0.00    -0.356 OA
HETATM   26  C15 UNL     1      17.837  -1.887  53.419  1.00  0.00     0.210 C 
ENDBRANCH  11  25
TORSDOF 6
ENDMDL
MODEL 2
REMARK VINA RESULT:      -7.9      1.071      1.931
REMARK  6 active torsions:
REMARK  status: ('A' for Active; 'I' for Inactive)
REMARK    1  A    between atoms: C2_2  and  C3_3 
REMARK    2  A    between atoms: C4_4  and  C5_5 
REMARK    3  A    between atoms: C5_5  and  C6_6 
REMARK    4  A    between atoms: C6_6  and  N1_7 
REMARK    5  A    between atoms: N1_7  and  C7_8 
REMARK    6  A    between atoms: C14_18  and  O1_19 
ROOT
HETATM    1  C7  UNL     1      26.655   1.685  52.645  1.00  0.00     0.155 A 
HETATM    2  N2  UNL     1      27.753   0.982  52.963  1.00  0.00    -0.222 NA
HETATM    3  C8  UNL     1      27.690  -0.155  53.658  1.00  0.00     0.238 A 
HETATM    4  N3  UNL     1      26.569  -0.712  54.107  1.00  0.00    -0.215 NA
HETATM    5  C9  UNL     1      25.398  -0.064  53.831  1.00  0.00     0.202 A 
HETATM    6  C10 UNL     1      25.478   1.129  53.100  1.00  0.00     0.128 A 
HETATM    7  N4  UNL     1      24.361   1.934  52.739  1.00  0.00    -0.379 N 
HETATM    8  C11 UNL     1      22.996   1.571  52.422  1.00  0.00     0.161 C 
HETATM    9  C12 UNL     1      22.467   0.436  53.172  1.00  0.00    -0.004 A 
HETATM   10  C13 UNL     1      21.100   0.431  52.942  1.00  0.00     0.048 A 
HETATM   11  C14 UNL     1      20.276  -0.536  53.516  1.00  0.00     0.069 A 
HETATM   12  C16 UNL     1      20.807  -1.511  54.327  1.00  0.00     0.039 A 
HETATM   13  C17 UNL     1      22.178  -1.536  54.580  1.00  0.00     0.040 A 
HETATM   14  C18 UNL     1      22.954  -0.559  53.991  1.00  0.00     0.086 A 
HETATM   15  O2  UNL     1      24.286  -0.725  54.341  1.00  0.00    -0.289 OA
HETATM   16  H12 UNL     1      24.639   2.955  52.721  1.00  0.00     0.160 HD
ENDROOT
BRANCH   1  17
HETATM   17  N1  UNL     1      26.734   2.887  51.887  1.00  0.00    -0.372 N 
HETATM   18  H10 UNL     1      26.849   3.871  52.172  1.00  0.00     0.161 HD
BRANCH  17  19
HETATM   19  C6  UNL     1      26.625   2.717  50.453  1.00  0.00     0.125 C 
BRANCH  19  20
HETATM   20  C5  UNL     1      26.167   3.972  49.810  1.00  0.00     0.047 C 
BRANCH  20  21
HETATM   21  C4  UNL     1      24.872   4.491  50.246  1.00  0.00    -0.025 C 
HETATM   22  C3  UNL     1      23.694   4.139  49.815  1.00  0.00    -0.008 C 
BRANCH  22  23
HETATM   23  C2  UNL     1      23.432   3.137  48.793  1.00  0.00    -0.027 C 
HETATM   24  C1  UNL     1      22.429   2.261  48.767  1.00  0.00     0.031 C 
ENDBRANCH  22  23
ENDBRANCH  20  21
ENDBRANCH  19  20
ENDBRANCH  17  19
ENDBRANCH   1  17
BRANCH  11  25
HETATM   25  O1  UNL     1      18.908  -0.621  53.344  1.00  0.00    -0.356 OA
HETATM   26  C15 UNL     1      18.237  -1.868  53.484  1.00  0.00     0.210 C 
ENDBRANCH  11  25
TORSDOF 6
ENDMDL
MODEL 3
REMARK VINA RESULT:      -7.7      3.393      8.450
REMARK  6 active torsions:
REMARK  status: ('A' for Active; 'I' for Inactive)
REMARK    1  A    between atoms: C2_2  and  C3_3 
REMARK    2  A    between atoms: C4_4  and  C5_5 
REMARK    3  A    between atoms: C5_5  and  C6_6 
REMARK    4  A    between atoms: C6_6  and  N1_7 
REMARK    5  A    between atoms: N1_7  and  C7_8 
REMARK    6  A    between atoms: C14_18  and  O1_19 
ROOT
HETATM    1  C7  UNL     1      20.467   0.589  51.405  1.00  0.00     0.155 A 
HETATM    2  N2  UNL     1      20.138   1.072  50.197  1.00  0.00    -0.222 NA
HETATM    3  C8  UNL     1      21.031   1.664  49.403  1.00  0.00     0.238 A 
HETATM    4  N3  UNL     1      22.314   1.843  49.700  1.00  0.00    -0.215 NA
HETATM    5  C9  UNL     1      22.742   1.382  50.913  1.00  0.00     0.202 A 
HETATM    6  C10 UNL     1      21.794   0.763  51.738  1.00  0.00     0.128 A 
HETATM    7  N4  UNL     1      22.067   0.240  53.034  1.00  0.00    -0.379 N 
HETATM    8  C11 UNL     1      23.264  -0.366  53.578  1.00  0.00     0.161 C 
HETATM    9  C12 UNL     1      24.518   0.187  53.079  1.00  0.00    -0.004 A 
HETATM   10  C13 UNL     1      25.511  -0.311  53.909  1.00  0.00     0.048 A 
HETATM   11  C14 UNL     1      26.850   0.022  53.711  1.00  0.00     0.069 A 
HETATM   12  C16 UNL     1      27.215   0.856  52.681  1.00  0.00     0.039 A 
HETATM   13  C17 UNL     1      26.244   1.375  51.827  1.00  0.00     0.040 A 
HETATM   14  C18 UNL     1      24.931   1.018  52.061  1.00  0.00     0.086 A 
HETATM   15  O2  UNL     1      24.096   1.615  51.128  1.00  0.00    -0.289 OA
HETATM   16  H12 UNL     1      21.215   0.346  53.655  1.00  0.00     0.160 HD
ENDROOT
BRANCH   1  17
HETATM   17  N1  UNL     1      19.509  -0.056  52.236  1.00  0.00    -0.372 N 
HETATM   18  H10 UNL     1      19.596  -0.514  53.156  1.00  0.00     0.161 HD
BRANCH  17  19
HETATM   19  C6  UNL     1      18.162  -0.095  51.704  1.00  0.00     0.125 C 
BRANCH  19  20
HETATM   20  C5  UNL     1      17.386  -1.196  52.323  1.00  0.00     0.047 C 
BRANCH  20  21
HETATM   21  C4  UNL     1      18.024  -1.893  53.438  1.00  0.00    -0.025 C 
HETATM   22  C3  UNL     1      17.752  -3.087  53.884  1.00  0.00    -0.008 C 
BRANCH  22  23
HETATM   23  C2  UNL     1      16.739  -3.981  53.343  1.00  0.00    -0.027 C 
HETATM   24  C1  UNL     1      16.244  -5.075  53.920  1.00  0.00     0.031 C 
ENDBRANCH  22  23
ENDBRANCH  20  21
ENDBRANCH  19  20
ENDBRANCH  17  19
ENDBRANCH   1  17
BRANCH  11  25
HETATM   25  O1  UNL     1      27.904  -0.425  54.485  1.00  0.00    -0.356 OA
HETATM   26  C15 UNL     1      29.132  -0.813  53.879  1.00  0.00     0.210 C 
ENDBRANCH  11  25
TORSDOF 6
ENDMDL
MODEL 4
REMARK VINA RESULT:      -7.4      3.202      5.266
REMARK  6 active torsions:
REMARK  status: ('A' for Active; 'I' for Inactive)
REMARK    1  A    between atoms: C2_2  and  C3_3 
REMARK    2  A    between atoms: C4_4  and  C5_5 
REMARK    3  A    between atoms: C5_5  and  C6_6 
REMARK    4  A    between atoms: C6_6  and  N1_7 
REMARK    5  A    between atoms: N1_7  and  C7_8 
REMARK    6  A    between atoms: C14_18  and  O1_19 
ROOT
HETATM    1  C7  UNL     1      24.142   4.898  51.055  1.00  0.00     0.155 A 
HETATM    2  N2  UNL     1      22.842   5.159  51.261  1.00  0.00    -0.222 NA
HETATM    3  C8  UNL     1      22.010   4.252  51.774  1.00  0.00     0.238 A 
HETATM    4  N3  UNL     1      22.353   3.018  52.130  1.00  0.00    -0.215 NA
HETATM    5  C9  UNL     1      23.661   2.662  51.956  1.00  0.00     0.202 A 
HETATM    6  C10 UNL     1      24.525   3.623  51.417  1.00  0.00     0.128 A 
HETATM    7  N4  UNL     1      25.909   3.414  51.158  1.00  0.00    -0.379 N 
HETATM    8  C11 UNL     1      26.887   2.597  51.843  1.00  0.00     0.161 C 
HETATM    9  C12 UNL     1      26.373   1.348  52.395  1.00  0.00    -0.004 A 
HETATM   10  C13 UNL     1      27.487   0.599  52.745  1.00  0.00     0.048 A 
HETATM   11  C14 UNL     1      27.353  -0.668  53.310  1.00  0.00     0.069 A 
HETATM   12  C16 UNL     1      26.107  -1.204  53.534  1.00  0.00     0.039 A 
HETATM   13  C17 UNL     1      24.966  -0.479  53.194  1.00  0.00     0.040 A 
HETATM   14  C18 UNL     1      25.146   0.771  52.637  1.00  0.00     0.086 A 
HETATM   15  O2  UNL     1      23.919   1.355  52.359  1.00  0.00    -0.289 OA
HETATM   16  H12 UNL     1      26.209   3.973  50.309  1.00  0.00     0.160 HD
ENDROOT
BRANCH   1  17
HETATM   17  N1  UNL     1      25.024   5.881  50.524  1.00  0.00    -0.372 N 
HETATM   18  H10 UNL     1      25.574   6.626  50.978  1.00  0.00     0.161 HD
BRANCH  17  19
HETATM   19  C6  UNL     1      25.183   5.850  49.085  1.00  0.00     0.125 C 
BRANCH  19  20
HETATM   20  C5  UNL     1      26.546   6.286  48.700  1.00  0.00     0.047 C 
BRANCH  20  21
HETATM   21  C4  UNL     1      27.547   5.233  48.546  1.00  0.00    -0.025 C 
HETATM   22  C3  UNL     1      28.810   5.378  48.260  1.00  0.00    -0.008 C 
BRANCH  22  23
HETATM   23  C2  UNL     1      29.486   6.647  48.035  1.00  0.00    -0.027 C 
HETATM   24  C1  UNL     1      29.449   7.389  46.930  1.00  0.00     0.031 C 
ENDBRANCH  22  23
ENDBRANCH  20  21
ENDBRANCH  19  20
ENDBRANCH  17  19
ENDBRANCH   1  17
BRANCH  11  25
HETATM   25  O1  UNL     1      28.402  -1.485  53.690  1.00  0.00    -0.356 OA
HETATM   26  C15 UNL     1      28.652  -2.706  53.003  1.00  0.00     0.210 C 
ENDBRANCH  11  25
TORSDOF 6
ENDMDL
MODEL 5
REMARK VINA RESULT:      -7.4      3.429      8.107
REMARK  6 active torsions:
REMARK  status: ('A' for Active; 'I' for Inactive)
REMARK    1  A    between atoms: C2_2  and  C3_3 
REMARK    2  A    between atoms: C4_4  and  C5_5 
REMARK    3  A    between atoms: C5_5  and  C6_6 
REMARK    4  A    between atoms: C6_6  and  N1_7 
REMARK    5  A    between atoms: N1_7  and  C7_8 
REMARK    6  A    between atoms: C14_18  and  O1_19 
ROOT
HETATM    1  C7  UNL     1      23.216   2.352  51.869  1.00  0.00     0.155 A 
HETATM    2  N2  UNL     1      22.012   2.808  52.248  1.00  0.00    -0.222 NA
HETATM    3  C8  UNL     1      21.672   4.093  52.131  1.00  0.00     0.238 A 
HETATM    4  N3  UNL     1      22.458   5.047  51.643  1.00  0.00    -0.215 NA
HETATM    5  C9  UNL     1      23.706   4.675  51.231  1.00  0.00     0.202 A 
HETATM    6  C10 UNL     1      24.051   3.324  51.359  1.00  0.00     0.128 A 
HETATM    7  N4  UNL     1      25.311   2.771  50.992  1.00  0.00    -0.379 N 
HETATM    8  C11 UNL     1      26.235   3.136  49.939  1.00  0.00     0.161 C 
HETATM    9  C12 UNL     1      26.304   4.564  49.646  1.00  0.00    -0.004 A 
HETATM   10  C13 UNL     1      27.419   4.733  48.839  1.00  0.00     0.048 A 
HETATM   11  C14 UNL     1      27.783   5.994  48.367  1.00  0.00     0.069 A 
HETATM   12  C16 UNL     1      27.038   7.102  48.696  1.00  0.00     0.039 A 
HETATM   13  C17 UNL     1      25.912   6.969  49.505  1.00  0.00     0.040 A 
HETATM   14  C18 UNL     1      25.589   5.701  49.949  1.00  0.00     0.086 A 
HETATM   15  O2  UNL     1      24.449   5.743  50.737  1.00  0.00    -0.289 OA
HETATM   16  H12 UNL     1      25.556   1.967  51.636  1.00  0.00     0.160 HD
ENDROOT
BRANCH   1  17
HETATM   17  N1  UNL     1      23.560   0.975  51.981  1.00  0.00    -0.372 N 
HETATM   18  H10 UNL     1      23.682   0.239  51.271  1.00  0.00     0.161 HD
BRANCH  17  19
HETATM   19  C6  UNL     1      23.771   0.504  53.335  1.00  0.00     0.125 C 
BRANCH  19  20
HETATM   20  C5  UNL     1      24.813  -0.549  53.365  1.00  0.00     0.047 C 
BRANCH  20  21
HETATM   21  C4  UNL     1      25.969  -0.346  52.495  1.00  0.00    -0.025 C 
HETATM   22  C3  UNL     1      27.154   0.075  52.838  1.00  0.00    -0.008 C 
BRANCH  22  23
HETATM   23  C2  UNL     1      27.566   0.431  54.188  1.00  0.00    -0.027 C 
HETATM   24  C1  UNL     1      28.721   0.130  54.778  1.00  0.00     0.031 C 
ENDBRANCH  22  23
ENDBRANCH  20  21
ENDBRANCH  19  20
ENDBRANCH  17  19
ENDBRANCH   1  17
BRANCH  11  25
HETATM   25  O1  UNL     1      28.874   6.258  47.561  1.00  0.00    -0.356 OA
HETATM   26  C15 UNL     1      29.769   7.317  47.880  1.00  0.00     0.210 C 
ENDBRANCH  11  25
TORSDOF 6
ENDMDL
MODEL 6
REMARK VINA RESULT:      -7.3      2.508      4.804
REMARK  6 active torsions:
REMARK  status: ('A' for Active; 'I' for Inactive)
REMARK    1  A    between atoms: C2_2  and  C3_3 
REMARK    2  A    between atoms: C4_4  and  C5_5 
REMARK    3  A    between atoms: C5_5  and  C6_6 
REMARK    4  A    between atoms: C6_6  and  N1_7 
REMARK    5  A    between atoms: N1_7  and  C7_8 
REMARK    6  A    between atoms: C14_18  and  O1_19 
ROOT
HETATM    1  C7  UNL     1      24.462   2.895  50.970  1.00  0.00     0.155 A 
HETATM    2  N2  UNL     1      24.559   3.651  49.865  1.00  0.00    -0.222 NA
HETATM    3  C8  UNL     1      23.607   3.665  48.931  1.00  0.00     0.238 A 
HETATM    4  N3  UNL     1      22.484   2.955  48.977  1.00  0.00    -0.215 NA
HETATM    5  C9  UNL     1      22.298   2.154  50.068  1.00  0.00     0.202 A 
HETATM    6  C10 UNL     1      23.305   2.148  51.042  1.00  0.00     0.128 A 
HETATM    7  N4  UNL     1      23.279   1.364  52.230  1.00  0.00    -0.379 N 
HETATM    8  C11 UNL     1      22.170   0.933  53.055  1.00  0.00     0.161 C 
HETATM    9  C12 UNL     1      20.939   0.635  52.330  1.00  0.00    -0.004 A 
HETATM   10  C13 UNL     1      20.114  -0.018  53.234  1.00  0.00     0.048 A 
HETATM   11  C14 UNL     1      18.841  -0.449  52.865  1.00  0.00     0.069 A 
HETATM   12  C16 UNL     1      18.375  -0.235  51.590  1.00  0.00     0.039 A 
HETATM   13  C17 UNL     1      19.177   0.417  50.655  1.00  0.00     0.040 A 
HETATM   14  C18 UNL     1      20.431   0.827  51.065  1.00  0.00     0.086 A 
HETATM   15  O2  UNL     1      21.096   1.456  50.023  1.00  0.00    -0.289 OA
HETATM   16  H12 UNL     1      24.262   1.077  52.498  1.00  0.00     0.160 HD
ENDROOT
BRANCH   1  17
HETATM   17  N1  UNL     1      25.477   2.903  51.968  1.00  0.00    -0.372 N 
HETATM   18  H10 UNL     1      25.482   3.253  52.937  1.00  0.00     0.161 HD
BRANCH  17  19
HETATM   19  C6  UNL     1      26.742   2.326  51.562  1.00  0.00     0.125 C 
BRANCH  19  20
HETATM   20  C5  UNL     1      27.161   1.266  52.510  1.00  0.00     0.047 C 
BRANCH  20  21
HETATM   21  C4  UNL     1      26.681  -0.085  52.229  1.00  0.00    -0.025 C 
HETATM   22  C3  UNL     1      25.978  -0.854  53.012  1.00  0.00    -0.008 C 
BRANCH  22  23
HETATM   23  C2  UNL     1      25.523  -0.507  54.350  1.00  0.00    -0.027 C 
HETATM   24  C1  UNL     1      24.516  -1.062  55.023  1.00  0.00     0.031 C 
ENDBRANCH  22  23
ENDBRANCH  20  21
ENDBRANCH  19  20
ENDBRANCH  17  19
ENDBRANCH   1  17
BRANCH  11  25
HETATM   25  O1  UNL     1      17.951  -1.105  53.695  1.00  0.00    -0.356 OA
HETATM   26  C15 UNL     1      17.780  -2.515  53.600  1.00  0.00     0.210 C 
ENDBRANCH  11  25
TORSDOF 6
ENDMDL
MODEL 7
REMARK VINA RESULT:      -7.2      2.612      7.688
REMARK  6 active torsions:
REMARK  status: ('A' for Active; 'I' for Inactive)
REMARK    1  A    between atoms: C2_2  and  C3_3 
REMARK    2  A    between atoms: C4_4  and  C5_5 
REMARK    3  A    between atoms: C5_5  and  C6_6 
REMARK    4  A    between atoms: C6_6  and  N1_7 
REMARK    5  A    between atoms: N1_7  and  C7_8 
REMARK    6  A    between atoms: C14_18  and  O1_19 
ROOT
HETATM    1  C7  UNL     1      24.157   0.159  53.141  1.00  0.00     0.155 A 
HETATM    2  N2  UNL     1      25.134  -0.535  53.745  1.00  0.00    -0.222 NA
HETATM    3  C8  UNL     1      26.420  -0.367  53.433  1.00  0.00     0.238 A 
HETATM    4  N3  UNL     1      26.876   0.480  52.516  1.00  0.00    -0.215 NA
HETATM    5  C9  UNL     1      25.952   1.232  51.848  1.00  0.00     0.202 A 
HETATM    6  C10 UNL     1      24.604   1.045  52.184  1.00  0.00     0.128 A 
HETATM    7  N4  UNL     1      23.515   1.734  51.579  1.00  0.00    -0.379 N 
HETATM    8  C11 UNL     1      23.425   3.074  51.039  1.00  0.00     0.161 C 
HETATM    9  C12 UNL     1      24.639   3.564  50.394  1.00  0.00    -0.004 A 
HETATM   10  C13 UNL     1      24.269   4.712  49.710  1.00  0.00     0.048 A 
HETATM   11  C14 UNL     1      25.201   5.444  48.975  1.00  0.00     0.069 A 
HETATM   12  C16 UNL     1      26.514   5.038  48.913  1.00  0.00     0.039 A 
HETATM   13  C17 UNL     1      26.920   3.889  49.588  1.00  0.00     0.040 A 
HETATM   14  C18 UNL     1      25.963   3.196  50.303  1.00  0.00     0.086 A 
HETATM   15  O2  UNL     1      26.528   2.085  50.912  1.00  0.00    -0.289 OA
HETATM   16  H12 UNL     1      22.663   1.106  51.544  1.00  0.00     0.160 HD
ENDROOT
BRANCH   1  17
HETATM   17  N1  UNL     1      22.790  -0.017  53.496  1.00  0.00    -0.372 N 
HETATM   18  H10 UNL     1      21.946   0.529  53.266  1.00  0.00     0.161 HD
BRANCH  17  19
HETATM   19  C6  UNL     1      22.518  -1.160  54.343  1.00  0.00     0.125 C 
BRANCH  19  20
HETATM   20  C5  UNL     1      21.058  -1.390  54.458  1.00  0.00     0.047 C 
BRANCH  20  21
HETATM   21  C4  UNL     1      20.209  -0.664  53.515  1.00  0.00    -0.025 C 
HETATM   22  C3  UNL     1      18.953  -0.887  53.248  1.00  0.00    -0.008 C 
BRANCH  22  23
HETATM   23  C2  UNL     1      18.132  -1.927  53.851  1.00  0.00    -0.027 C 
HETATM   24  C1  UNL     1      17.373  -2.818  53.216  1.00  0.00     0.031 C 
ENDBRANCH  22  23
ENDBRANCH  20  21
ENDBRANCH  19  20
ENDBRANCH  17  19
ENDBRANCH   1  17
BRANCH  11  25
HETATM   25  O1  UNL     1      24.927   6.596  48.263  1.00  0.00    -0.356 OA
HETATM   26  C15 UNL     1      23.620   7.161  48.279  1.00  0.00     0.210 C 
ENDBRANCH  11  25
TORSDOF 6
ENDMDL
MODEL 8
REMARK VINA RESULT:      -7.0      2.575      8.350
REMARK  6 active torsions:
REMARK  status: ('A' for Active; 'I' for Inactive)
REMARK    1  A    between atoms: C2_2  and  C3_3 
REMARK    2  A    between atoms: C4_4  and  C5_5 
REMARK    3  A    between atoms: C5_5  and  C6_6 
REMARK    4  A    between atoms: C6_6  and  N1_7 
REMARK    5  A    between atoms: N1_7  and  C7_8 
REMARK    6  A    between atoms: C14_18  and  O1_19 
ROOT
HETATM    1  C7  UNL     1      20.943  -0.101  53.618  1.00  0.00     0.155 A 
HETATM    2  N2  UNL     1      21.184  -0.920  54.653  1.00  0.00    -0.222 NA
HETATM    3  C8  UNL     1      22.420  -1.278  55.001  1.00  0.00     0.238 A 
HETATM    4  N3  UNL     1      23.530  -0.881  54.386  1.00  0.00    -0.215 NA
HETATM    5  C9  UNL     1      23.383  -0.043  53.317  1.00  0.00     0.202 A 
HETATM    6  C10 UNL     1      22.079   0.325  52.961  1.00  0.00     0.128 A 
HETATM    7  N4  UNL     1      21.747   1.177  51.870  1.00  0.00    -0.379 N 
HETATM    8  C11 UNL     1      22.458   2.298  51.294  1.00  0.00     0.161 C 
HETATM    9  C12 UNL     1      23.912   2.178  51.302  1.00  0.00    -0.004 A 
HETATM   10  C13 UNL     1      24.382   3.186  50.473  1.00  0.00     0.048 A 
HETATM   11  C14 UNL     1      25.748   3.360  50.253  1.00  0.00     0.069 A 
HETATM   12  C16 UNL     1      26.662   2.530  50.859  1.00  0.00     0.039 A 
HETATM   13  C17 UNL     1      26.225   1.507  51.699  1.00  0.00     0.040 A 
HETATM   14  C18 UNL     1      24.864   1.373  51.887  1.00  0.00     0.086 A 
HETATM   15  O2  UNL     1      24.599   0.315  52.744  1.00  0.00    -0.289 OA
HETATM   16  H12 UNL     1      20.817   0.888  51.452  1.00  0.00     0.160 HD
ENDROOT
BRANCH   1  17
HETATM   17  N1  UNL     1      19.619   0.288  53.267  1.00  0.00    -0.372 N 
HETATM   18  H10 UNL     1      19.055   1.110  53.526  1.00  0.00     0.161 HD
BRANCH  17  19
HETATM   19  C6  UNL     1      18.920  -0.634  52.395  1.00  0.00     0.125 C 
BRANCH  19  20
HETATM   20  C5  UNL     1      17.775  -1.255  53.102  1.00  0.00     0.047 C 
BRANCH  20  21
HETATM   21  C4  UNL     1      18.029  -2.542  53.746  1.00  0.00    -0.025 C 
HETATM   22  C3  UNL     1      17.299  -3.619  53.676  1.00  0.00    -0.008 C 
BRANCH  22  23
HETATM   23  C2  UNL     1      16.061  -3.754  52.923  1.00  0.00    -0.027 C 
HETATM   24  C1  UNL     1      14.970  -4.425  53.289  1.00  0.00     0.031 C 
ENDBRANCH  22  23
ENDBRANCH  20  21
ENDBRANCH  19  20
ENDBRANCH  17  19
ENDBRANCH   1  17
BRANCH  11  25
HETATM   25  O1  UNL     1      26.307   4.332  49.446  1.00  0.00    -0.356 OA
HETATM   26  C15 UNL     1      25.753   5.643  49.404  1.00  0.00     0.210 C 
ENDBRANCH  11  25
TORSDOF 6
ENDMDL
MODEL 9
REMARK VINA RESULT:      -7.0      2.678      6.678
REMARK  6 active torsions:
REMARK  status: ('A' for Active; 'I' for Inactive)
REMARK    1  A    between atoms: C2_2  and  C3_3 
REMARK    2  A    between atoms: C4_4  and  C5_5 
REMARK    3  A    between atoms: C5_5  and  C6_6 
REMARK    4  A    between atoms: C6_6  and  N1_7 
REMARK    5  A    between atoms: N1_7  and  C7_8 
REMARK    6  A    between atoms: C14_18  and  O1_19 
ROOT
HETATM    1  C7  UNL     1      21.427  -0.269  54.256  1.00  0.00     0.155 A 
HETATM    2  N2  UNL     1      21.796  -1.142  55.205  1.00  0.00    -0.222 NA
HETATM    3  C8  UNL     1      23.068  -1.504  55.379  1.00  0.00     0.238 A 
HETATM    4  N3  UNL     1      24.092  -1.060  54.657  1.00  0.00    -0.215 NA
HETATM    5  C9  UNL     1      23.811  -0.165  53.664  1.00  0.00     0.202 A 
HETATM    6  C10 UNL     1      22.471   0.207  53.491  1.00  0.00     0.128 A 
HETATM    7  N4  UNL     1      22.004   1.115  52.499  1.00  0.00    -0.379 N 
HETATM    8  C11 UNL     1      22.634   2.275  51.906  1.00  0.00     0.161 C 
HETATM    9  C12 UNL     1      24.078   2.172  51.730  1.00  0.00    -0.004 A 
HETATM   10  C13 UNL     1      24.438   3.230  50.908  1.00  0.00     0.048 A 
HETATM   11  C14 UNL     1      25.766   3.433  50.534  1.00  0.00     0.069 A 
HETATM   12  C16 UNL     1      26.751   2.582  50.975  1.00  0.00     0.039 A 
HETATM   13  C17 UNL     1      26.426   1.508  51.802  1.00  0.00     0.040 A 
HETATM   14  C18 UNL     1      25.098   1.347  52.147  1.00  0.00     0.086 A 
HETATM   15  O2  UNL     1      24.946   0.240  52.968  1.00  0.00    -0.289 OA
HETATM   16  H12 UNL     1      21.032   0.838  52.182  1.00  0.00     0.160 HD
ENDROOT
BRANCH   1  17
HETATM   17  N1  UNL     1      20.068   0.123  54.092  1.00  0.00    -0.372 N 
HETATM   18  H10 UNL     1      19.570   0.990  54.342  1.00  0.00     0.161 HD
BRANCH  17  19
HETATM   19  C6  UNL     1      19.214  -0.869  53.472  1.00  0.00     0.125 C 
BRANCH  19  20
HETATM   20  C5  UNL     1      18.786  -0.423  52.125  1.00  0.00     0.047 C 
BRANCH  20  21
HETATM   21  C4  UNL     1      18.572   1.012  51.953  1.00  0.00    -0.025 C 
HETATM   22  C3  UNL     1      18.807   1.725  50.888  1.00  0.00    -0.008 C 
BRANCH  22  23
HETATM   23  C2  UNL     1      19.339   1.218  49.632  1.00  0.00    -0.027 C 
HETATM   24  C1  UNL     1      20.581   1.360  49.172  1.00  0.00     0.031 C 
ENDBRANCH  22  23
ENDBRANCH  20  21
ENDBRANCH  19  20
ENDBRANCH  17  19
ENDBRANCH   1  17
BRANCH  11  25
HETATM   25  O1  UNL     1      26.217   4.456  49.722  1.00  0.00    -0.356 OA
HETATM   26  C15 UNL     1      25.611   5.743  49.777  1.00  0.00     0.210 C 
ENDBRANCH  11  25
TORSDOF 6
ENDMDL
