MODEL 1
REMARK VINA RESULT:      -7.1      0.000      0.000
REMARK  7 active torsions:
REMARK  status: ('A' for Active; 'I' for Inactive)
REMARK    1  A    between atoms: C3_3  and  C4_4 
REMARK    2  A    between atoms: C8_8  and  C9_9 
REMARK    3  A    between atoms: C9_9  and  O1_10 
REMARK    4  A    between atoms: C18_22  and  O3_23 
REMARK    5  A    between atoms: O3_23  and  C19_24 
REMARK    6  A    between atoms: C19_24  and  C20_25 
REMARK    7  A    between atoms: C20_25  and  O4_26 
ROOT
HETATM    1  C1  UNL     1      18.318  -0.901  53.080  1.00  0.00     0.012 C 
HETATM    2  C2  UNL     1      19.109  -0.410  52.305  1.00  0.00    -0.114 C 
HETATM    3  C3  UNL     1      20.091   0.209  51.370  1.00  0.00     0.122 C 
ENDROOT
BRANCH   3   4
HETATM    4  C4  UNL     1      21.397   0.247  52.018  1.00  0.00     0.014 C 
HETATM    5  C5  UNL     1      22.635   0.754  51.987  1.00  0.00     0.023 C 
HETATM    6  C6  UNL     1      22.519   1.609  50.758  1.00  0.00     0.010 C 
HETATM    7  N3  UNL     1      23.506   0.356  53.101  1.00  0.00    -0.359 N 
HETATM    8  C7  UNL     1      23.212   2.441  49.953  1.00  0.00     0.052 C 
HETATM    9  C8  UNL     1      24.310   3.301  49.289  1.00  0.00     0.155 C 
HETATM   10  O2  UNL     1      25.008   3.931  50.448  1.00  0.00    -0.363 OA
HETATM   11  C11 UNL     1      25.194   2.901  51.454  1.00  0.00     0.134 A 
HETATM   12  C12 UNL     1      26.148   1.976  51.247  1.00  0.00     0.086 A 
HETATM   13  C18 UNL     1      24.170   3.384  52.215  1.00  0.00     0.080 A 
HETATM   14  C16 UNL     1      25.242   1.861  52.460  1.00  0.00     0.089 A 
HETATM   15  C13 UNL     1      26.179   0.950  52.242  1.00  0.00     0.128 A 
HETATM   16  N1  UNL     1      26.934  -0.142  52.177  1.00  0.00    -0.266 NA
HETATM   17  C15 UNL     1      24.983   0.549  52.958  1.00  0.00     0.172 A 
HETATM   18  C14 UNL     1      26.441  -1.288  52.766  1.00  0.00     0.225 A 
HETATM   19  N2  UNL     1      25.251  -0.775  53.206  1.00  0.00    -0.247 NA
HETATM   20  C17 UNL     1      24.228   2.398  53.148  1.00  0.00     0.028 A 
HETATM   21  H23 UNL     1      22.955  -0.014  53.895  1.00  0.00     0.162 HD
BRANCH   9  22
HETATM   22  C9  UNL     1      23.601   4.301  48.511  1.00  0.00     0.199 C 
BRANCH  22  23
HETATM   23  O1  UNL     1      23.633   5.573  49.011  1.00  0.00    -0.393 OA
HETATM   24  C10 UNL     1      23.424   6.439  47.912  1.00  0.00     0.201 C 
ENDBRANCH  22  23
ENDBRANCH   9  22
BRANCH  13  25
HETATM   25  O3  UNL     1      23.332   4.332  52.275  1.00  0.00    -0.350 OA
BRANCH  25  26
HETATM   26  C19 UNL     1      22.466   5.299  52.343  1.00  0.00     0.201 C 
BRANCH  26  27
HETATM   27  C20 UNL     1      21.219   5.000  51.485  1.00  0.00     0.193 C 
BRANCH  27  28
HETATM   28  O4  UNL     1      20.511   3.991  52.094  1.00  0.00    -0.394 OA
HETATM   29  C21 UNL     1      19.283   3.752  51.471  1.00  0.00     0.201 C 
ENDBRANCH  27  28
ENDBRANCH  26  27
ENDBRANCH  25  26
ENDBRANCH  13  25
ENDBRANCH   3   4
TORSDOF 7
ENDMDL
MODEL 2
REMARK VINA RESULT:      -7.0      1.807      4.976
REMARK  7 active torsions:
REMARK  status: ('A' for Active; 'I' for Inactive)
REMARK    1  A    between atoms: C3_3  and  C4_4 
REMARK    2  A    between atoms: C8_8  and  C9_9 
REMARK    3  A    between atoms: C9_9  and  O1_10 
REMARK    4  A    between atoms: C18_22  and  O3_23 
REMARK    5  A    between atoms: O3_23  and  C19_24 
REMARK    6  A    between atoms: C19_24  and  C20_25 
REMARK    7  A    between atoms: C20_25  and  O4_26 
ROOT
HETATM    1  C1  UNL     1      29.033   0.756  54.141  1.00  0.00     0.012 C 
HETATM    2  C2  UNL     1      28.200   1.390  53.531  1.00  0.00    -0.114 C 
HETATM    3  C3  UNL     1      27.170   2.150  52.768  1.00  0.00     0.122 C 
ENDROOT
BRANCH   3   4
HETATM    4  C4  UNL     1      25.927   1.386  52.769  1.00  0.00     0.014 C 
HETATM    5  C5  UNL     1      24.593   1.441  52.690  1.00  0.00     0.023 C 
HETATM    6  C6  UNL     1      24.417   2.926  52.543  1.00  0.00     0.010 C 
HETATM    7  N3  UNL     1      23.907   0.143  52.712  1.00  0.00    -0.359 N 
HETATM    8  C7  UNL     1      23.487   3.896  52.424  1.00  0.00     0.052 C 
HETATM    9  C8  UNL     1      22.166   4.689  52.321  1.00  0.00     0.155 C 
HETATM   10  O2  UNL     1      21.324   3.849  51.418  1.00  0.00    -0.363 OA
HETATM   11  C11 UNL     1      21.484   2.468  51.839  1.00  0.00     0.134 A 
HETATM   12  C12 UNL     1      20.862   2.070  52.962  1.00  0.00     0.086 A 
HETATM   13  C18 UNL     1      22.318   2.192  50.795  1.00  0.00     0.080 A 
HETATM   14  C16 UNL     1      21.778   1.106  52.229  1.00  0.00     0.089 A 
HETATM   15  C13 UNL     1      21.168   0.726  53.343  1.00  0.00     0.128 A 
HETATM   16  N1  UNL     1      20.790   0.161  54.485  1.00  0.00    -0.266 NA
HETATM   17  C15 UNL     1      22.441   0.114  53.012  1.00  0.00     0.172 A 
HETATM   18  C14 UNL     1      21.625  -0.797  55.023  1.00  0.00     0.225 A 
HETATM   19  N2  UNL     1      22.603  -0.752  54.066  1.00  0.00    -0.247 NA
HETATM   20  C17 UNL     1      22.585   0.916  51.179  1.00  0.00     0.028 A 
HETATM   21  H23 UNL     1      24.558  -0.630  52.488  1.00  0.00     0.162 HD
BRANCH   9  22
HETATM   22  C9  UNL     1      22.515   5.942  51.677  1.00  0.00     0.199 C 
BRANCH  22  23
HETATM   23  O1  UNL     1      23.852   6.205  51.575  1.00  0.00    -0.393 OA
HETATM   24  C10 UNL     1      23.964   7.449  50.910  1.00  0.00     0.201 C 
ENDBRANCH  22  23
ENDBRANCH   9  22
BRANCH  13  25
HETATM   25  O3  UNL     1      22.819   2.710  49.754  1.00  0.00    -0.350 OA
BRANCH  25  26
HETATM   26  C19 UNL     1      23.328   3.235  48.679  1.00  0.00     0.201 C 
BRANCH  26  27
HETATM   27  C20 UNL     1      24.533   4.140  49.009  1.00  0.00     0.193 C 
BRANCH  27  28
HETATM   28  O4  UNL     1      25.565   3.340  49.438  1.00  0.00    -0.394 OA
HETATM   29  C21 UNL     1      26.808   3.973  49.336  1.00  0.00     0.201 C 
ENDBRANCH  27  28
ENDBRANCH  26  27
ENDBRANCH  25  26
ENDBRANCH  13  25
ENDBRANCH   3   4
TORSDOF 7
ENDMDL
MODEL 3
REMARK VINA RESULT:      -6.9      2.646      5.292
REMARK  7 active torsions:
REMARK  status: ('A' for Active; 'I' for Inactive)
REMARK    1  A    between atoms: C3_3  and  C4_4 
REMARK    2  A    between atoms: C8_8  and  C9_9 
REMARK    3  A    between atoms: C9_9  and  O1_10 
REMARK    4  A    between atoms: C18_22  and  O3_23 
REMARK    5  A    between atoms: O3_23  and  C19_24 
REMARK    6  A    between atoms: C19_24  and  C20_25 
REMARK    7  A    between atoms: C20_25  and  O4_26 
ROOT
HETATM    1  C1  UNL     1      29.647   6.553  48.026  1.00  0.00     0.012 C 
HETATM    2  C2  UNL     1      28.478   6.255  48.139  1.00  0.00    -0.114 C 
HETATM    3  C3  UNL     1      27.046   5.863  48.273  1.00  0.00     0.122 C 
ENDROOT
BRANCH   3   4
HETATM    4  C4  UNL     1      26.956   4.707  49.158  1.00  0.00     0.014 C 
HETATM    5  C5  UNL     1      26.239   4.089  50.103  1.00  0.00     0.023 C 
HETATM    6  C6  UNL     1      25.097   5.058  50.217  1.00  0.00     0.010 C 
HETATM    7  N3  UNL     1      26.776   2.800  50.558  1.00  0.00    -0.359 N 
HETATM    8  C7  UNL     1      23.950   5.299  50.885  1.00  0.00     0.052 C 
HETATM    9  C8  UNL     1      22.742   5.232  51.845  1.00  0.00     0.155 C 
HETATM   10  O2  UNL     1      22.362   3.788  51.826  1.00  0.00    -0.363 OA
HETATM   11  C11 UNL     1      23.588   3.017  51.911  1.00  0.00     0.134 A 
HETATM   12  C12 UNL     1      24.214   2.945  53.099  1.00  0.00     0.086 A 
HETATM   13  C18 UNL     1      23.553   2.716  50.580  1.00  0.00     0.080 A 
HETATM   14  C16 UNL     1      24.850   2.308  51.877  1.00  0.00     0.089 A 
HETATM   15  C13 UNL     1      25.463   2.251  53.050  1.00  0.00     0.128 A 
HETATM   16  N1  UNL     1      26.325   2.177  54.060  1.00  0.00    -0.266 NA
HETATM   17  C15 UNL     1      26.275   2.232  51.849  1.00  0.00     0.172 A 
HETATM   18  C14 UNL     1      27.665   2.094  53.743  1.00  0.00     0.225 A 
HETATM   19  N2  UNL     1      27.538   2.142  52.381  1.00  0.00    -0.247 NA
HETATM   20  C17 UNL     1      24.742   2.057  50.567  1.00  0.00     0.028 A 
HETATM   21  H23 UNL     1      27.461   2.419  49.882  1.00  0.00     0.162 HD
BRANCH   9  22
HETATM   22  C9  UNL     1      21.708   6.041  51.225  1.00  0.00     0.199 C 
BRANCH  22  23
HETATM   23  O1  UNL     1      22.071   7.317  50.895  1.00  0.00    -0.393 OA
HETATM   24  C10 UNL     1      21.066   7.806  50.027  1.00  0.00     0.201 C 
ENDBRANCH  22  23
ENDBRANCH   9  22
BRANCH  13  25
HETATM   25  O3  UNL     1      22.841   2.859  49.544  1.00  0.00    -0.350 OA
BRANCH  25  26
HETATM   26  C19 UNL     1      22.118   3.004  48.472  1.00  0.00     0.201 C 
BRANCH  26  27
HETATM   27  C20 UNL     1      20.710   2.402  48.657  1.00  0.00     0.193 C 
BRANCH  27  28
HETATM   28  O4  UNL     1      20.850   1.126  49.149  1.00  0.00    -0.394 OA
HETATM   29  C21 UNL     1      20.121   0.926  50.325  1.00  0.00     0.201 C 
ENDBRANCH  27  28
ENDBRANCH  26  27
ENDBRANCH  25  26
ENDBRANCH  13  25
ENDBRANCH   3   4
TORSDOF 7
ENDMDL
MODEL 4
REMARK VINA RESULT:      -6.7      8.042     10.150
REMARK  7 active torsions:
REMARK  status: ('A' for Active; 'I' for Inactive)
REMARK    1  A    between atoms: C3_3  and  C4_4 
REMARK    2  A    between atoms: C8_8  and  C9_9 
REMARK    3  A    between atoms: C9_9  and  O1_10 
REMARK    4  A    between atoms: C18_22  and  O3_23 
REMARK    5  A    between atoms: O3_23  and  C19_24 
REMARK    6  A    between atoms: C19_24  and  C20_25 
REMARK    7  A    between atoms: C20_25  and  O4_26 
ROOT
HETATM    1  C1  UNL     1      26.537   3.610  49.514  1.00  0.00     0.012 C 
HETATM    2  C2  UNL     1      27.026   4.574  48.965  1.00  0.00    -0.114 C 
HETATM    3  C3  UNL     1      27.642   5.763  48.311  1.00  0.00     0.122 C 
ENDROOT
BRANCH   3   4
HETATM    4  C4  UNL     1      29.092   5.671  48.439  1.00  0.00     0.014 C 
HETATM    5  C5  UNL     1      30.272   6.159  48.041  1.00  0.00     0.023 C 
HETATM    6  C6  UNL     1      29.791   7.216  47.088  1.00  0.00     0.010 C 
HETATM    7  N3  UNL     1      31.449   5.564  48.687  1.00  0.00    -0.359 N 
HETATM    8  C7  UNL     1      30.214   8.165  46.227  1.00  0.00     0.052 C 
HETATM    9  C8  UNL     1      31.065   9.113  45.355  1.00  0.00     0.155 C 
HETATM   10  O2  UNL     1      32.175   9.524  46.266  1.00  0.00    -0.363 OA
HETATM   11  C11 UNL     1      32.628   8.333  46.960  1.00  0.00     0.134 A 
HETATM   12  C12 UNL     1      33.375   7.446  46.280  1.00  0.00     0.086 A 
HETATM   13  C18 UNL     1      31.980   8.691  48.107  1.00  0.00     0.080 A 
HETATM   14  C16 UNL     1      32.952   7.134  47.705  1.00  0.00     0.089 A 
HETATM   15  C13 UNL     1      33.680   6.262  47.022  1.00  0.00     0.128 A 
HETATM   16  N1  UNL     1      34.279   5.188  46.517  1.00  0.00    -0.266 NA
HETATM   17  C15 UNL     1      32.789   5.759  48.051  1.00  0.00     0.172 A 
HETATM   18  C14 UNL     1      33.943   3.964  47.058  1.00  0.00     0.225 A 
HETATM   19  N2  UNL     1      33.028   4.409  47.974  1.00  0.00    -0.247 NA
HETATM   20  C17 UNL     1      32.291   7.557  48.788  1.00  0.00     0.028 A 
HETATM   21  H23 UNL     1      31.190   5.069  49.559  1.00  0.00     0.162 HD
BRANCH   9  22
HETATM   22  C9  UNL     1      30.204  10.242  45.054  1.00  0.00     0.199 C 
BRANCH  22  23
HETATM   23  O1  UNL     1      30.479  11.396  45.733  1.00  0.00    -0.393 OA
HETATM   24  C10 UNL     1      30.139  12.460  44.864  1.00  0.00     0.201 C 
ENDBRANCH  22  23
ENDBRANCH   9  22
BRANCH  13  25
HETATM   25  O3  UNL     1      31.291   9.624  48.613  1.00  0.00    -0.350 OA
BRANCH  25  26
HETATM   26  C19 UNL     1      30.589  10.591  49.127  1.00  0.00     0.201 C 
BRANCH  26  27
HETATM   27  C20 UNL     1      29.077  10.331  48.977  1.00  0.00     0.193 C 
BRANCH  27  28
HETATM   28  O4  UNL     1      28.752   9.237  49.744  1.00  0.00    -0.394 OA
HETATM   29  C21 UNL     1      27.409   9.240  50.133  1.00  0.00     0.201 C 
ENDBRANCH  27  28
ENDBRANCH  26  27
ENDBRANCH  25  26
ENDBRANCH  13  25
ENDBRANCH   3   4
TORSDOF 7
ENDMDL
MODEL 5
REMARK VINA RESULT:      -6.6      2.922      5.786
REMARK  7 active torsions:
REMARK  status: ('A' for Active; 'I' for Inactive)
REMARK    1  A    between atoms: C3_3  and  C4_4 
REMARK    2  A    between atoms: C8_8  and  C9_9 
REMARK    3  A    between atoms: C9_9  and  O1_10 
REMARK    4  A    between atoms: C18_22  and  O3_23 
REMARK    5  A    between atoms: O3_23  and  C19_24 
REMARK    6  A    between atoms: C19_24  and  C20_25 
REMARK    7  A    between atoms: C20_25  and  O4_26 
ROOT
HETATM    1  C1  UNL     1      30.593   5.669  48.126  1.00  0.00     0.012 C 
HETATM    2  C2  UNL     1      29.383   5.750  48.129  1.00  0.00    -0.114 C 
HETATM    3  C3  UNL     1      27.895   5.824  48.128  1.00  0.00     0.122 C 
ENDROOT
BRANCH   3   4
HETATM    4  C4  UNL     1      27.368   4.718  48.920  1.00  0.00     0.014 C 
HETATM    5  C5  UNL     1      26.400   4.312  49.749  1.00  0.00     0.023 C 
HETATM    6  C6  UNL     1      25.592   5.576  49.820  1.00  0.00     0.010 C 
HETATM    7  N3  UNL     1      26.477   2.906  50.165  1.00  0.00    -0.359 N 
HETATM    8  C7  UNL     1      24.502   6.129  50.392  1.00  0.00     0.052 C 
HETATM    9  C8  UNL     1      23.230   6.395  51.226  1.00  0.00     0.155 C 
HETATM   10  O2  UNL     1      22.443   5.135  51.074  1.00  0.00    -0.363 OA
HETATM   11  C11 UNL     1      23.368   4.026  51.222  1.00  0.00     0.134 A 
HETATM   12  C12 UNL     1      23.809   3.726  52.456  1.00  0.00     0.086 A 
HETATM   13  C18 UNL     1      23.392   3.799  49.876  1.00  0.00     0.080 A 
HETATM   14  C16 UNL     1      24.358   2.971  51.259  1.00  0.00     0.089 A 
HETATM   15  C13 UNL     1      24.793   2.689  52.479  1.00  0.00     0.128 A 
HETATM   16  N1  UNL     1      25.476   2.321  53.558  1.00  0.00    -0.266 NA
HETATM   17  C15 UNL     1      25.690   2.469  51.361  1.00  0.00     0.172 A 
HETATM   18  C14 UNL     1      26.758   1.849  53.364  1.00  0.00     0.225 A 
HETATM   19  N2  UNL     1      26.803   1.983  52.002  1.00  0.00    -0.247 NA
HETATM   20  C17 UNL     1      24.326   2.812  49.931  1.00  0.00     0.028 A 
HETATM   21  H23 UNL     1      27.088   2.359  49.532  1.00  0.00     0.162 HD
BRANCH   9  22
HETATM   22  C9  UNL     1      22.558   7.501  50.567  1.00  0.00     0.199 C 
BRANCH  22  23
HETATM   23  O1  UNL     1      21.236   7.661  50.875  1.00  0.00    -0.393 OA
HETATM   24  C10 UNL     1      20.554   7.798  49.643  1.00  0.00     0.201 C 
ENDBRANCH  22  23
ENDBRANCH   9  22
BRANCH  13  25
HETATM   25  O3  UNL     1      22.874   4.188  48.789  1.00  0.00    -0.350 OA
BRANCH  25  26
HETATM   26  C19 UNL     1      22.352   4.588  47.667  1.00  0.00     0.201 C 
BRANCH  26  27
HETATM   27  C20 UNL     1      22.835   6.005  47.294  1.00  0.00     0.193 C 
BRANCH  27  28
HETATM   28  O4  UNL     1      22.608   6.195  45.951  1.00  0.00    -0.394 OA
HETATM   29  C21 UNL     1      21.915   5.128  45.372  1.00  0.00     0.201 C 
ENDBRANCH  27  28
ENDBRANCH  26  27
ENDBRANCH  25  26
ENDBRANCH  13  25
ENDBRANCH   3   4
TORSDOF 7
ENDMDL
MODEL 6
REMARK VINA RESULT:      -6.4      2.471      5.203
REMARK  7 active torsions:
REMARK  status: ('A' for Active; 'I' for Inactive)
REMARK    1  A    between atoms: C3_3  and  C4_4 
REMARK    2  A    between atoms: C8_8  and  C9_9 
REMARK    3  A    between atoms: C9_9  and  O1_10 
REMARK    4  A    between atoms: C18_22  and  O3_23 
REMARK    5  A    between atoms: O3_23  and  C19_24 
REMARK    6  A    between atoms: C19_24  and  C20_25 
REMARK    7  A    between atoms: C20_25  and  O4_26 
ROOT
HETATM    1  C1  UNL     1      26.691   8.290  49.978  1.00  0.00     0.012 C 
HETATM    2  C2  UNL     1      26.391   7.305  49.340  1.00  0.00    -0.114 C 
HETATM    3  C3  UNL     1      26.043   6.083  48.560  1.00  0.00     0.122 C 
ENDROOT
BRANCH   3   4
HETATM    4  C4  UNL     1      26.353   4.907  49.366  1.00  0.00     0.014 C 
HETATM    5  C5  UNL     1      25.920   4.071  50.316  1.00  0.00     0.023 C 
HETATM    6  C6  UNL     1      24.572   4.678  50.582  1.00  0.00     0.010 C 
HETATM    7  N3  UNL     1      26.827   2.962  50.639  1.00  0.00    -0.359 N 
HETATM    8  C7  UNL     1      23.468   4.560  51.348  1.00  0.00     0.052 C 
HETATM    9  C8  UNL     1      22.416   4.115  52.388  1.00  0.00     0.155 C 
HETATM   10  O2  UNL     1      22.445   2.624  52.296  1.00  0.00    -0.363 OA
HETATM   11  C11 UNL     1      23.838   2.221  52.236  1.00  0.00     0.134 A 
HETATM   12  C12 UNL     1      24.564   2.271  53.366  1.00  0.00     0.086 A 
HETATM   13  C18 UNL     1      23.766   1.985  50.894  1.00  0.00     0.080 A 
HETATM   14  C16 UNL     1      25.237   1.893  52.059  1.00  0.00     0.089 A 
HETATM   15  C13 UNL     1      25.945   1.954  53.177  1.00  0.00     0.128 A 
HETATM   16  N1  UNL     1      26.882   2.075  54.112  1.00  0.00    -0.266 NA
HETATM   17  C15 UNL     1      26.620   2.217  51.920  1.00  0.00     0.172 A 
HETATM   18  C14 UNL     1      28.160   2.383  53.692  1.00  0.00     0.225 A 
HETATM   19  N2  UNL     1      27.902   2.457  52.349  1.00  0.00    -0.247 NA
HETATM   20  C17 UNL     1      25.083   1.683  50.746  1.00  0.00     0.028 A 
HETATM   21  H23 UNL     1      27.526   2.818  49.888  1.00  0.00     0.162 HD
BRANCH   9  22
HETATM   22  C9  UNL     1      21.149   4.633  51.904  1.00  0.00     0.199 C 
BRANCH  22  23
HETATM   23  O1  UNL     1      20.127   3.729  51.833  1.00  0.00    -0.393 OA
HETATM   24  C10 UNL     1      19.120   4.329  51.039  1.00  0.00     0.201 C 
ENDBRANCH  22  23
ENDBRANCH   9  22
BRANCH  13  25
HETATM   25  O3  UNL     1      22.950   1.973  49.925  1.00  0.00    -0.350 OA
BRANCH  25  26
HETATM   26  C19 UNL     1      22.105   1.956  48.937  1.00  0.00     0.201 C 
BRANCH  26  27
HETATM   27  C20 UNL     1      21.627   3.378  48.579  1.00  0.00     0.193 C 
BRANCH  27  28
HETATM   28  O4  UNL     1      22.275   3.772  47.431  1.00  0.00    -0.394 OA
HETATM   29  C21 UNL     1      22.647   5.119  47.466  1.00  0.00     0.201 C 
ENDBRANCH  27  28
ENDBRANCH  26  27
ENDBRANCH  25  26
ENDBRANCH  13  25
ENDBRANCH   3   4
TORSDOF 7
ENDMDL
MODEL 7
REMARK VINA RESULT:      -6.3      1.842      4.755
REMARK  7 active torsions:
REMARK  status: ('A' for Active; 'I' for Inactive)
REMARK    1  A    between atoms: C3_3  and  C4_4 
REMARK    2  A    between atoms: C8_8  and  C9_9 
REMARK    3  A    between atoms: C9_9  and  O1_10 
REMARK    4  A    between atoms: C18_22  and  O3_23 
REMARK    5  A    between atoms: O3_23  and  C19_24 
REMARK    6  A    between atoms: C19_24  and  C20_25 
REMARK    7  A    between atoms: C20_25  and  O4_26 
ROOT
HETATM    1  C1  UNL     1      26.684   3.439  49.349  1.00  0.00     0.012 C 
HETATM    2  C2  UNL     1      26.738   2.984  50.471  1.00  0.00    -0.114 C 
HETATM    3  C3  UNL     1      26.780   2.432  51.854  1.00  0.00     0.122 C 
ENDROOT
BRANCH   3   4
HETATM    4  C4  UNL     1      25.618   1.572  52.052  1.00  0.00     0.014 C 
HETATM    5  C5  UNL     1      24.287   1.520  52.177  1.00  0.00     0.023 C 
HETATM    6  C6  UNL     1      23.972   2.983  52.043  1.00  0.00     0.010 C 
HETATM    7  N3  UNL     1      23.721   0.173  52.316  1.00  0.00    -0.359 N 
HETATM    8  C7  UNL     1      22.958   3.874  52.058  1.00  0.00     0.052 C 
HETATM    9  C8  UNL     1      21.577   4.557  52.149  1.00  0.00     0.155 C 
HETATM   10  O2  UNL     1      20.680   3.633  51.393  1.00  0.00    -0.363 OA
HETATM   11  C11 UNL     1      21.013   2.279  51.798  1.00  0.00     0.134 A 
HETATM   12  C12 UNL     1      20.602   1.858  53.007  1.00  0.00     0.086 A 
HETATM   13  C18 UNL     1      21.700   2.046  50.642  1.00  0.00     0.080 A 
HETATM   14  C16 UNL     1      21.472   0.953  52.153  1.00  0.00     0.089 A 
HETATM   15  C13 UNL     1      21.071   0.552  53.351  1.00  0.00     0.128 A 
HETATM   16  N1  UNL     1      20.917  -0.016  54.543  1.00  0.00    -0.266 NA
HETATM   17  C15 UNL     1      22.324   0.034  52.837  1.00  0.00     0.172 A 
HETATM   18  C14 UNL     1      21.898  -0.892  54.958  1.00  0.00     0.225 A 
HETATM   19  N2  UNL     1      22.713  -0.792  53.862  1.00  0.00    -0.247 NA
HETATM   20  C17 UNL     1      22.125   0.804  50.995  1.00  0.00     0.028 A 
HETATM   21  H23 UNL     1      24.391  -0.551  52.004  1.00  0.00     0.162 HD
BRANCH   9  22
HETATM   22  C9  UNL     1      21.721   5.819  51.446  1.00  0.00     0.199 C 
BRANCH  22  23
HETATM   23  O1  UNL     1      20.808   6.055  50.457  1.00  0.00    -0.393 OA
HETATM   24  C10 UNL     1      21.154   7.303  49.885  1.00  0.00     0.201 C 
ENDBRANCH  22  23
ENDBRANCH   9  22
BRANCH  13  25
HETATM   25  O3  UNL     1      21.994   2.579  49.532  1.00  0.00    -0.350 OA
BRANCH  25  26
HETATM   26  C19 UNL     1      22.308   3.125  48.395  1.00  0.00     0.201 C 
BRANCH  26  27
HETATM   27  C20 UNL     1      23.259   4.324  48.588  1.00  0.00     0.193 C 
BRANCH  27  28
HETATM   28  O4  UNL     1      22.997   5.243  47.600  1.00  0.00    -0.394 OA
HETATM   29  C21 UNL     1      21.784   4.996  46.951  1.00  0.00     0.201 C 
ENDBRANCH  27  28
ENDBRANCH  26  27
ENDBRANCH  25  26
ENDBRANCH  13  25
ENDBRANCH   3   4
TORSDOF 7
ENDMDL
MODEL 8
REMARK VINA RESULT:      -6.3      2.420      5.504
REMARK  7 active torsions:
REMARK  status: ('A' for Active; 'I' for Inactive)
REMARK    1  A    between atoms: C3_3  and  C4_4 
REMARK    2  A    between atoms: C8_8  and  C9_9 
REMARK    3  A    between atoms: C9_9  and  O1_10 
REMARK    4  A    between atoms: C18_22  and  O3_23 
REMARK    5  A    between atoms: O3_23  and  C19_24 
REMARK    6  A    between atoms: C19_24  and  C20_25 
REMARK    7  A    between atoms: C20_25  and  O4_26 
ROOT
HETATM    1  C1  UNL     1      25.188   5.070  49.787  1.00  0.00     0.012 C 
HETATM    2  C2  UNL     1      24.568   4.896  50.814  1.00  0.00    -0.114 C 
HETATM    3  C3  UNL     1      23.790   4.668  52.065  1.00  0.00     0.122 C 
ENDROOT
BRANCH   3   4
HETATM    4  C4  UNL     1      23.520   3.241  52.196  1.00  0.00     0.014 C 
HETATM    5  C5  UNL     1      22.579   2.291  52.232  1.00  0.00     0.023 C 
HETATM    6  C6  UNL     1      21.358   3.148  52.059  1.00  0.00     0.010 C 
HETATM    7  N3  UNL     1      23.078   0.915  52.351  1.00  0.00    -0.359 N 
HETATM    8  C7  UNL     1      20.010   3.107  51.995  1.00  0.00     0.052 C 
HETATM    9  C8  UNL     1      18.532   2.660  51.985  1.00  0.00     0.155 C 
HETATM   10  O2  UNL     1      18.554   1.400  51.183  1.00  0.00    -0.363 OA
HETATM   11  C11 UNL     1      19.697   0.625  51.627  1.00  0.00     0.134 A 
HETATM   12  C12 UNL     1      19.617  -0.007  52.811  1.00  0.00     0.086 A 
HETATM   13  C18 UNL     1      20.423   0.965  50.522  1.00  0.00     0.080 A 
HETATM   14  C16 UNL     1      20.917  -0.043  52.029  1.00  0.00     0.089 A 
HETATM   15  C13 UNL     1      20.830  -0.654  53.202  1.00  0.00     0.128 A 
HETATM   16  N1  UNL     1      21.038  -1.216  54.388  1.00  0.00    -0.266 NA
HETATM   17  C15 UNL     1      22.126  -0.158  52.779  1.00  0.00     0.172 A 
HETATM   18  C14 UNL     1      22.327  -1.202  54.879  1.00  0.00     0.225 A 
HETATM   19  N2  UNL     1      22.915  -0.533  53.839  1.00  0.00    -0.247 NA
HETATM   20  C17 UNL     1      21.561   0.335  50.918  1.00  0.00     0.028 A 
HETATM   21  H23 UNL     1      24.079   0.855  52.093  1.00  0.00     0.162 HD
BRANCH   9  22
HETATM   22  C9  UNL     1      17.816   3.706  51.277  1.00  0.00     0.199 C 
BRANCH  22  23
HETATM   23  O1  UNL     1      16.816   4.319  51.978  1.00  0.00    -0.393 OA
HETATM   24  C10 UNL     1      15.642   4.184  51.199  1.00  0.00     0.201 C 
ENDBRANCH  22  23
ENDBRANCH   9  22
BRANCH  13  25
HETATM   25  O3  UNL     1      20.338   1.595  49.427  1.00  0.00    -0.350 OA
BRANCH  25  26
HETATM   26  C19 UNL     1      20.248   2.232  48.297  1.00  0.00     0.201 C 
BRANCH  26  27
HETATM   27  C20 UNL     1      21.633   2.692  47.798  1.00  0.00     0.193 C 
BRANCH  27  28
HETATM   28  O4  UNL     1      22.138   3.595  48.704  1.00  0.00    -0.394 OA
HETATM   29  C21 UNL     1      21.581   4.868  48.553  1.00  0.00     0.201 C 
ENDBRANCH  27  28
ENDBRANCH  26  27
ENDBRANCH  25  26
ENDBRANCH  13  25
ENDBRANCH   3   4
TORSDOF 7
ENDMDL
MODEL 9
REMARK VINA RESULT:      -6.3      7.874     10.119
REMARK  7 active torsions:
REMARK  status: ('A' for Active; 'I' for Inactive)
REMARK    1  A    between atoms: C3_3  and  C4_4 
REMARK    2  A    between atoms: C8_8  and  C9_9 
REMARK    3  A    between atoms: C9_9  and  O1_10 
REMARK    4  A    between atoms: C18_22  and  O3_23 
REMARK    5  A    between atoms: O3_23  and  C19_24 
REMARK    6  A    between atoms: C19_24  and  C20_25 
REMARK    7  A    between atoms: C20_25  and  O4_26 
ROOT
HETATM    1  C1  UNL     1      25.321   5.096  49.886  1.00  0.00     0.012 C 
HETATM    2  C2  UNL     1      25.997   5.730  49.104  1.00  0.00    -0.114 C 
HETATM    3  C3  UNL     1      26.842   6.516  48.162  1.00  0.00     0.122 C 
ENDROOT
BRANCH   3   4
HETATM    4  C4  UNL     1      28.245   6.231  48.440  1.00  0.00     0.014 C 
HETATM    5  C5  UNL     1      29.516   6.546  48.163  1.00  0.00     0.023 C 
HETATM    6  C6  UNL     1      29.284   7.639  47.158  1.00  0.00     0.010 C 
HETATM    7  N3  UNL     1      30.528   5.810  48.931  1.00  0.00    -0.359 N 
HETATM    8  C7  UNL     1      29.917   8.504  46.340  1.00  0.00     0.052 C 
HETATM    9  C8  UNL     1      30.975   9.309  45.554  1.00  0.00     0.155 C 
HETATM   10  O2  UNL     1      32.032   9.585  46.572  1.00  0.00    -0.363 OA
HETATM   11  C11 UNL     1      32.245   8.358  47.318  1.00  0.00     0.134 A 
HETATM   12  C12 UNL     1      32.928   7.364  46.724  1.00  0.00     0.086 A 
HETATM   13  C18 UNL     1      31.538   8.824  48.388  1.00  0.00     0.080 A 
HETATM   14  C16 UNL     1      32.324   7.142  48.099  1.00  0.00     0.089 A 
HETATM   15  C13 UNL     1      32.991   6.165  47.502  1.00  0.00     0.128 A 
HETATM   16  N1  UNL     1      33.486   5.010  47.068  1.00  0.00    -0.266 NA
HETATM   17  C15 UNL     1      31.940   5.809  48.435  1.00  0.00     0.172 A 
HETATM   18  C14 UNL     1      32.932   3.854  47.579  1.00  0.00     0.225 A 
HETATM   19  N2  UNL     1      31.998   4.438  48.393  1.00  0.00    -0.247 NA
HETATM   20  C17 UNL     1      31.621   7.672  49.106  1.00  0.00     0.028 A 
HETATM   21  H23 UNL     1      30.116   5.374  49.774  1.00  0.00     0.162 HD
BRANCH   9  22
HETATM   22  C9  UNL     1      30.312  10.538  45.158  1.00  0.00     0.199 C 
BRANCH  22  23
HETATM   23  O1  UNL     1      29.135  10.810  45.798  1.00  0.00    -0.393 OA
HETATM   24  C10 UNL     1      28.638  12.006  45.227  1.00  0.00     0.201 C 
ENDBRANCH  22  23
ENDBRANCH   9  22
BRANCH  13  25
HETATM   25  O3  UNL     1      30.936   9.852  48.815  1.00  0.00    -0.350 OA
BRANCH  25  26
HETATM   26  C19 UNL     1      30.310  10.908  49.245  1.00  0.00     0.201 C 
BRANCH  26  27
HETATM   27  C20 UNL     1      30.945  12.202  48.697  1.00  0.00     0.193 C 
BRANCH  27  28
HETATM   28  O4  UNL     1      29.932  13.068  48.359  1.00  0.00    -0.394 OA
HETATM   29  C21 UNL     1      28.718  12.728  48.963  1.00  0.00     0.201 C 
ENDBRANCH  27  28
ENDBRANCH  26  27
ENDBRANCH  25  26
ENDBRANCH  13  25
ENDBRANCH   3   4
TORSDOF 7
ENDMDL
