MODEL 1
REMARK VINA RESULT:      -8.5      0.000      0.000
REMARK  4 active torsions:
REMARK  status: ('A' for Active; 'I' for Inactive)
REMARK    1  A    between atoms: C1_2  and  C2_3 
REMARK    2  A    between atoms: C2_3  and  C3_4 
REMARK    3  A    between atoms: C5_6  and  O2_7 
REMARK    4  A    between atoms: C9_12  and  C10_13 
ROOT
HETATM    1  C3  UNL     1      26.179   0.585  53.111  1.00  0.00    -0.046 A 
HETATM    2  C4  UNL     1      26.259  -0.157  54.272  1.00  0.00     0.045 A 
HETATM    3  C5  UNL     1      25.136  -0.733  54.806  1.00  0.00     0.083 A 
HETATM    4  C6  UNL     1      23.930  -0.570  54.182  1.00  0.00     0.081 A 
HETATM    5  C7  UNL     1      22.739  -1.107  54.637  1.00  0.00     0.190 A 
HETATM    6  O3  UNL     1      22.747  -1.793  55.689  1.00  0.00    -0.287 OA
HETATM    7  C8  UNL     1      21.594  -0.860  53.903  1.00  0.00     0.094 A 
HETATM    8  C9  UNL     1      21.541  -0.121  52.756  1.00  0.00     0.090 A 
HETATM    9  O4  UNL     1      22.689   0.374  52.352  1.00  0.00    -0.309 OA
HETATM   10  C16 UNL     1      23.799   0.164  53.019  1.00  0.00     0.093 A 
HETATM   11  C17 UNL     1      24.961   0.740  52.495  1.00  0.00     0.045 A 
ENDROOT
BRANCH   8  12
HETATM   12  C10 UNL     1      20.309   0.116  52.011  1.00  0.00    -0.002 A 
HETATM   13  C11 UNL     1      19.047  -0.272  52.416  1.00  0.00     0.014 A 
HETATM   14  C12 UNL     1      17.920  -0.016  51.660  1.00  0.00     0.001 A 
HETATM   15  C13 UNL     1      18.015   0.656  50.445  1.00  0.00     0.000 A 
HETATM   16  C14 UNL     1      19.272   1.047  50.034  1.00  0.00     0.001 A 
HETATM   17  C15 UNL     1      20.384   0.780  50.804  1.00  0.00     0.014 A 
ENDBRANCH   8  12
BRANCH   3  18
HETATM   18  O2  UNL     1      25.144  -1.490  55.966  1.00  0.00    -0.360 OA
HETATM   19  H5  UNL     1      24.783  -1.152  56.852  1.00  0.00     0.217 HD
ENDBRANCH   3  18
BRANCH   1  20
HETATM   20  C2  UNL     1      27.424   1.186  52.576  1.00  0.00     0.107 C 
BRANCH  20  21
HETATM   21  C1  UNL     1      28.349   1.589  53.676  1.00  0.00     0.235 C 
HETATM   22  O1  UNL     1      28.521   2.529  52.939  1.00  0.00    -0.307 OA
ENDBRANCH  20  21
ENDBRANCH   1  20
TORSDOF 4
ENDMDL
MODEL 2
REMARK VINA RESULT:      -8.3      1.829      3.673
REMARK  4 active torsions:
REMARK  status: ('A' for Active; 'I' for Inactive)
REMARK    1  A    between atoms: C1_2  and  C2_3 
REMARK    2  A    between atoms: C2_3  and  C3_4 
REMARK    3  A    between atoms: C5_6  and  O2_7 
REMARK    4  A    between atoms: C9_12  and  C10_13 
ROOT
HETATM    1  C3  UNL     1      27.661   0.463  53.778  1.00  0.00    -0.046 A 
HETATM    2  C4  UNL     1      27.969   1.499  52.920  1.00  0.00     0.045 A 
HETATM    3  C5  UNL     1      26.987   2.100  52.178  1.00  0.00     0.083 A 
HETATM    4  C6  UNL     1      25.693   1.670  52.291  1.00  0.00     0.081 A 
HETATM    5  C7  UNL     1      24.630   2.207  51.588  1.00  0.00     0.190 A 
HETATM    6  O3  UNL     1      24.846   3.153  50.790  1.00  0.00    -0.287 OA
HETATM    7  C8  UNL     1      23.374   1.671  51.804  1.00  0.00     0.094 A 
HETATM    8  C9  UNL     1      23.094   0.645  52.660  1.00  0.00     0.090 A 
HETATM    9  O4  UNL     1      24.126   0.159  53.311  1.00  0.00    -0.309 OA
HETATM   10  C16 UNL     1      25.335   0.637  53.137  1.00  0.00     0.093 A 
HETATM   11  C17 UNL     1      26.357   0.042  53.882  1.00  0.00     0.045 A 
ENDROOT
BRANCH   8  12
HETATM   12  C10 UNL     1      21.751   0.108  52.858  1.00  0.00    -0.002 A 
HETATM   13  C11 UNL     1      20.626   0.504  52.162  1.00  0.00     0.014 A 
HETATM   14  C12 UNL     1      19.383  -0.046  52.400  1.00  0.00     0.001 A 
HETATM   15  C13 UNL     1      19.214  -1.036  53.364  1.00  0.00     0.000 A 
HETATM   16  C14 UNL     1      20.334  -1.437  54.063  1.00  0.00     0.001 A 
HETATM   17  C15 UNL     1      21.566  -0.874  53.810  1.00  0.00     0.014 A 
ENDBRANCH   8  12
BRANCH   3  18
HETATM   18  O2  UNL     1      27.225   3.143  51.298  1.00  0.00    -0.360 OA
HETATM   19  H5  UNL     1      27.370   3.009  50.303  1.00  0.00     0.217 HD
ENDBRANCH   3  18
BRANCH   1  20
HETATM   20  C2  UNL     1      28.760  -0.152  54.558  1.00  0.00     0.107 C 
BRANCH  20  21
HETATM   21  C1  UNL     1      29.868  -0.611  53.667  1.00  0.00     0.235 C 
HETATM   22  O1  UNL     1      29.311  -1.670  53.828  1.00  0.00    -0.307 OA
ENDBRANCH  20  21
ENDBRANCH   1  20
TORSDOF 4
ENDMDL
MODEL 3
REMARK VINA RESULT:      -8.1      1.785      6.536
REMARK  4 active torsions:
REMARK  status: ('A' for Active; 'I' for Inactive)
REMARK    1  A    between atoms: C1_2  and  C2_3 
REMARK    2  A    between atoms: C2_3  and  C3_4 
REMARK    3  A    between atoms: C5_6  and  O2_7 
REMARK    4  A    between atoms: C9_12  and  C10_13 
ROOT
HETATM    1  C3  UNL     1      21.089   1.217  52.380  1.00  0.00    -0.046 A 
HETATM    2  C4  UNL     1      20.471   0.331  53.240  1.00  0.00     0.045 A 
HETATM    3  C5  UNL     1      21.217  -0.462  54.071  1.00  0.00     0.083 A 
HETATM    4  C6  UNL     1      22.583  -0.374  54.046  1.00  0.00     0.081 A 
HETATM    5  C7  UNL     1      23.426  -1.130  54.841  1.00  0.00     0.190 A 
HETATM    6  O3  UNL     1      22.924  -1.954  55.645  1.00  0.00    -0.287 OA
HETATM    7  C8  UNL     1      24.788  -0.934  54.709  1.00  0.00     0.094 A 
HETATM    8  C9  UNL     1      25.375  -0.051  53.850  1.00  0.00     0.090 A 
HETATM    9  O4  UNL     1      24.546   0.649  53.110  1.00  0.00    -0.309 OA
HETATM   10  C16 UNL     1      23.246   0.496  53.203  1.00  0.00     0.093 A 
HETATM   11  C17 UNL     1      22.461   1.295  52.367  1.00  0.00     0.045 A 
ENDROOT
BRANCH   8  12
HETATM   12  C10 UNL     1      26.820   0.124  53.742  1.00  0.00    -0.002 A 
HETATM   13  C11 UNL     1      27.732  -0.895  53.550  1.00  0.00     0.014 A 
HETATM   14  C12 UNL     1      29.089  -0.660  53.457  1.00  0.00     0.001 A 
HETATM   15  C13 UNL     1      29.596   0.633  53.552  1.00  0.00     0.000 A 
HETATM   16  C14 UNL     1      28.691   1.656  53.744  1.00  0.00     0.001 A 
HETATM   17  C15 UNL     1      27.340   1.399  53.835  1.00  0.00     0.014 A 
ENDBRANCH   8  12
BRANCH   3  18
HETATM   18  O2  UNL     1      20.665  -1.372  54.957  1.00  0.00    -0.360 OA
HETATM   19  H5  UNL     1      20.090  -2.154  54.665  1.00  0.00     0.217 HD
ENDBRANCH   3  18
BRANCH   1  20
HETATM   20  C2  UNL     1      20.236   2.053  51.503  1.00  0.00     0.107 C 
BRANCH  20  21
HETATM   21  C1  UNL     1      20.578   3.501  51.632  1.00  0.00     0.235 C 
HETATM   22  O1  UNL     1      19.596   3.482  52.334  1.00  0.00    -0.307 OA
ENDBRANCH  20  21
ENDBRANCH   1  20
TORSDOF 4
ENDMDL
MODEL 4
REMARK VINA RESULT:      -8.0      3.273      6.318
REMARK  4 active torsions:
REMARK  status: ('A' for Active; 'I' for Inactive)
REMARK    1  A    between atoms: C1_2  and  C2_3 
REMARK    2  A    between atoms: C2_3  and  C3_4 
REMARK    3  A    between atoms: C5_6  and  O2_7 
REMARK    4  A    between atoms: C9_12  and  C10_13 
ROOT
HETATM    1  C3  UNL     1      22.726   0.199  53.436  1.00  0.00    -0.046 A 
HETATM    2  C4  UNL     1      23.725  -0.648  53.870  1.00  0.00     0.045 A 
HETATM    3  C5  UNL     1      25.025  -0.440  53.489  1.00  0.00     0.083 A 
HETATM    4  C6  UNL     1      25.330   0.615  52.672  1.00  0.00     0.081 A 
HETATM    5  C7  UNL     1      26.607   0.911  52.229  1.00  0.00     0.190 A 
HETATM    6  O3  UNL     1      27.560   0.177  52.590  1.00  0.00    -0.287 OA
HETATM    7  C8  UNL     1      26.767   2.011  51.406  1.00  0.00     0.094 A 
HETATM    8  C9  UNL     1      25.761   2.834  50.990  1.00  0.00     0.090 A 
HETATM    9  O4  UNL     1      24.562   2.523  51.428  1.00  0.00    -0.309 OA
HETATM   10  C16 UNL     1      24.365   1.489  52.211  1.00  0.00     0.093 A 
HETATM   11  C17 UNL     1      23.047   1.254  52.616  1.00  0.00     0.045 A 
ENDROOT
BRANCH   8  12
HETATM   12  C10 UNL     1      25.974   3.985  50.119  1.00  0.00    -0.002 A 
HETATM   13  C11 UNL     1      27.099   4.202  49.348  1.00  0.00     0.014 A 
HETATM   14  C12 UNL     1      27.237   5.316  48.545  1.00  0.00     0.001 A 
HETATM   15  C13 UNL     1      26.232   6.276  48.479  1.00  0.00     0.000 A 
HETATM   16  C14 UNL     1      25.104   6.067  49.246  1.00  0.00     0.001 A 
HETATM   17  C15 UNL     1      24.987   4.947  50.042  1.00  0.00     0.014 A 
ENDBRANCH   8  12
BRANCH   3  18
HETATM   18  O2  UNL     1      26.076  -1.248  53.886  1.00  0.00    -0.360 OA
HETATM   19  H5  UNL     1      26.033  -2.262  53.876  1.00  0.00     0.217 HD
ENDBRANCH   3  18
BRANCH   1  20
HETATM   20  C2  UNL     1      21.338  -0.070  53.879  1.00  0.00     0.107 C 
BRANCH  20  21
HETATM   21  C1  UNL     1      21.221  -1.418  54.511  1.00  0.00     0.235 C 
HETATM   22  O1  UNL     1      20.186  -1.418  53.889  1.00  0.00    -0.307 OA
ENDBRANCH  20  21
ENDBRANCH   1  20
TORSDOF 4
ENDMDL
MODEL 5
REMARK VINA RESULT:      -8.0      2.435      6.182
REMARK  4 active torsions:
REMARK  status: ('A' for Active; 'I' for Inactive)
REMARK    1  A    between atoms: C1_2  and  C2_3 
REMARK    2  A    between atoms: C2_3  and  C3_4 
REMARK    3  A    between atoms: C5_6  and  O2_7 
REMARK    4  A    between atoms: C9_12  and  C10_13 
ROOT
HETATM    1  C3  UNL     1      19.977  -0.813  53.402  1.00  0.00    -0.046 A 
HETATM    2  C4  UNL     1      20.611  -1.515  54.408  1.00  0.00     0.045 A 
HETATM    3  C5  UNL     1      21.958  -1.368  54.614  1.00  0.00     0.083 A 
HETATM    4  C6  UNL     1      22.676  -0.520  53.816  1.00  0.00     0.081 A 
HETATM    5  C7  UNL     1      24.036  -0.301  53.939  1.00  0.00     0.190 A 
HETATM    6  O3  UNL     1      24.670  -0.910  54.836  1.00  0.00    -0.287 OA
HETATM    7  C8  UNL     1      24.631   0.587  53.061  1.00  0.00     0.094 A 
HETATM    8  C9  UNL     1      23.982   1.269  52.074  1.00  0.00     0.090 A 
HETATM    9  O4  UNL     1      22.692   1.037  51.985  1.00  0.00    -0.309 OA
HETATM   10  C16 UNL     1      22.087   0.203  52.797  1.00  0.00     0.093 A 
HETATM   11  C17 UNL     1      20.712   0.035  52.609  1.00  0.00     0.045 A 
ENDROOT
BRANCH   8  12
HETATM   12  C10 UNL     1      24.649   2.197  51.167  1.00  0.00    -0.002 A 
HETATM   13  C11 UNL     1      24.015   2.988  50.229  1.00  0.00     0.014 A 
HETATM   14  C12 UNL     1      24.709   3.846  49.400  1.00  0.00     0.001 A 
HETATM   15  C13 UNL     1      26.094   3.951  49.481  1.00  0.00     0.000 A 
HETATM   16  C14 UNL     1      26.735   3.164  50.416  1.00  0.00     0.001 A 
HETATM   17  C15 UNL     1      26.023   2.313  51.233  1.00  0.00     0.014 A 
ENDBRANCH   8  12
BRANCH   3  18
HETATM   18  O2  UNL     1      22.657  -2.040  55.602  1.00  0.00    -0.360 OA
HETATM   19  H5  UNL     1      22.906  -1.618  56.491  1.00  0.00     0.217 HD
ENDBRANCH   3  18
BRANCH   1  20
HETATM   20  C2  UNL     1      18.519  -1.008  53.223  1.00  0.00     0.107 C 
BRANCH  20  21
HETATM   21  C1  UNL     1      18.092  -2.363  53.683  1.00  0.00     0.235 C 
HETATM   22  O1  UNL     1      17.087  -2.045  53.094  1.00  0.00    -0.307 OA
ENDBRANCH  20  21
ENDBRANCH   1  20
TORSDOF 4
ENDMDL
MODEL 6
REMARK VINA RESULT:      -8.0      4.211      7.016
REMARK  4 active torsions:
REMARK  status: ('A' for Active; 'I' for Inactive)
REMARK    1  A    between atoms: C1_2  and  C2_3 
REMARK    2  A    between atoms: C2_3  and  C3_4 
REMARK    3  A    between atoms: C5_6  and  O2_7 
REMARK    4  A    between atoms: C9_12  and  C10_13 
ROOT
HETATM    1  C3  UNL     1      26.260   0.297  52.406  1.00  0.00    -0.046 A 
HETATM    2  C4  UNL     1      24.890   0.328  52.577  1.00  0.00     0.045 A 
HETATM    3  C5  UNL     1      24.143   1.323  52.003  1.00  0.00     0.083 A 
HETATM    4  C6  UNL     1      24.760   2.290  51.258  1.00  0.00     0.081 A 
HETATM    5  C7  UNL     1      24.099   3.336  50.639  1.00  0.00     0.190 A 
HETATM    6  O3  UNL     1      22.851   3.419  50.757  1.00  0.00    -0.287 OA
HETATM    7  C8  UNL     1      24.854   4.241  49.916  1.00  0.00     0.094 A 
HETATM    8  C9  UNL     1      26.209   4.188  49.762  1.00  0.00     0.090 A 
HETATM    9  O4  UNL     1      26.805   3.183  50.363  1.00  0.00    -0.309 OA
HETATM   10  C16 UNL     1      26.127   2.301  51.059  1.00  0.00     0.093 A 
HETATM   11  C17 UNL     1      26.866   1.274  51.654  1.00  0.00     0.045 A 
ENDROOT
BRANCH   8  12
HETATM   12  C10 UNL     1      26.968   5.166  48.989  1.00  0.00    -0.002 A 
HETATM   13  C11 UNL     1      28.293   5.036  48.623  1.00  0.00     0.014 A 
HETATM   14  C12 UNL     1      28.953   6.002  47.890  1.00  0.00     0.001 A 
HETATM   15  C13 UNL     1      28.296   7.160  47.484  1.00  0.00     0.000 A 
HETATM   16  C14 UNL     1      26.972   7.298  47.846  1.00  0.00     0.001 A 
HETATM   17  C15 UNL     1      26.333   6.320  48.579  1.00  0.00     0.014 A 
ENDBRANCH   8  12
BRANCH   3  18
HETATM   18  O2  UNL     1      22.767   1.416  52.133  1.00  0.00    -0.360 OA
HETATM   19  H5  UNL     1      22.298   1.520  53.027  1.00  0.00     0.217 HD
ENDBRANCH   3  18
BRANCH   1  20
HETATM   20  C2  UNL     1      27.020  -0.802  53.047  1.00  0.00     0.107 C 
BRANCH  20  21
HETATM   21  C1  UNL     1      28.304  -0.307  53.627  1.00  0.00     0.235 C 
HETATM   22  O1  UNL     1      27.698  -0.493  54.655  1.00  0.00    -0.307 OA
ENDBRANCH  20  21
ENDBRANCH   1  20
TORSDOF 4
ENDMDL
MODEL 7
REMARK VINA RESULT:      -7.9      1.366      2.011
REMARK  4 active torsions:
REMARK  status: ('A' for Active; 'I' for Inactive)
REMARK    1  A    between atoms: C1_2  and  C2_3 
REMARK    2  A    between atoms: C2_3  and  C3_4 
REMARK    3  A    between atoms: C5_6  and  O2_7 
REMARK    4  A    between atoms: C9_12  and  C10_13 
ROOT
HETATM    1  C3  UNL     1      24.667   1.258  52.628  1.00  0.00    -0.046 A 
HETATM    2  C4  UNL     1      25.204   0.487  53.640  1.00  0.00     0.045 A 
HETATM    3  C5  UNL     1      24.415  -0.393  54.333  1.00  0.00     0.083 A 
HETATM    4  C6  UNL     1      23.088  -0.507  54.018  1.00  0.00     0.081 A 
HETATM    5  C7  UNL     1      22.207  -1.362  54.656  1.00  0.00     0.190 A 
HETATM    6  O3  UNL     1      22.635  -2.090  55.586  1.00  0.00    -0.287 OA
HETATM    7  C8  UNL     1      20.892  -1.372  54.230  1.00  0.00     0.094 A 
HETATM    8  C9  UNL     1      20.386  -0.599  53.226  1.00  0.00     0.090 A 
HETATM    9  O4  UNL     1      21.249   0.202  52.643  1.00  0.00    -0.309 OA
HETATM   10  C16 UNL     1      22.506   0.243  53.014  1.00  0.00     0.093 A 
HETATM   11  C17 UNL     1      23.334   1.132  52.323  1.00  0.00     0.045 A 
ENDROOT
BRANCH   8  12
HETATM   12  C10 UNL     1      18.988  -0.640  52.808  1.00  0.00    -0.002 A 
HETATM   13  C11 UNL     1      18.405   0.215  51.893  1.00  0.00     0.014 A 
HETATM   14  C12 UNL     1      17.074   0.121  51.542  1.00  0.00     0.001 A 
HETATM   15  C13 UNL     1      16.256  -0.854  52.105  1.00  0.00     0.000 A 
HETATM   16  C14 UNL     1      16.830  -1.711  53.021  1.00  0.00     0.001 A 
HETATM   17  C15 UNL     1      18.162  -1.600  53.357  1.00  0.00     0.014 A 
ENDBRANCH   8  12
BRANCH   3  18
HETATM   18  O2  UNL     1      24.885  -1.196  55.359  1.00  0.00    -0.360 OA
HETATM   19  H5  UNL     1      24.394  -2.020  55.690  1.00  0.00     0.217 HD
ENDBRANCH   3  18
BRANCH   1  20
HETATM   20  C2  UNL     1      25.564   2.193  51.910  1.00  0.00     0.107 C 
BRANCH  20  21
HETATM   21  C1  UNL     1      26.847   1.531  51.529  1.00  0.00     0.235 C 
HETATM   22  O1  UNL     1      27.206   2.681  51.452  1.00  0.00    -0.307 OA
ENDBRANCH  20  21
ENDBRANCH   1  20
TORSDOF 4
ENDMDL
MODEL 8
REMARK VINA RESULT:      -7.6      1.364      2.208
REMARK  4 active torsions:
REMARK  status: ('A' for Active; 'I' for Inactive)
REMARK    1  A    between atoms: C1_2  and  C2_3 
REMARK    2  A    between atoms: C2_3  and  C3_4 
REMARK    3  A    between atoms: C5_6  and  O2_7 
REMARK    4  A    between atoms: C9_12  and  C10_13 
ROOT
HETATM    1  C3  UNL     1      25.820  -0.108  54.431  1.00  0.00    -0.046 A 
HETATM    2  C4  UNL     1      25.127  -0.906  55.319  1.00  0.00     0.045 A 
HETATM    3  C5  UNL     1      23.797  -1.172  55.120  1.00  0.00     0.083 A 
HETATM    4  C6  UNL     1      23.156  -0.642  54.034  1.00  0.00     0.081 A 
HETATM    5  C7  UNL     1      21.819  -0.848  53.744  1.00  0.00     0.190 A 
HETATM    6  O3  UNL     1      21.134  -1.566  54.514  1.00  0.00    -0.287 OA
HETATM    7  C8  UNL     1      21.304  -0.248  52.609  1.00  0.00     0.094 A 
HETATM    8  C9  UNL     1      22.010   0.538  51.746  1.00  0.00     0.090 A 
HETATM    9  O4  UNL     1      23.276   0.713  52.052  1.00  0.00    -0.309 OA
HETATM   10  C16 UNL     1      23.806   0.162  53.119  1.00  0.00     0.093 A 
HETATM   11  C17 UNL     1      25.162   0.417  53.345  1.00  0.00     0.045 A 
ENDROOT
BRANCH   8  12
HETATM   12  C10 UNL     1      21.426   1.153  50.559  1.00  0.00    -0.002 A 
HETATM   13  C11 UNL     1      22.130   1.542  49.436  1.00  0.00     0.014 A 
HETATM   14  C12 UNL     1      21.514   2.121  48.345  1.00  0.00     0.001 A 
HETATM   15  C13 UNL     1      20.139   2.335  48.334  1.00  0.00     0.000 A 
HETATM   16  C14 UNL     1      19.428   1.949  49.452  1.00  0.00     0.001 A 
HETATM   17  C15 UNL     1      20.064   1.373  50.531  1.00  0.00     0.014 A 
ENDBRANCH   8  12
BRANCH   3  18
HETATM   18  O2  UNL     1      23.042  -1.964  55.969  1.00  0.00    -0.360 OA
HETATM   19  H5  UNL     1      22.918  -2.962  55.836  1.00  0.00     0.217 HD
ENDBRANCH   3  18
BRANCH   1  20
HETATM   20  C2  UNL     1      27.256   0.147  54.692  1.00  0.00     0.107 C 
BRANCH  20  21
HETATM   21  C1  UNL     1      27.780   1.243  53.824  1.00  0.00     0.235 C 
HETATM   22  O1  UNL     1      28.543   1.363  54.751  1.00  0.00    -0.307 OA
ENDBRANCH  20  21
ENDBRANCH   1  20
TORSDOF 4
ENDMDL
MODEL 9
REMARK VINA RESULT:      -7.6      3.606      6.903
REMARK  4 active torsions:
REMARK  status: ('A' for Active; 'I' for Inactive)
REMARK    1  A    between atoms: C1_2  and  C2_3 
REMARK    2  A    between atoms: C2_3  and  C3_4 
REMARK    3  A    between atoms: C5_6  and  O2_7 
REMARK    4  A    between atoms: C9_12  and  C10_13 
ROOT
HETATM    1  C3  UNL     1      25.463   4.362  49.860  1.00  0.00    -0.046 A 
HETATM    2  C4  UNL     1      24.125   4.266  50.186  1.00  0.00     0.045 A 
HETATM    3  C5  UNL     1      23.674   3.239  50.973  1.00  0.00     0.083 A 
HETATM    4  C6  UNL     1      24.559   2.304  51.438  1.00  0.00     0.081 A 
HETATM    5  C7  UNL     1      24.208   1.230  52.236  1.00  0.00     0.190 A 
HETATM    6  O3  UNL     1      23.004   1.089  52.567  1.00  0.00    -0.287 OA
HETATM    7  C8  UNL     1      25.210   0.364  52.633  1.00  0.00     0.094 A 
HETATM    8  C9  UNL     1      26.528   0.481  52.297  1.00  0.00     0.090 A 
HETATM    9  O4  UNL     1      26.825   1.511  51.538  1.00  0.00    -0.309 OA
HETATM   10  C16 UNL     1      25.907   2.358  51.139  1.00  0.00     0.093 A 
HETATM   11  C17 UNL     1      26.339   3.416  50.335  1.00  0.00     0.045 A 
ENDROOT
BRANCH   8  12
HETATM   12  C10 UNL     1      27.554  -0.459  52.737  1.00  0.00    -0.002 A 
HETATM   13  C11 UNL     1      28.752  -0.108  53.328  1.00  0.00     0.014 A 
HETATM   14  C12 UNL     1      29.682  -1.050  53.722  1.00  0.00     0.001 A 
HETATM   15  C13 UNL     1      29.442  -2.408  53.536  1.00  0.00     0.000 A 
HETATM   16  C14 UNL     1      28.248  -2.766  52.946  1.00  0.00     0.001 A 
HETATM   17  C15 UNL     1      27.333  -1.809  52.561  1.00  0.00     0.014 A 
ENDBRANCH   8  12
BRANCH   3  18
HETATM   18  O2  UNL     1      22.348   3.081  51.338  1.00  0.00    -0.360 OA
HETATM   19  H5  UNL     1      22.052   2.883  52.288  1.00  0.00     0.217 HD
ENDBRANCH   3  18
BRANCH   1  20
HETATM   20  C2  UNL     1      25.897   5.493  49.007  1.00  0.00     0.107 C 
BRANCH  20  21
HETATM   21  C1  UNL     1      27.327   5.350  48.601  1.00  0.00     0.235 C 
HETATM   22  O1  UNL     1      27.173   6.515  48.323  1.00  0.00    -0.307 OA
ENDBRANCH  20  21
ENDBRANCH   1  20
TORSDOF 4
ENDMDL
