MODEL 1
REMARK VINA RESULT:      -7.3      0.000      0.000
REMARK  10 active torsions:
REMARK  status: ('A' for Active; 'I' for Inactive)
REMARK    1  A    between atoms: C2_2  and  P1_3 
REMARK    2  A    between atoms: P1_3  and  C3_4 
REMARK    3  A    between atoms: C3_4  and  C4_5 
REMARK    4  A    between atoms: C4_5  and  C5_6 
REMARK    5  A    between atoms: C6_8  and  N2_9 
REMARK    6  A    between atoms: C9_12  and  C10_13 
REMARK    7  A    between atoms: C10_13  and  N3_14 
REMARK    8  A    between atoms: N3_14  and  C11_15 
REMARK    9  A    between atoms: C11_15  and  C12_16 
REMARK   10  A    between atoms: C18_23  and  N4_24 
ROOT
HETATM    1  N2  UNL     1      26.102   4.277  49.563  1.00  0.00    -0.311 N 
HETATM    2  C7  UNL     1      26.573   2.931  49.846  1.00  0.00     0.159 C 
HETATM    3  C8  UNL     1      25.847   2.370  51.015  1.00  0.00     0.027 C 
HETATM    4  C9  UNL     1      24.834   2.837  51.727  1.00  0.00     0.066 C 
HETATM    5  O1  UNL     1      24.413   4.081  51.251  1.00  0.00    -0.303 OA
HETATM    6  C18 UNL     1      24.747   4.565  49.989  1.00  0.00     0.470 C 
ENDROOT
BRANCH   1   7
HETATM    7  C6  UNL     1      26.927   5.263  48.904  1.00  0.00     0.125 A 
HETATM    8  N1  UNL     1      28.303   5.160  48.566  1.00  0.00    -0.240 NA
HETATM    9  C5  UNL     1      28.738   6.225  47.982  1.00  0.00     0.021 A 
HETATM   10  C20 UNL     1      27.619   7.204  47.867  1.00  0.00     0.086 A 
HETATM   11  C19 UNL     1      26.488   6.453  48.508  1.00  0.00     0.029 A 
BRANCH   9  12
HETATM   12  C4  UNL     1      30.126   6.479  47.485  1.00  0.00     0.083 C 
BRANCH  12  13
HETATM   13  C3  UNL     1      31.062   5.489  48.078  1.00  0.00    -0.009 C 
BRANCH  13  14
HETATM   14  P1  UNL     1      32.289   4.485  47.615  1.00  0.00    -0.066 P 
BRANCH  14  15
HETATM   15  C2  UNL     1      31.954   2.999  46.521  1.00  0.00     0.038 C 
HETATM   16  C1  UNL     1      32.747   1.823  47.055  1.00  0.00     0.010 C 
ENDBRANCH  14  15
ENDBRANCH  13  14
ENDBRANCH  12  13
ENDBRANCH   9  12
ENDBRANCH   1   7
BRANCH   6  17
HETATM   17  N4  UNL     1      23.874   4.082  48.939  1.00  0.00     0.127 N 
HETATM   18  H29 UNL     1      23.432   3.150  49.178  1.00  0.00     0.318 HD
HETATM   19  H30 UNL     1      23.128   4.813  48.777  1.00  0.00     0.318 HD
ENDBRANCH   6  17
BRANCH   4  20
HETATM   20  C10 UNL     1      24.137   2.202  52.918  1.00  0.00     0.178 C 
BRANCH  20  21
HETATM   21  N3  UNL     1      24.057   0.820  52.697  1.00  0.00    -0.415 N 
HETATM   22  H14 UNL     1      23.305   0.542  52.005  1.00  0.00     0.153 HD
BRANCH  21  23
HETATM   23  C11 UNL     1      24.300  -0.134  53.686  1.00  0.00     0.118 C 
BRANCH  23  24
HETATM   24  C12 UNL     1      25.651  -0.694  53.931  1.00  0.00     0.003 C 
HETATM   25  C13 UNL     1      26.396  -0.854  52.574  1.00  0.00     0.006 C 
HETATM   26  C14 UNL     1      27.708  -1.505  52.868  1.00  0.00     0.000 C 
HETATM   27  C15 UNL     1      28.585  -0.483  53.576  1.00  0.00     0.000 C 
HETATM   28  C16 UNL     1      27.755   0.680  54.032  1.00  0.00     0.000 C 
HETATM   29  C17 UNL     1      26.521   0.214  54.783  1.00  0.00     0.006 C 
ENDBRANCH  23  24
ENDBRANCH  21  23
ENDBRANCH  20  21
ENDBRANCH   4  20
TORSDOF 10
ENDMDL
MODEL 2
REMARK VINA RESULT:      -7.2      2.448      3.193
REMARK  10 active torsions:
REMARK  status: ('A' for Active; 'I' for Inactive)
REMARK    1  A    between atoms: C2_2  and  P1_3 
REMARK    2  A    between atoms: P1_3  and  C3_4 
REMARK    3  A    between atoms: C3_4  and  C4_5 
REMARK    4  A    between atoms: C4_5  and  C5_6 
REMARK    5  A    between atoms: C6_8  and  N2_9 
REMARK    6  A    between atoms: C9_12  and  C10_13 
REMARK    7  A    between atoms: C10_13  and  N3_14 
REMARK    8  A    between atoms: N3_14  and  C11_15 
REMARK    9  A    between atoms: C11_15  and  C12_16 
REMARK   10  A    between atoms: C18_23  and  N4_24 
ROOT
HETATM    1  N2  UNL     1      24.802   3.608  50.749  1.00  0.00    -0.311 N 
HETATM    2  C7  UNL     1      23.790   2.735  50.177  1.00  0.00     0.159 C 
HETATM    3  C8  UNL     1      23.436   1.661  51.140  1.00  0.00     0.027 C 
HETATM    4  C9  UNL     1      23.801   1.451  52.395  1.00  0.00     0.066 C 
HETATM    5  O1  UNL     1      24.675   2.446  52.840  1.00  0.00    -0.303 OA
HETATM    6  C18 UNL     1      24.824   3.671  52.197  1.00  0.00     0.470 C 
ENDROOT
BRANCH   1   7
HETATM    7  C6  UNL     1      25.727   4.360  49.933  1.00  0.00     0.125 A 
HETATM    8  N1  UNL     1      25.639   5.725  49.550  1.00  0.00    -0.240 NA
HETATM    9  C5  UNL     1      26.634   6.087  48.814  1.00  0.00     0.021 A 
HETATM   10  C20 UNL     1      27.543   4.919  48.624  1.00  0.00     0.086 A 
HETATM   11  C19 UNL     1      26.837   3.850  49.407  1.00  0.00     0.029 A 
BRANCH   9  12
HETATM   12  C4  UNL     1      26.879   7.440  48.228  1.00  0.00     0.083 C 
BRANCH  12  13
HETATM   13  C3  UNL     1      28.283   7.853  48.486  1.00  0.00    -0.009 C 
BRANCH  13  14
HETATM   14  P1  UNL     1      29.128   9.161  49.037  1.00  0.00    -0.066 P 
BRANCH  14  15
HETATM   15  C2  UNL     1      30.999   9.114  49.160  1.00  0.00     0.038 C 
HETATM   16  C1  UNL     1      31.429   7.676  49.368  1.00  0.00     0.010 C 
ENDBRANCH  14  15
ENDBRANCH  13  14
ENDBRANCH  12  13
ENDBRANCH   9  12
ENDBRANCH   1   7
BRANCH   6  17
HETATM   17  N4  UNL     1      23.823   4.646  52.580  1.00  0.00     0.127 N 
HETATM   18  H29 UNL     1      23.805   5.483  51.933  1.00  0.00     0.318 HD
HETATM   19  H30 UNL     1      22.884   4.161  52.582  1.00  0.00     0.318 HD
ENDBRANCH   6  17
BRANCH   4  20
HETATM   20  C10 UNL     1      23.394   0.323  53.327  1.00  0.00     0.178 C 
BRANCH  20  21
HETATM   21  N3  UNL     1      24.421  -0.631  53.340  1.00  0.00    -0.415 N 
HETATM   22  H14 UNL     1      24.084  -1.622  53.175  1.00  0.00     0.153 HD
BRANCH  21  23
HETATM   23  C11 UNL     1      25.546  -0.543  54.162  1.00  0.00     0.118 C 
BRANCH  23  24
HETATM   24  C12 UNL     1      26.864  -0.092  53.653  1.00  0.00     0.003 C 
HETATM   25  C13 UNL     1      27.830   0.129  54.853  1.00  0.00     0.006 C 
HETATM   26  C14 UNL     1      29.106   0.670  54.294  1.00  0.00     0.000 C 
HETATM   27  C15 UNL     1      29.802  -0.459  53.549  1.00  0.00     0.000 C 
HETATM   28  C16 UNL     1      28.852  -1.600  53.339  1.00  0.00     0.000 C 
HETATM   29  C17 UNL     1      27.535  -1.120  52.757  1.00  0.00     0.006 C 
ENDBRANCH  23  24
ENDBRANCH  21  23
ENDBRANCH  20  21
ENDBRANCH   4  20
TORSDOF 10
ENDMDL
MODEL 3
REMARK VINA RESULT:      -7.2      1.467      2.438
REMARK  10 active torsions:
REMARK  status: ('A' for Active; 'I' for Inactive)
REMARK    1  A    between atoms: C2_2  and  P1_3 
REMARK    2  A    between atoms: P1_3  and  C3_4 
REMARK    3  A    between atoms: C3_4  and  C4_5 
REMARK    4  A    between atoms: C4_5  and  C5_6 
REMARK    5  A    between atoms: C6_8  and  N2_9 
REMARK    6  A    between atoms: C9_12  and  C10_13 
REMARK    7  A    between atoms: C10_13  and  N3_14 
REMARK    8  A    between atoms: N3_14  and  C11_15 
REMARK    9  A    between atoms: C11_15  and  C12_16 
REMARK   10  A    between atoms: C18_23  and  N4_24 
ROOT
HETATM    1  N2  UNL     1      26.164   4.298  49.504  1.00  0.00    -0.311 N 
HETATM    2  C7  UNL     1      26.461   2.890  49.709  1.00  0.00     0.159 C 
HETATM    3  C8  UNL     1      25.686   2.367  50.864  1.00  0.00     0.027 C 
HETATM    4  C9  UNL     1      24.751   2.923  51.620  1.00  0.00     0.066 C 
HETATM    5  O1  UNL     1      24.489   4.234  51.215  1.00  0.00    -0.303 OA
HETATM    6  C18 UNL     1      24.864   4.736  49.972  1.00  0.00     0.470 C 
ENDROOT
BRANCH   1   7
HETATM    7  C6  UNL     1      27.100   5.203  48.878  1.00  0.00     0.125 A 
HETATM    8  N1  UNL     1      28.473   4.973  48.590  1.00  0.00    -0.240 NA
HETATM    9  C5  UNL     1      29.025   5.992  48.025  1.00  0.00     0.021 A 
HETATM   10  C20 UNL     1      28.005   7.071  47.870  1.00  0.00     0.086 A 
HETATM   11  C19 UNL     1      26.787   6.428  48.467  1.00  0.00     0.029 A 
BRANCH   9  12
HETATM   12  C4  UNL     1      30.447   6.117  47.580  1.00  0.00     0.083 C 
BRANCH  12  13
HETATM   13  C3  UNL     1      31.276   6.653  48.691  1.00  0.00    -0.009 C 
BRANCH  13  14
HETATM   14  P1  UNL     1      31.676   8.103  49.375  1.00  0.00    -0.066 P 
BRANCH  14  15
HETATM   15  C2  UNL     1      30.458   9.529  49.387  1.00  0.00     0.038 C 
HETATM   16  C1  UNL     1      30.952  10.588  48.422  1.00  0.00     0.010 C 
ENDBRANCH  14  15
ENDBRANCH  13  14
ENDBRANCH  12  13
ENDBRANCH   9  12
ENDBRANCH   1   7
BRANCH   6  17
HETATM   17  N4  UNL     1      23.921   4.424  48.918  1.00  0.00     0.127 N 
HETATM   18  H29 UNL     1      23.078   5.064  48.927  1.00  0.00     0.318 HD
HETATM   19  H30 UNL     1      24.431   4.498  47.995  1.00  0.00     0.318 HD
ENDBRANCH   6  17
BRANCH   4  20
HETATM   20  C10 UNL     1      23.995   2.322  52.792  1.00  0.00     0.178 C 
BRANCH  20  21
HETATM   21  N3  UNL     1      24.013   0.926  52.660  1.00  0.00    -0.415 N 
HETATM   22  H14 UNL     1      23.315   0.556  51.954  1.00  0.00     0.153 HD
BRANCH  21  23
HETATM   23  C11 UNL     1      24.266   0.054  53.720  1.00  0.00     0.118 C 
BRANCH  23  24
HETATM   24  C12 UNL     1      25.600  -0.553  53.945  1.00  0.00     0.003 C 
HETATM   25  C13 UNL     1      26.320  -0.734  52.577  1.00  0.00     0.006 C 
HETATM   26  C14 UNL     1      27.613  -1.431  52.851  1.00  0.00     0.000 C 
HETATM   27  C15 UNL     1      28.534  -0.442  53.550  1.00  0.00     0.000 C 
HETATM   28  C16 UNL     1      27.752   0.747  54.021  1.00  0.00     0.000 C 
HETATM   29  C17 UNL     1      26.513   0.323  54.788  1.00  0.00     0.006 C 
ENDBRANCH  23  24
ENDBRANCH  21  23
ENDBRANCH  20  21
ENDBRANCH   4  20
TORSDOF 10
ENDMDL
MODEL 4
REMARK VINA RESULT:      -6.9      1.799      2.311
REMARK  10 active torsions:
REMARK  status: ('A' for Active; 'I' for Inactive)
REMARK    1  A    between atoms: C2_2  and  P1_3 
REMARK    2  A    between atoms: P1_3  and  C3_4 
REMARK    3  A    between atoms: C3_4  and  C4_5 
REMARK    4  A    between atoms: C4_5  and  C5_6 
REMARK    5  A    between atoms: C6_8  and  N2_9 
REMARK    6  A    between atoms: C9_12  and  C10_13 
REMARK    7  A    between atoms: C10_13  and  N3_14 
REMARK    8  A    between atoms: N3_14  and  C11_15 
REMARK    9  A    between atoms: C11_15  and  C12_16 
REMARK   10  A    between atoms: C18_23  and  N4_24 
ROOT
HETATM    1  N2  UNL     1      26.630   4.943  49.090  1.00  0.00    -0.311 N 
HETATM    2  C7  UNL     1      26.564   3.498  49.239  1.00  0.00     0.159 C 
HETATM    3  C8  UNL     1      25.659   3.140  50.361  1.00  0.00     0.027 C 
HETATM    4  C9  UNL     1      24.875   3.881  51.129  1.00  0.00     0.066 C 
HETATM    5  O1  UNL     1      24.955   5.231  50.778  1.00  0.00    -0.303 OA
HETATM    6  C18 UNL     1      25.470   5.672  49.563  1.00  0.00     0.470 C 
ENDROOT
BRANCH   1   7
HETATM    7  C6  UNL     1      27.775   5.610  48.515  1.00  0.00     0.125 A 
HETATM    8  N1  UNL     1      29.087   5.094  48.342  1.00  0.00    -0.240 NA
HETATM    9  C5  UNL     1      29.877   5.953  47.793  1.00  0.00     0.021 A 
HETATM   10  C20 UNL     1      29.115   7.209  47.529  1.00  0.00     0.086 A 
HETATM   11  C19 UNL     1      27.751   6.854  48.047  1.00  0.00     0.029 A 
BRANCH   9  12
HETATM   12  C4  UNL     1      31.322   5.767  47.458  1.00  0.00     0.083 C 
BRANCH  12  13
HETATM   13  C3  UNL     1      32.163   6.521  48.423  1.00  0.00    -0.009 C 
BRANCH  13  14
HETATM   14  P1  UNL     1      33.165   7.835  48.459  1.00  0.00    -0.066 P 
BRANCH  14  15
HETATM   15  C2  UNL     1      35.024   7.630  48.325  1.00  0.00     0.038 C 
HETATM   16  C1  UNL     1      35.381   6.218  48.745  1.00  0.00     0.010 C 
ENDBRANCH  14  15
ENDBRANCH  13  14
ENDBRANCH  12  13
ENDBRANCH   9  12
ENDBRANCH   1   7
BRANCH   6  17
HETATM   17  N4  UNL     1      24.502   5.645  48.485  1.00  0.00     0.127 N 
HETATM   18  H29 UNL     1      24.477   4.712  47.987  1.00  0.00     0.318 HD
HETATM   19  H30 UNL     1      23.554   5.869  48.897  1.00  0.00     0.318 HD
ENDBRANCH   6  17
BRANCH   4  20
HETATM   20  C10 UNL     1      23.968   3.442  52.266  1.00  0.00     0.178 C 
BRANCH  20  21
HETATM   21  N3  UNL     1      24.771   2.963  53.311  1.00  0.00    -0.415 N 
HETATM   22  H14 UNL     1      25.520   3.646  53.620  1.00  0.00     0.153 HD
BRANCH  21  23
HETATM   23  C11 UNL     1      25.130   1.623  53.457  1.00  0.00     0.118 C 
BRANCH  23  24
HETATM   24  C12 UNL     1      26.530   1.157  53.305  1.00  0.00     0.003 C 
HETATM   25  C13 UNL     1      26.980   0.442  54.612  1.00  0.00     0.006 C 
HETATM   26  C14 UNL     1      28.419   0.079  54.440  1.00  0.00     0.000 C 
HETATM   27  C15 UNL     1      28.492  -1.059  53.432  1.00  0.00     0.000 C 
HETATM   28  C16 UNL     1      27.181  -1.200  52.719  1.00  0.00     0.000 C 
HETATM   29  C17 UNL     1      26.695   0.137  52.190  1.00  0.00     0.006 C 
ENDBRANCH  23  24
ENDBRANCH  21  23
ENDBRANCH  20  21
ENDBRANCH   4  20
TORSDOF 10
ENDMDL
MODEL 5
REMARK VINA RESULT:      -6.9      2.500      3.510
REMARK  10 active torsions:
REMARK  status: ('A' for Active; 'I' for Inactive)
REMARK    1  A    between atoms: C2_2  and  P1_3 
REMARK    2  A    between atoms: P1_3  and  C3_4 
REMARK    3  A    between atoms: C3_4  and  C4_5 
REMARK    4  A    between atoms: C4_5  and  C5_6 
REMARK    5  A    between atoms: C6_8  and  N2_9 
REMARK    6  A    between atoms: C9_12  and  C10_13 
REMARK    7  A    between atoms: C10_13  and  N3_14 
REMARK    8  A    between atoms: N3_14  and  C11_15 
REMARK    9  A    between atoms: C11_15  and  C12_16 
REMARK   10  A    between atoms: C18_23  and  N4_24 
ROOT
HETATM    1  N2  UNL     1      26.646   5.074  49.146  1.00  0.00    -0.311 N 
HETATM    2  C7  UNL     1      25.508   5.912  49.487  1.00  0.00     0.159 C 
HETATM    3  C8  UNL     1      24.260   5.105  49.486  1.00  0.00     0.027 C 
HETATM    4  C9  UNL     1      24.053   3.806  49.333  1.00  0.00     0.066 C 
HETATM    5  O1  UNL     1      25.256   3.123  49.142  1.00  0.00    -0.303 OA
HETATM    6  C18 UNL     1      26.499   3.666  49.457  1.00  0.00     0.470 C 
ENDROOT
BRANCH   1   7
HETATM    7  C6  UNL     1      27.843   5.606  48.537  1.00  0.00     0.125 A 
HETATM    8  N1  UNL     1      29.157   5.068  48.586  1.00  0.00    -0.240 NA
HETATM    9  C5  UNL     1      30.001   5.792  47.933  1.00  0.00     0.021 A 
HETATM   10  C20 UNL     1      29.282   6.961  47.346  1.00  0.00     0.086 A 
HETATM   11  C19 UNL     1      27.875   6.722  47.815  1.00  0.00     0.029 A 
BRANCH   9  12
HETATM   12  C4  UNL     1      31.465   5.542  47.764  1.00  0.00     0.083 C 
BRANCH  12  13
HETATM   13  C3  UNL     1      31.682   4.175  47.224  1.00  0.00    -0.009 C 
BRANCH  13  14
HETATM   14  P1  UNL     1      32.841   2.997  47.210  1.00  0.00    -0.066 P 
BRANCH  14  15
HETATM   15  C2  UNL     1      34.663   3.441  47.199  1.00  0.00     0.038 C 
HETATM   16  C1  UNL     1      35.086   3.688  45.764  1.00  0.00     0.010 C 
ENDBRANCH  14  15
ENDBRANCH  13  14
ENDBRANCH  12  13
ENDBRANCH   9  12
ENDBRANCH   1   7
BRANCH   6  17
HETATM   17  N4  UNL     1      26.855   3.514  50.853  1.00  0.00     0.127 N 
HETATM   18  H29 UNL     1      27.616   4.186  51.152  1.00  0.00     0.318 HD
HETATM   19  H30 UNL     1      25.981   3.667  51.428  1.00  0.00     0.318 HD
ENDBRANCH   6  17
BRANCH   4  20
HETATM   20  C10 UNL     1      22.738   3.045  49.345  1.00  0.00     0.178 C 
BRANCH  20  21
HETATM   21  N3  UNL     1      22.448   2.686  50.669  1.00  0.00    -0.415 N 
HETATM   22  H14 UNL     1      22.084   3.488  51.257  1.00  0.00     0.153 HD
BRANCH  21  23
HETATM   23  C11 UNL     1      23.178   1.739  51.389  1.00  0.00     0.118 C 
BRANCH  23  24
HETATM   24  C12 UNL     1      22.536   0.565  52.028  1.00  0.00     0.003 C 
HETATM   25  C13 UNL     1      23.224   0.283  53.396  1.00  0.00     0.006 C 
HETATM   26  C14 UNL     1      22.606  -0.959  53.950  1.00  0.00     0.000 C 
HETATM   27  C15 UNL     1      21.189  -0.616  54.388  1.00  0.00     0.000 C 
HETATM   28  C16 UNL     1      20.784   0.713  53.826  1.00  0.00     0.000 C 
HETATM   29  C17 UNL     1      21.066   0.790  52.336  1.00  0.00     0.006 C 
ENDBRANCH  23  24
ENDBRANCH  21  23
ENDBRANCH  20  21
ENDBRANCH   4  20
TORSDOF 10
ENDMDL
MODEL 6
REMARK VINA RESULT:      -6.8      2.573      7.532
REMARK  10 active torsions:
REMARK  status: ('A' for Active; 'I' for Inactive)
REMARK    1  A    between atoms: C2_2  and  P1_3 
REMARK    2  A    between atoms: P1_3  and  C3_4 
REMARK    3  A    between atoms: C3_4  and  C4_5 
REMARK    4  A    between atoms: C4_5  and  C5_6 
REMARK    5  A    between atoms: C6_8  and  N2_9 
REMARK    6  A    between atoms: C9_12  and  C10_13 
REMARK    7  A    between atoms: C10_13  and  N3_14 
REMARK    8  A    between atoms: N3_14  and  C11_15 
REMARK    9  A    between atoms: C11_15  and  C12_16 
REMARK   10  A    between atoms: C18_23  and  N4_24 
ROOT
HETATM    1  N2  UNL     1      24.431   4.070  51.182  1.00  0.00    -0.311 N 
HETATM    2  C7  UNL     1      23.690   5.156  51.801  1.00  0.00     0.159 C 
HETATM    3  C8  UNL     1      24.218   6.466  51.338  1.00  0.00     0.027 C 
HETATM    4  C9  UNL     1      25.132   6.774  50.431  1.00  0.00     0.066 C 
HETATM    5  O1  UNL     1      25.659   5.625  49.835  1.00  0.00    -0.303 OA
HETATM    6  C18 UNL     1      25.040   4.380  49.903  1.00  0.00     0.470 C 
ENDROOT
BRANCH   1   7
HETATM    7  C6  UNL     1      24.556   2.769  51.797  1.00  0.00     0.125 A 
HETATM    8  N1  UNL     1      25.596   1.818  51.617  1.00  0.00    -0.240 NA
HETATM    9  C5  UNL     1      25.403   0.752  52.317  1.00  0.00     0.021 A 
HETATM   10  C20 UNL     1      24.130   0.901  53.082  1.00  0.00     0.086 A 
HETATM   11  C19 UNL     1      23.673   2.266  52.654  1.00  0.00     0.029 A 
BRANCH   9  12
HETATM   12  C4  UNL     1      26.281  -0.456  52.383  1.00  0.00     0.083 C 
BRANCH  12  13
HETATM   13  C3  UNL     1      27.022  -0.469  53.671  1.00  0.00    -0.009 C 
BRANCH  13  14
HETATM   14  P1  UNL     1      28.561  -0.267  54.238  1.00  0.00    -0.066 P 
BRANCH  14  15
HETATM   15  C2  UNL     1      29.436   1.383  54.076  1.00  0.00     0.038 C 
HETATM   16  C1  UNL     1      28.420   2.423  53.647  1.00  0.00     0.010 C 
ENDBRANCH  14  15
ENDBRANCH  13  14
ENDBRANCH  12  13
ENDBRANCH   9  12
ENDBRANCH   1   7
BRANCH   6  17
HETATM   17  N4  UNL     1      24.010   4.196  48.902  1.00  0.00     0.127 N 
HETATM   18  H29 UNL     1      23.036   4.211  49.316  1.00  0.00     0.318 HD
HETATM   19  H30 UNL     1      24.117   4.964  48.183  1.00  0.00     0.318 HD
ENDBRANCH   6  17
BRANCH   4  20
HETATM   20  C10 UNL     1      25.624   8.147  50.006  1.00  0.00     0.178 C 
BRANCH  20  21
HETATM   21  N3  UNL     1      27.021   8.170  50.123  1.00  0.00    -0.415 N 
HETATM   22  H14 UNL     1      27.365   8.170  51.125  1.00  0.00     0.153 HD
BRANCH  21  23
HETATM   23  C11 UNL     1      27.858   8.846  49.235  1.00  0.00     0.118 C 
BRANCH  23  24
HETATM   24  C12 UNL     1      28.701   8.135  48.243  1.00  0.00     0.003 C 
HETATM   25  C13 UNL     1      30.142   7.976  48.811  1.00  0.00     0.006 C 
HETATM   26  C14 UNL     1      30.967   7.340  47.740  1.00  0.00     0.000 C 
HETATM   27  C15 UNL     1      30.528   5.888  47.617  1.00  0.00     0.000 C 
HETATM   28  C16 UNL     1      29.233   5.678  48.341  1.00  0.00     0.000 C 
HETATM   29  C17 UNL     1      28.207   6.728  47.951  1.00  0.00     0.006 C 
ENDBRANCH  23  24
ENDBRANCH  21  23
ENDBRANCH  20  21
ENDBRANCH   4  20
TORSDOF 10
ENDMDL
MODEL 7
REMARK VINA RESULT:      -6.8      2.787      4.181
REMARK  10 active torsions:
REMARK  status: ('A' for Active; 'I' for Inactive)
REMARK    1  A    between atoms: C2_2  and  P1_3 
REMARK    2  A    between atoms: P1_3  and  C3_4 
REMARK    3  A    between atoms: C3_4  and  C4_5 
REMARK    4  A    between atoms: C4_5  and  C5_6 
REMARK    5  A    between atoms: C6_8  and  N2_9 
REMARK    6  A    between atoms: C9_12  and  C10_13 
REMARK    7  A    between atoms: C10_13  and  N3_14 
REMARK    8  A    between atoms: N3_14  and  C11_15 
REMARK    9  A    between atoms: C11_15  and  C12_16 
REMARK   10  A    between atoms: C18_23  and  N4_24 
ROOT
HETATM    1  N2  UNL     1      23.986   5.148  50.418  1.00  0.00    -0.311 N 
HETATM    2  C7  UNL     1      22.802   5.650  49.740  1.00  0.00     0.159 C 
HETATM    3  C8  UNL     1      21.580   5.044  50.329  1.00  0.00     0.027 C 
HETATM    4  C9  UNL     1      21.409   4.249  51.374  1.00  0.00     0.066 C 
HETATM    5  O1  UNL     1      22.627   3.961  51.994  1.00  0.00    -0.303 OA
HETATM    6  C18 UNL     1      23.783   4.708  51.784  1.00  0.00     0.470 C 
ENDROOT
BRANCH   1   7
HETATM    7  C6  UNL     1      25.279   5.088  49.776  1.00  0.00     0.125 A 
HETATM    8  N1  UNL     1      26.007   6.156  49.185  1.00  0.00    -0.240 NA
HETATM    9  C5  UNL     1      27.133   5.761  48.696  1.00  0.00     0.021 A 
HETATM   10  C20 UNL     1      27.274   4.294  48.932  1.00  0.00     0.086 A 
HETATM   11  C19 UNL     1      25.993   3.974  49.648  1.00  0.00     0.029 A 
BRANCH   9  12
HETATM   12  C4  UNL     1      28.160   6.597  48.002  1.00  0.00     0.083 C 
BRANCH  12  13
HETATM   13  C3  UNL     1      29.507   6.001  48.193  1.00  0.00    -0.009 C 
BRANCH  13  14
HETATM   14  P1  UNL     1      31.052   6.471  48.542  1.00  0.00    -0.066 P 
BRANCH  14  15
HETATM   15  C2  UNL     1      31.581   8.259  48.343  1.00  0.00     0.038 C 
HETATM   16  C1  UNL     1      30.794   9.102  49.327  1.00  0.00     0.010 C 
ENDBRANCH  14  15
ENDBRANCH  13  14
ENDBRANCH  12  13
ENDBRANCH   9  12
ENDBRANCH   1   7
BRANCH   6  17
HETATM   17  N4  UNL     1      23.858   5.894  52.613  1.00  0.00     0.127 N 
HETATM   18  H29 UNL     1      23.347   6.718  52.189  1.00  0.00     0.318 HD
HETATM   19  H30 UNL     1      23.450   5.654  53.559  1.00  0.00     0.318 HD
ENDBRANCH   6  17
BRANCH   4  20
HETATM   20  C10 UNL     1      20.118   3.665  51.922  1.00  0.00     0.178 C 
BRANCH  20  21
HETATM   21  N3  UNL     1      20.417   2.450  52.554  1.00  0.00    -0.415 N 
HETATM   22  H14 UNL     1      21.080   2.548  53.375  1.00  0.00     0.153 HD
BRANCH  21  23
HETATM   23  C11 UNL     1      20.530   1.235  51.876  1.00  0.00     0.118 C 
BRANCH  23  24
HETATM   24  C12 UNL     1      21.317   0.099  52.414  1.00  0.00     0.003 C 
HETATM   25  C13 UNL     1      22.671   0.628  52.969  1.00  0.00     0.006 C 
HETATM   26  C14 UNL     1      23.459  -0.563  53.410  1.00  0.00     0.000 C 
HETATM   27  C15 UNL     1      22.807  -1.110  54.671  1.00  0.00     0.000 C 
HETATM   28  C16 UNL     1      21.447  -0.505  54.852  1.00  0.00     0.000 C 
HETATM   29  C17 UNL     1      20.630  -0.598  53.576  1.00  0.00     0.006 C 
ENDBRANCH  23  24
ENDBRANCH  21  23
ENDBRANCH  20  21
ENDBRANCH   4  20
TORSDOF 10
ENDMDL
MODEL 8
REMARK VINA RESULT:      -6.6      1.926      2.950
REMARK  10 active torsions:
REMARK  status: ('A' for Active; 'I' for Inactive)
REMARK    1  A    between atoms: C2_2  and  P1_3 
REMARK    2  A    between atoms: P1_3  and  C3_4 
REMARK    3  A    between atoms: C3_4  and  C4_5 
REMARK    4  A    between atoms: C4_5  and  C5_6 
REMARK    5  A    between atoms: C6_8  and  N2_9 
REMARK    6  A    between atoms: C9_12  and  C10_13 
REMARK    7  A    between atoms: C10_13  and  N3_14 
REMARK    8  A    between atoms: N3_14  and  C11_15 
REMARK    9  A    between atoms: C11_15  and  C12_16 
REMARK   10  A    between atoms: C18_23  and  N4_24 
ROOT
HETATM    1  N2  UNL     1      24.377   4.863  49.828  1.00  0.00    -0.311 N 
HETATM    2  C7  UNL     1      23.420   4.044  49.102  1.00  0.00     0.159 C 
HETATM    3  C8  UNL     1      22.722   3.123  50.037  1.00  0.00     0.027 C 
HETATM    4  C9  UNL     1      22.760   3.014  51.355  1.00  0.00     0.066 C 
HETATM    5  O1  UNL     1      23.628   3.955  51.915  1.00  0.00    -0.303 OA
HETATM    6  C18 UNL     1      24.074   5.081  51.229  1.00  0.00     0.470 C 
ENDROOT
BRANCH   1   7
HETATM    7  C6  UNL     1      25.551   5.422  49.200  1.00  0.00     0.125 A 
HETATM    8  N1  UNL     1      26.833   4.825  49.065  1.00  0.00    -0.240 NA
HETATM    9  C5  UNL     1      27.664   5.596  48.450  1.00  0.00     0.021 A 
HETATM   10  C20 UNL     1      26.968   6.867  48.091  1.00  0.00     0.086 A 
HETATM   11  C19 UNL     1      25.591   6.626  48.638  1.00  0.00     0.029 A 
BRANCH   9  12
HETATM   12  C4  UNL     1      29.095   5.307  48.126  1.00  0.00     0.083 C 
BRANCH  12  13
HETATM   13  C3  UNL     1      29.868   6.575  48.092  1.00  0.00    -0.009 C 
BRANCH  13  14
HETATM   14  P1  UNL     1      31.131   7.299  48.874  1.00  0.00    -0.066 P 
BRANCH  14  15
HETATM   15  C2  UNL     1      31.218   9.165  49.037  1.00  0.00     0.038 C 
HETATM   16  C1  UNL     1      29.827   9.684  49.341  1.00  0.00     0.010 C 
ENDBRANCH  14  15
ENDBRANCH  13  14
ENDBRANCH  12  13
ENDBRANCH   9  12
ENDBRANCH   1   7
BRANCH   6  17
HETATM   17  N4  UNL     1      23.144   6.190  51.281  1.00  0.00     0.127 N 
HETATM   18  H29 UNL     1      23.586   7.103  50.979  1.00  0.00     0.318 HD
HETATM   19  H30 UNL     1      22.324   5.954  50.657  1.00  0.00     0.318 HD
ENDBRANCH   6  17
BRANCH   4  20
HETATM   20  C10 UNL     1      22.011   2.042  52.251  1.00  0.00     0.178 C 
BRANCH  20  21
HETATM   21  N3  UNL     1      22.553   0.762  52.064  1.00  0.00    -0.415 N 
HETATM   22  H14 UNL     1      21.932   0.114  51.502  1.00  0.00     0.153 HD
BRANCH  21  23
HETATM   23  C11 UNL     1      23.340   0.112  53.015  1.00  0.00     0.118 C 
BRANCH  23  24
HETATM   24  C12 UNL     1      24.712   0.566  53.352  1.00  0.00     0.003 C 
HETATM   25  C13 UNL     1      25.375  -0.466  54.310  1.00  0.00     0.006 C 
HETATM   26  C14 UNL     1      26.710   0.084  54.690  1.00  0.00     0.000 C 
HETATM   27  C15 UNL     1      27.615  -0.010  53.471  1.00  0.00     0.000 C 
HETATM   28  C16 UNL     1      26.799  -0.294  52.245  1.00  0.00     0.000 C 
HETATM   29  C17 UNL     1      25.620   0.654  52.137  1.00  0.00     0.006 C 
ENDBRANCH  23  24
ENDBRANCH  21  23
ENDBRANCH  20  21
ENDBRANCH   4  20
TORSDOF 10
ENDMDL
MODEL 9
REMARK VINA RESULT:      -6.4      2.703      4.076
REMARK  10 active torsions:
REMARK  status: ('A' for Active; 'I' for Inactive)
REMARK    1  A    between atoms: C2_2  and  P1_3 
REMARK    2  A    between atoms: P1_3  and  C3_4 
REMARK    3  A    between atoms: C3_4  and  C4_5 
REMARK    4  A    between atoms: C4_5  and  C5_6 
REMARK    5  A    between atoms: C6_8  and  N2_9 
REMARK    6  A    between atoms: C9_12  and  C10_13 
REMARK    7  A    between atoms: C10_13  and  N3_14 
REMARK    8  A    between atoms: N3_14  and  C11_15 
REMARK    9  A    between atoms: C11_15  and  C12_16 
REMARK   10  A    between atoms: C18_23  and  N4_24 
ROOT
HETATM    1  N2  UNL     1      27.698   6.561  48.643  1.00  0.00    -0.311 N 
HETATM    2  C7  UNL     1      26.793   5.423  48.665  1.00  0.00     0.159 C 
HETATM    3  C8  UNL     1      25.673   5.678  49.608  1.00  0.00     0.027 C 
HETATM    4  C9  UNL     1      25.339   6.752  50.306  1.00  0.00     0.066 C 
HETATM    5  O1  UNL     1      26.234   7.800  50.079  1.00  0.00    -0.303 OA
HETATM    6  C18 UNL     1      27.104   7.836  48.992  1.00  0.00     0.470 C 
ENDROOT
BRANCH   1   7
HETATM    7  C6  UNL     1      29.094   6.432  48.299  1.00  0.00     0.125 A 
HETATM    8  N1  UNL     1      30.060   7.468  48.175  1.00  0.00    -0.240 NA
HETATM    9  C5  UNL     1      31.221   7.010  47.852  1.00  0.00     0.021 A 
HETATM   10  C20 UNL     1      31.137   5.526  47.723  1.00  0.00     0.086 A 
HETATM   11  C19 UNL     1      29.691   5.272  48.040  1.00  0.00     0.029 A 
BRANCH   9  12
HETATM   12  C4  UNL     1      32.474   7.798  47.635  1.00  0.00     0.083 C 
BRANCH  12  13
HETATM   13  C3  UNL     1      33.544   7.297  48.536  1.00  0.00    -0.009 C 
BRANCH  13  14
HETATM   14  P1  UNL     1      34.877   6.322  48.484  1.00  0.00    -0.066 P 
BRANCH  14  15
HETATM   15  C2  UNL     1      34.736   4.527  47.960  1.00  0.00     0.038 C 
HETATM   16  C1  UNL     1      34.554   4.481  46.456  1.00  0.00     0.010 C 
ENDBRANCH  14  15
ENDBRANCH  13  14
ENDBRANCH  12  13
ENDBRANCH   9  12
ENDBRANCH   1   7
BRANCH   6  17
HETATM   17  N4  UNL     1      26.492   8.350  47.784  1.00  0.00     0.127 N 
HETATM   18  H29 UNL     1      26.508   7.647  46.992  1.00  0.00     0.318 HD
HETATM   19  H30 UNL     1      25.497   8.621  48.016  1.00  0.00     0.318 HD
ENDBRANCH   6  17
BRANCH   4  20
HETATM   20  C10 UNL     1      24.170   6.942  51.257  1.00  0.00     0.178 C 
BRANCH  20  21
HETATM   21  N3  UNL     1      24.211   5.921  52.216  1.00  0.00    -0.415 N 
HETATM   22  H14 UNL     1      25.191   5.670  52.529  1.00  0.00     0.153 HD
BRANCH  21  23
HETATM   23  C11 UNL     1      23.314   4.852  52.244  1.00  0.00     0.118 C 
BRANCH  23  24
HETATM   24  C12 UNL     1      23.741   3.454  51.989  1.00  0.00     0.003 C 
HETATM   25  C13 UNL     1      24.495   2.910  53.237  1.00  0.00     0.006 C 
HETATM   26  C14 UNL     1      24.981   1.540  52.892  1.00  0.00     0.000 C 
HETATM   27  C15 UNL     1      23.772   0.617  52.842  1.00  0.00     0.000 C 
HETATM   28  C16 UNL     1      22.509   1.425  52.818  1.00  0.00     0.000 C 
HETATM   29  C17 UNL     1      22.570   2.512  51.761  1.00  0.00     0.006 C 
ENDBRANCH  23  24
ENDBRANCH  21  23
ENDBRANCH  20  21
ENDBRANCH   4  20
TORSDOF 10
ENDMDL
