MODEL 1
REMARK VINA RESULT:      -8.4      0.000      0.000
REMARK  7 active torsions:
REMARK  status: ('A' for Active; 'I' for Inactive)
REMARK    1  A    between atoms: C1_2  and  N1_3 
REMARK    2  A    between atoms: C1_2  and  N3_12 
REMARK    3  A    between atoms: N1_3  and  C2_4 
REMARK    4  A    between atoms: C2_4  and  C3_5 
REMARK    5  A    between atoms: C3_5  and  N2_6 
REMARK    6  A    between atoms: N3_12  and  C8_13 
REMARK    7  A    between atoms: C13_20  and  C14_21 
ROOT
HETATM    1  C8  UNL     1      23.359   4.391  52.485  1.00  0.00     0.035 A 
HETATM    2  C9  UNL     1      21.967   4.446  52.344  1.00  0.00     0.032 A 
HETATM    3  C10 UNL     1      21.186   3.299  52.381  1.00  0.00     0.035 A 
HETATM    4  C11 UNL     1      21.769   2.069  52.559  1.00  0.00     0.070 A 
HETATM    5  N4  UNL     1      21.094   0.898  52.623  1.00  0.00    -0.241 NA
HETATM    6  C12 UNL     1      21.737  -0.273  52.814  1.00  0.00     0.234 A 
HETATM    7  N5  UNL     1      23.087  -0.304  52.946  1.00  0.00    -0.240 NA
HETATM    8  C13 UNL     1      23.829   0.835  52.891  1.00  0.00     0.081 A 
HETATM    9  C20 UNL     1      23.137   1.999  52.699  1.00  0.00     0.025 A 
HETATM   10  C21 UNL     1      23.909   3.139  52.662  1.00  0.00     0.045 A 
ENDROOT
BRANCH   1  11
HETATM   11  N3  UNL     1      24.082   5.610  52.431  1.00  0.00    -0.333 N 
HETATM   12  H14 UNL     1      24.132   5.722  53.455  1.00  0.00     0.168 HD
BRANCH  11  13
HETATM   13  C1  UNL     1      24.468   6.227  51.221  1.00  0.00     0.172 C 
HETATM   14  S1  UNL     1      23.616   7.539  50.763  1.00  0.00    -0.041 SA
BRANCH  13  15
HETATM   15  N1  UNL     1      25.533   5.775  50.405  1.00  0.00    -0.365 N 
HETATM   16  H1  UNL     1      26.523   5.926  50.702  1.00  0.00     0.161 HD
BRANCH  15  17
HETATM   17  C2  UNL     1      25.378   5.094  49.139  1.00  0.00     0.141 C 
BRANCH  17  18
HETATM   18  C3  UNL     1      24.751   3.739  49.306  1.00  0.00     0.136 C 
BRANCH  18  19
HETATM   19  N2  UNL     1      23.559   3.548  48.548  1.00  0.00    -0.407 N 
HETATM   20  C4  UNL     1      22.896   4.734  48.134  1.00  0.00     0.143 C 
HETATM   21  C5  UNL     1      21.560   4.854  48.837  1.00  0.00     0.187 C 
HETATM   22  O1  UNL     1      20.738   3.799  48.544  1.00  0.00    -0.388 OA
HETATM   23  C6  UNL     1      21.404   2.652  48.162  1.00  0.00     0.187 C 
HETATM   24  C7  UNL     1      22.674   2.529  49.011  1.00  0.00     0.143 C 
ENDBRANCH  18  19
ENDBRANCH  17  18
ENDBRANCH  15  17
ENDBRANCH  13  15
ENDBRANCH  11  13
ENDBRANCH   1  11
BRANCH   8  25
HETATM   25  C14 UNL     1      25.257   0.622  53.052  1.00  0.00    -0.005 A 
HETATM   26  C15 UNL     1      25.690  -0.692  52.940  1.00  0.00     0.015 A 
HETATM   27  C16 UNL     1      27.046  -1.014  53.057  1.00  0.00     0.026 A 
HETATM   28  C17 UNL     1      27.943  -0.002  53.287  1.00  0.00     0.055 A 
HETATM   29 CL1  UNL     1      29.661  -0.354  53.443  1.00  0.00    -0.083 Cl
HETATM   30  C18 UNL     1      27.557   1.315  53.405  1.00  0.00     0.056 A 
HETATM   31 CL2  UNL     1      28.694   2.638  53.698  1.00  0.00    -0.083 Cl
HETATM   32  C19 UNL     1      26.212   1.590  53.282  1.00  0.00     0.039 A 
ENDBRANCH   8  25
TORSDOF 7
ENDMDL
MODEL 2
REMARK VINA RESULT:      -8.4      3.142      4.276
REMARK  7 active torsions:
REMARK  status: ('A' for Active; 'I' for Inactive)
REMARK    1  A    between atoms: C1_2  and  N1_3 
REMARK    2  A    between atoms: C1_2  and  N3_12 
REMARK    3  A    between atoms: N1_3  and  C2_4 
REMARK    4  A    between atoms: C2_4  and  C3_5 
REMARK    5  A    between atoms: C3_5  and  N2_6 
REMARK    6  A    between atoms: N3_12  and  C8_13 
REMARK    7  A    between atoms: C13_20  and  C14_21 
ROOT
HETATM    1  C8  UNL     1      23.671   2.414  50.799  1.00  0.00     0.035 A 
HETATM    2  C9  UNL     1      22.272   2.428  50.857  1.00  0.00     0.032 A 
HETATM    3  C10 UNL     1      21.573   1.640  51.762  1.00  0.00     0.035 A 
HETATM    4  C11 UNL     1      22.248   0.819  52.630  1.00  0.00     0.070 A 
HETATM    5  N4  UNL     1      21.660   0.026  53.556  1.00  0.00    -0.241 NA
HETATM    6  C12 UNL     1      22.391  -0.747  54.386  1.00  0.00     0.234 A 
HETATM    7  N5  UNL     1      23.747  -0.747  54.310  1.00  0.00    -0.240 NA
HETATM    8  C13 UNL     1      24.404   0.024  53.403  1.00  0.00     0.081 A 
HETATM    9  C20 UNL     1      23.623   0.793  52.584  1.00  0.00     0.025 A 
HETATM   10  C21 UNL     1      24.314   1.576  51.686  1.00  0.00     0.045 A 
ENDROOT
BRANCH   1  11
HETATM   11  N3  UNL     1      24.305   3.246  49.842  1.00  0.00    -0.333 N 
HETATM   12  H14 UNL     1      24.026   2.670  49.033  1.00  0.00     0.168 HD
BRANCH  11  13
HETATM   13  C1  UNL     1      25.013   4.419  50.185  1.00  0.00     0.172 C 
HETATM   14  S1  UNL     1      24.124   5.695  50.675  1.00  0.00    -0.041 SA
BRANCH  13  15
HETATM   15  N1  UNL     1      26.422   4.541  50.126  1.00  0.00    -0.365 N 
HETATM   16  H1  UNL     1      26.987   4.532  51.005  1.00  0.00     0.161 HD
BRANCH  15  17
HETATM   17  C2  UNL     1      27.194   4.683  48.912  1.00  0.00     0.141 C 
BRANCH  17  18
HETATM   18  C3  UNL     1      27.414   6.126  48.555  1.00  0.00     0.136 C 
BRANCH  18  19
HETATM   19  N2  UNL     1      28.609   6.370  47.817  1.00  0.00    -0.407 N 
HETATM   20  C4  UNL     1      29.692   5.493  48.092  1.00  0.00     0.143 C 
HETATM   21  C5  UNL     1      30.818   6.254  48.762  1.00  0.00     0.187 C 
HETATM   22  O1  UNL     1      31.294   7.259  47.964  1.00  0.00    -0.388 OA
HETATM   23  C6  UNL     1      30.386   7.721  47.033  1.00  0.00     0.187 C 
HETATM   24  C7  UNL     1      28.998   7.737  47.682  1.00  0.00     0.143 C 
ENDBRANCH  18  19
ENDBRANCH  17  18
ENDBRANCH  15  17
ENDBRANCH  13  15
ENDBRANCH  11  13
ENDBRANCH   1  11
BRANCH   8  25
HETATM   25  C14 UNL     1      25.851  -0.096  53.459  1.00  0.00    -0.005 A 
HETATM   26  C15 UNL     1      26.380  -1.282  52.970  1.00  0.00     0.015 A 
HETATM   27  C16 UNL     1      27.761  -1.501  52.956  1.00  0.00     0.026 A 
HETATM   28  C17 UNL     1      28.586  -0.516  53.437  1.00  0.00     0.055 A 
HETATM   29 CL1  UNL     1      30.332  -0.742  53.441  1.00  0.00    -0.083 Cl
HETATM   30  C18 UNL     1      28.104   0.676  53.931  1.00  0.00     0.056 A 
HETATM   31 CL2  UNL     1      29.147   1.962  54.555  1.00  0.00    -0.083 Cl
HETATM   32  C19 UNL     1      26.737   0.852  53.927  1.00  0.00     0.039 A 
ENDBRANCH   8  25
TORSDOF 7
ENDMDL
MODEL 3
REMARK VINA RESULT:      -8.4      2.441      3.449
REMARK  7 active torsions:
REMARK  status: ('A' for Active; 'I' for Inactive)
REMARK    1  A    between atoms: C1_2  and  N1_3 
REMARK    2  A    between atoms: C1_2  and  N3_12 
REMARK    3  A    between atoms: N1_3  and  C2_4 
REMARK    4  A    between atoms: C2_4  and  C3_5 
REMARK    5  A    between atoms: C3_5  and  N2_6 
REMARK    6  A    between atoms: N3_12  and  C8_13 
REMARK    7  A    between atoms: C13_20  and  C14_21 
ROOT
HETATM    1  C8  UNL     1      23.383   4.361  52.416  1.00  0.00     0.035 A 
HETATM    2  C9  UNL     1      21.992   4.413  52.261  1.00  0.00     0.032 A 
HETATM    3  C10 UNL     1      21.212   3.265  52.298  1.00  0.00     0.035 A 
HETATM    4  C11 UNL     1      21.795   2.037  52.491  1.00  0.00     0.070 A 
HETATM    5  N4  UNL     1      21.122   0.866  52.557  1.00  0.00    -0.241 NA
HETATM    6  C12 UNL     1      21.764  -0.303  52.763  1.00  0.00     0.234 A 
HETATM    7  N5  UNL     1      23.114  -0.330  52.908  1.00  0.00    -0.240 NA
HETATM    8  C13 UNL     1      23.854   0.809  52.852  1.00  0.00     0.081 A 
HETATM    9  C20 UNL     1      23.162   1.970  52.645  1.00  0.00     0.025 A 
HETATM   10  C21 UNL     1      23.933   3.111  52.607  1.00  0.00     0.045 A 
ENDROOT
BRANCH   1  11
HETATM   11  N3  UNL     1      24.104   5.581  52.360  1.00  0.00    -0.333 N 
HETATM   12  H14 UNL     1      24.180   5.679  53.383  1.00  0.00     0.168 HD
BRANCH  11  13
HETATM   13  C1  UNL     1      24.460   6.214  51.148  1.00  0.00     0.172 C 
HETATM   14  S1  UNL     1      23.567   7.505  50.707  1.00  0.00    -0.041 SA
BRANCH  13  15
HETATM   15  N1  UNL     1      25.528   5.795  50.318  1.00  0.00    -0.365 N 
HETATM   16  H1  UNL     1      26.327   5.259  50.722  1.00  0.00     0.161 HD
BRANCH  15  17
HETATM   17  C2  UNL     1      25.624   6.051  48.899  1.00  0.00     0.141 C 
BRANCH  17  18
HETATM   18  C3  UNL     1      27.016   6.449  48.495  1.00  0.00     0.136 C 
BRANCH  18  19
HETATM   19  N2  UNL     1      27.198   7.852  48.327  1.00  0.00    -0.407 N 
HETATM   20  C4  UNL     1      28.149   8.458  49.191  1.00  0.00     0.143 C 
HETATM   21  C5  UNL     1      27.452   9.401  50.150  1.00  0.00     0.187 C 
HETATM   22  O1  UNL     1      26.800  10.405  49.486  1.00  0.00    -0.388 OA
HETATM   23  C6  UNL     1      26.449  10.092  48.189  1.00  0.00     0.187 C 
HETATM   24  C7  UNL     1      26.011   8.625  48.150  1.00  0.00     0.143 C 
ENDBRANCH  18  19
ENDBRANCH  17  18
ENDBRANCH  15  17
ENDBRANCH  13  15
ENDBRANCH  11  13
ENDBRANCH   1  11
BRANCH   8  25
HETATM   25  C14 UNL     1      25.281   0.599  53.028  1.00  0.00    -0.005 A 
HETATM   26  C15 UNL     1      25.716  -0.716  52.939  1.00  0.00     0.015 A 
HETATM   27  C16 UNL     1      27.070  -1.035  53.073  1.00  0.00     0.026 A 
HETATM   28  C17 UNL     1      27.965  -0.019  53.296  1.00  0.00     0.055 A 
HETATM   29 CL1  UNL     1      29.682  -0.367  53.471  1.00  0.00    -0.083 Cl
HETATM   30  C18 UNL     1      27.577   1.299  53.391  1.00  0.00     0.056 A 
HETATM   31 CL2  UNL     1      28.711   2.627  53.676  1.00  0.00    -0.083 Cl
HETATM   32  C19 UNL     1      26.232   1.572  53.253  1.00  0.00     0.039 A 
ENDBRANCH   8  25
TORSDOF 7
ENDMDL
MODEL 4
REMARK VINA RESULT:      -8.3      4.936      6.350
REMARK  7 active torsions:
REMARK  status: ('A' for Active; 'I' for Inactive)
REMARK    1  A    between atoms: C1_2  and  N1_3 
REMARK    2  A    between atoms: C1_2  and  N3_12 
REMARK    3  A    between atoms: N1_3  and  C2_4 
REMARK    4  A    between atoms: C2_4  and  C3_5 
REMARK    5  A    between atoms: C3_5  and  N2_6 
REMARK    6  A    between atoms: N3_12  and  C8_13 
REMARK    7  A    between atoms: C13_20  and  C14_21 
ROOT
HETATM    1  C8  UNL     1      26.520   4.458  49.271  1.00  0.00     0.035 A 
HETATM    2  C9  UNL     1      25.400   5.253  49.001  1.00  0.00     0.032 A 
HETATM    3  C10 UNL     1      24.218   5.113  49.717  1.00  0.00     0.035 A 
HETATM    4  C11 UNL     1      24.122   4.179  50.719  1.00  0.00     0.070 A 
HETATM    5  N4  UNL     1      23.023   3.976  51.481  1.00  0.00    -0.241 NA
HETATM    6  C12 UNL     1      23.008   3.046  52.458  1.00  0.00     0.234 A 
HETATM    7  N5  UNL     1      24.105   2.284  52.701  1.00  0.00    -0.240 NA
HETATM    8  C13 UNL     1      25.244   2.433  51.973  1.00  0.00     0.081 A 
HETATM    9  C20 UNL     1      25.216   3.389  50.995  1.00  0.00     0.025 A 
HETATM   10  C21 UNL     1      26.386   3.531  50.283  1.00  0.00     0.045 A 
ENDROOT
BRANCH   1  11
HETATM   11  N3  UNL     1      27.685   4.664  48.488  1.00  0.00    -0.333 N 
HETATM   12  H14 UNL     1      27.671   3.722  48.069  1.00  0.00     0.168 HD
BRANCH  11  13
HETATM   13  C1  UNL     1      28.414   5.873  48.490  1.00  0.00     0.172 C 
HETATM   14  S1  UNL     1      27.710   7.154  47.767  1.00  0.00    -0.041 SA
BRANCH  13  15
HETATM   15  N1  UNL     1      29.695   6.027  49.074  1.00  0.00    -0.365 N 
HETATM   16  H1  UNL     1      29.829   5.861  50.096  1.00  0.00     0.161 HD
BRANCH  15  17
HETATM   17  C2  UNL     1      30.892   6.411  48.361  1.00  0.00     0.141 C 
BRANCH  17  18
HETATM   18  C3  UNL     1      31.344   5.340  47.408  1.00  0.00     0.136 C 
BRANCH  18  19
HETATM   19  N2  UNL     1      32.371   4.496  47.921  1.00  0.00    -0.407 N 
HETATM   20  C4  UNL     1      33.515   5.163  48.438  1.00  0.00     0.143 C 
HETATM   21  C5  UNL     1      34.721   4.874  47.568  1.00  0.00     0.187 C 
HETATM   22  O1  UNL     1      35.007   3.536  47.529  1.00  0.00    -0.388 OA
HETATM   23  C6  UNL     1      33.927   2.718  47.791  1.00  0.00     0.187 C 
HETATM   24  C7  UNL     1      32.685   3.340  47.145  1.00  0.00     0.143 C 
ENDBRANCH  18  19
ENDBRANCH  17  18
ENDBRANCH  15  17
ENDBRANCH  13  15
ENDBRANCH  11  13
ENDBRANCH   1  11
BRANCH   8  25
HETATM   25  C14 UNL     1      26.320   1.540  52.365  1.00  0.00    -0.005 A 
HETATM   26  C15 UNL     1      27.449   2.148  52.898  1.00  0.00     0.015 A 
HETATM   27  C16 UNL     1      28.539   1.386  53.328  1.00  0.00     0.026 A 
HETATM   28  C17 UNL     1      28.474   0.021  53.211  1.00  0.00     0.055 A 
HETATM   29 CL1  UNL     1      29.820  -0.984  53.738  1.00  0.00    -0.083 Cl
HETATM   30  C18 UNL     1      27.374  -0.623  52.688  1.00  0.00     0.056 A 
HETATM   31 CL2  UNL     1      27.263  -2.382  52.529  1.00  0.00    -0.083 Cl
HETATM   32  C19 UNL     1      26.319   0.164  52.276  1.00  0.00     0.039 A 
ENDBRANCH   8  25
TORSDOF 7
ENDMDL
MODEL 5
REMARK VINA RESULT:      -8.3      2.515      3.601
REMARK  7 active torsions:
REMARK  status: ('A' for Active; 'I' for Inactive)
REMARK    1  A    between atoms: C1_2  and  N1_3 
REMARK    2  A    between atoms: C1_2  and  N3_12 
REMARK    3  A    between atoms: N1_3  and  C2_4 
REMARK    4  A    between atoms: C2_4  and  C3_5 
REMARK    5  A    between atoms: C3_5  and  N2_6 
REMARK    6  A    between atoms: N3_12  and  C8_13 
REMARK    7  A    between atoms: C13_20  and  C14_21 
ROOT
HETATM    1  C8  UNL     1      23.349   2.208  51.117  1.00  0.00     0.035 A 
HETATM    2  C9  UNL     1      21.957   2.238  51.264  1.00  0.00     0.032 A 
HETATM    3  C10 UNL     1      21.308   1.455  52.209  1.00  0.00     0.035 A 
HETATM    4  C11 UNL     1      22.026   0.625  53.032  1.00  0.00     0.070 A 
HETATM    5  N4  UNL     1      21.489  -0.164  53.992  1.00  0.00    -0.241 NA
HETATM    6  C12 UNL     1      22.263  -0.947  54.772  1.00  0.00     0.234 A 
HETATM    7  N5  UNL     1      23.611  -0.961  54.612  1.00  0.00    -0.240 NA
HETATM    8  C13 UNL     1      24.218  -0.195  53.667  1.00  0.00     0.081 A 
HETATM    9  C20 UNL     1      23.396   0.584  52.900  1.00  0.00     0.025 A 
HETATM   10  C21 UNL     1      24.037   1.362  51.961  1.00  0.00     0.045 A 
ENDROOT
BRANCH   1  11
HETATM   11  N3  UNL     1      23.931   3.036  50.124  1.00  0.00    -0.333 N 
HETATM   12  H14 UNL     1      23.312   2.706  49.368  1.00  0.00     0.168 HD
BRANCH  11  13
HETATM   13  C1  UNL     1      24.997   3.925  50.384  1.00  0.00     0.172 C 
HETATM   14  S1  UNL     1      26.429   3.574  49.688  1.00  0.00    -0.041 SA
BRANCH  13  15
HETATM   15  N1  UNL     1      24.888   5.078  51.198  1.00  0.00    -0.365 N 
HETATM   16  H1  UNL     1      25.196   5.048  52.195  1.00  0.00     0.161 HD
BRANCH  15  17
HETATM   17  C2  UNL     1      24.367   6.355  50.763  1.00  0.00     0.141 C 
BRANCH  17  18
HETATM   18  C3  UNL     1      24.588   6.578  49.293  1.00  0.00     0.136 C 
BRANCH  18  19
HETATM   19  N2  UNL     1      25.593   7.542  48.992  1.00  0.00    -0.407 N 
HETATM   20  C4  UNL     1      26.424   7.239  47.881  1.00  0.00     0.143 C 
HETATM   21  C5  UNL     1      27.842   6.982  48.348  1.00  0.00     0.187 C 
HETATM   22  O1  UNL     1      28.374   8.077  48.974  1.00  0.00    -0.388 OA
HETATM   23  C6  UNL     1      27.436   8.929  49.519  1.00  0.00     0.187 C 
HETATM   24  C7  UNL     1      26.302   8.083  50.107  1.00  0.00     0.143 C 
ENDBRANCH  18  19
ENDBRANCH  17  18
ENDBRANCH  15  17
ENDBRANCH  13  15
ENDBRANCH  11  13
ENDBRANCH   1  11
BRANCH   8  25
HETATM   25  C14 UNL     1      25.664  -0.331  53.631  1.00  0.00    -0.005 A 
HETATM   26  C15 UNL     1      26.153  -1.427  52.933  1.00  0.00     0.015 A 
HETATM   27  C16 UNL     1      27.528  -1.648  52.816  1.00  0.00     0.026 A 
HETATM   28  C17 UNL     1      28.389  -0.759  53.407  1.00  0.00     0.055 A 
HETATM   29 CL1  UNL     1      30.130  -0.992  53.289  1.00  0.00    -0.083 Cl
HETATM   30  C18 UNL     1      27.948   0.341  54.109  1.00  0.00     0.056 A 
HETATM   31 CL2  UNL     1      29.037   1.504  54.878  1.00  0.00    -0.083 Cl
HETATM   32  C19 UNL     1      26.584   0.524  54.200  1.00  0.00     0.039 A 
ENDBRANCH   8  25
TORSDOF 7
ENDMDL
MODEL 6
REMARK VINA RESULT:      -8.0      5.075      8.359
REMARK  7 active torsions:
REMARK  status: ('A' for Active; 'I' for Inactive)
REMARK    1  A    between atoms: C1_2  and  N1_3 
REMARK    2  A    between atoms: C1_2  and  N3_12 
REMARK    3  A    between atoms: N1_3  and  C2_4 
REMARK    4  A    between atoms: C2_4  and  C3_5 
REMARK    5  A    between atoms: C3_5  and  N2_6 
REMARK    6  A    between atoms: N3_12  and  C8_13 
REMARK    7  A    between atoms: C13_20  and  C14_21 
ROOT
HETATM    1  C8  UNL     1      27.112   4.930  48.832  1.00  0.00     0.035 A 
HETATM    2  C9  UNL     1      26.117   5.908  48.707  1.00  0.00     0.032 A 
HETATM    3  C10 UNL     1      26.396   7.169  48.198  1.00  0.00     0.035 A 
HETATM    4  C11 UNL     1      27.670   7.489  47.801  1.00  0.00     0.070 A 
HETATM    5  N4  UNL     1      28.039   8.683  47.281  1.00  0.00    -0.241 NA
HETATM    6  C12 UNL     1      29.312   8.921  46.901  1.00  0.00     0.234 A 
HETATM    7  N5  UNL     1      30.260   7.959  47.033  1.00  0.00    -0.240 NA
HETATM    8  C13 UNL     1      29.961   6.736  47.548  1.00  0.00     0.081 A 
HETATM    9  C20 UNL     1      28.659   6.539  47.919  1.00  0.00     0.025 A 
HETATM   10  C21 UNL     1      28.379   5.288  48.423  1.00  0.00     0.045 A 
ENDROOT
BRANCH   1  11
HETATM   11  N3  UNL     1      26.741   3.670  49.365  1.00  0.00    -0.333 N 
HETATM   12  H14 UNL     1      27.528   3.162  48.933  1.00  0.00     0.168 HD
BRANCH  11  13
HETATM   13  C1  UNL     1      25.610   3.481  50.190  1.00  0.00     0.172 C 
HETATM   14  S1  UNL     1      24.198   3.172  49.437  1.00  0.00    -0.041 SA
BRANCH  13  15
HETATM   15  N1  UNL     1      25.641   3.543  51.604  1.00  0.00    -0.365 N 
HETATM   16  H1  UNL     1      25.804   4.454  52.086  1.00  0.00     0.161 HD
BRANCH  15  17
HETATM   17  C2  UNL     1      25.459   2.413  52.488  1.00  0.00     0.141 C 
BRANCH  17  18
HETATM   18  C3  UNL     1      26.765   1.927  53.051  1.00  0.00     0.136 C 
BRANCH  18  19
HETATM   19  N2  UNL     1      26.792   0.533  53.345  1.00  0.00    -0.407 N 
HETATM   20  C4  UNL     1      27.676   0.140  54.385  1.00  0.00     0.143 C 
HETATM   21  C5  UNL     1      28.802  -0.701  53.819  1.00  0.00     0.187 C 
HETATM   22  O1  UNL     1      28.332  -1.841  53.226  1.00  0.00    -0.388 OA
HETATM   23  C6  UNL     1      27.026  -1.755  52.787  1.00  0.00     0.187 C 
HETATM   24  C7  UNL     1      26.802  -0.348  52.222  1.00  0.00     0.143 C 
ENDBRANCH  18  19
ENDBRANCH  17  18
ENDBRANCH  15  17
ENDBRANCH  13  15
ENDBRANCH  11  13
ENDBRANCH   1  11
BRANCH   8  25
HETATM   25  C14 UNL     1      31.092   5.828  47.618  1.00  0.00    -0.005 A 
HETATM   26  C15 UNL     1      32.230   6.323  48.242  1.00  0.00     0.015 A 
HETATM   27  C16 UNL     1      33.373   5.530  48.383  1.00  0.00     0.026 A 
HETATM   28  C17 UNL     1      33.350   4.250  47.892  1.00  0.00     0.055 A 
HETATM   29 CL1  UNL     1      34.763   3.211  48.045  1.00  0.00    -0.083 Cl
HETATM   30  C18 UNL     1      32.243   3.719  47.266  1.00  0.00     0.056 A 
HETATM   31 CL2  UNL     1      32.186   2.070  46.627  1.00  0.00    -0.083 Cl
HETATM   32  C19 UNL     1      31.136   4.532  47.147  1.00  0.00     0.039 A 
ENDBRANCH   8  25
TORSDOF 7
ENDMDL
MODEL 7
REMARK VINA RESULT:      -8.0      2.016      2.679
REMARK  7 active torsions:
REMARK  status: ('A' for Active; 'I' for Inactive)
REMARK    1  A    between atoms: C1_2  and  N1_3 
REMARK    2  A    between atoms: C1_2  and  N3_12 
REMARK    3  A    between atoms: N1_3  and  C2_4 
REMARK    4  A    between atoms: C2_4  and  C3_5 
REMARK    5  A    between atoms: C3_5  and  N2_6 
REMARK    6  A    between atoms: N3_12  and  C8_13 
REMARK    7  A    between atoms: C13_20  and  C14_21 
ROOT
HETATM    1  C8  UNL     1      23.347   2.170  51.113  1.00  0.00     0.035 A 
HETATM    2  C9  UNL     1      21.956   2.192  51.266  1.00  0.00     0.032 A 
HETATM    3  C10 UNL     1      21.318   1.417  52.226  1.00  0.00     0.035 A 
HETATM    4  C11 UNL     1      22.047   0.603  53.056  1.00  0.00     0.070 A 
HETATM    5  N4  UNL     1      21.520  -0.177  54.029  1.00  0.00    -0.241 NA
HETATM    6  C12 UNL     1      22.304  -0.943  54.816  1.00  0.00     0.234 A 
HETATM    7  N5  UNL     1      23.651  -0.950  54.648  1.00  0.00    -0.240 NA
HETATM    8  C13 UNL     1      24.248  -0.192  53.689  1.00  0.00     0.081 A 
HETATM    9  C20 UNL     1      23.416   0.571  52.916  1.00  0.00     0.025 A 
HETATM   10  C21 UNL     1      24.046   1.340  51.964  1.00  0.00     0.045 A 
ENDROOT
BRANCH   1  11
HETATM   11  N3  UNL     1      23.917   2.988  50.105  1.00  0.00    -0.333 N 
HETATM   12  H14 UNL     1      23.291   2.649  49.359  1.00  0.00     0.168 HD
BRANCH  11  13
HETATM   13  C1  UNL     1      24.985   3.881  50.345  1.00  0.00     0.172 C 
HETATM   14  S1  UNL     1      26.433   3.479  49.712  1.00  0.00    -0.041 SA
BRANCH  13  15
HETATM   15  N1  UNL     1      24.865   5.080  51.089  1.00  0.00    -0.365 N 
HETATM   16  H1  UNL     1      24.850   5.050  52.133  1.00  0.00     0.161 HD
BRANCH  15  17
HETATM   17  C2  UNL     1      24.756   6.403  50.518  1.00  0.00     0.141 C 
BRANCH  17  18
HETATM   18  C3  UNL     1      23.680   6.475  49.472  1.00  0.00     0.136 C 
BRANCH  18  19
HETATM   19  N2  UNL     1      22.405   6.871  49.971  1.00  0.00    -0.407 N 
HETATM   20  C4  UNL     1      21.405   5.862  49.975  1.00  0.00     0.143 C 
HETATM   21  C5  UNL     1      20.312   6.211  48.985  1.00  0.00     0.187 C 
HETATM   22  O1  UNL     1      19.704   7.396  49.301  1.00  0.00    -0.388 OA
HETATM   23  C6  UNL     1      20.486   8.253  50.048  1.00  0.00     0.187 C 
HETATM   24  C7  UNL     1      21.930   8.147  49.545  1.00  0.00     0.143 C 
ENDBRANCH  18  19
ENDBRANCH  17  18
ENDBRANCH  15  17
ENDBRANCH  13  15
ENDBRANCH  11  13
ENDBRANCH   1  11
BRANCH   8  25
HETATM   25  C14 UNL     1      25.695  -0.318  53.648  1.00  0.00    -0.005 A 
HETATM   26  C15 UNL     1      26.188  -1.406  52.941  1.00  0.00     0.015 A 
HETATM   27  C16 UNL     1      27.565  -1.617  52.818  1.00  0.00     0.026 A 
HETATM   28  C17 UNL     1      28.422  -0.726  53.411  1.00  0.00     0.055 A 
HETATM   29 CL1  UNL     1      30.164  -0.947  53.285  1.00  0.00    -0.083 Cl
HETATM   30  C18 UNL     1      27.975   0.367  54.121  1.00  0.00     0.056 A 
HETATM   31 CL2  UNL     1      29.060   1.533  54.893  1.00  0.00    -0.083 Cl
HETATM   32  C19 UNL     1      26.611   0.540  54.219  1.00  0.00     0.039 A 
ENDBRANCH   8  25
TORSDOF 7
ENDMDL
MODEL 8
REMARK VINA RESULT:      -7.7      4.597      6.087
REMARK  7 active torsions:
REMARK  status: ('A' for Active; 'I' for Inactive)
REMARK    1  A    between atoms: C1_2  and  N1_3 
REMARK    2  A    between atoms: C1_2  and  N3_12 
REMARK    3  A    between atoms: N1_3  and  C2_4 
REMARK    4  A    between atoms: C2_4  and  C3_5 
REMARK    5  A    between atoms: C3_5  and  N2_6 
REMARK    6  A    between atoms: N3_12  and  C8_13 
REMARK    7  A    between atoms: C13_20  and  C14_21 
ROOT
HETATM    1  C8  UNL     1      26.524   4.363  49.305  1.00  0.00     0.035 A 
HETATM    2  C9  UNL     1      25.394   5.136  49.009  1.00  0.00     0.032 A 
HETATM    3  C10 UNL     1      24.202   4.978  49.703  1.00  0.00     0.035 A 
HETATM    4  C11 UNL     1      24.103   4.048  50.708  1.00  0.00     0.070 A 
HETATM    5  N4  UNL     1      22.993   3.829  51.449  1.00  0.00    -0.241 NA
HETATM    6  C12 UNL     1      22.975   2.903  52.431  1.00  0.00     0.234 A 
HETATM    7  N5  UNL     1      24.082   2.163  52.700  1.00  0.00    -0.240 NA
HETATM    8  C13 UNL     1      25.232   2.329  51.993  1.00  0.00     0.081 A 
HETATM    9  C20 UNL     1      25.205   3.280  51.009  1.00  0.00     0.025 A 
HETATM   10  C21 UNL     1      26.386   3.439  50.320  1.00  0.00     0.045 A 
ENDROOT
BRANCH   1  11
HETATM   11  N3  UNL     1      27.699   4.586  48.545  1.00  0.00    -0.333 N 
HETATM   12  H14 UNL     1      27.709   3.643  48.128  1.00  0.00     0.168 HD
BRANCH  11  13
HETATM   13  C1  UNL     1      28.408   5.808  48.556  1.00  0.00     0.172 C 
HETATM   14  S1  UNL     1      29.945   5.769  48.013  1.00  0.00    -0.041 SA
BRANCH  13  15
HETATM   15  N1  UNL     1      27.865   7.036  49.005  1.00  0.00    -0.365 N 
HETATM   16  H1  UNL     1      26.889   7.075  49.373  1.00  0.00     0.161 HD
BRANCH  15  17
HETATM   17  C2  UNL     1      28.562   8.303  49.001  1.00  0.00     0.141 C 
BRANCH  17  18
HETATM   18  C3  UNL     1      28.185   9.146  47.815  1.00  0.00     0.136 C 
BRANCH  18  19
HETATM   19  N2  UNL     1      29.218  10.020  47.367  1.00  0.00    -0.407 N 
HETATM   20  C4  UNL     1      30.461   9.903  48.044  1.00  0.00     0.143 C 
HETATM   21  C5  UNL     1      30.741  11.164  48.835  1.00  0.00     0.187 C 
HETATM   22  O1  UNL     1      30.816  12.263  48.023  1.00  0.00    -0.388 OA
HETATM   23  C6  UNL     1      30.131  12.136  46.832  1.00  0.00     0.187 C 
HETATM   24  C7  UNL     1      28.832  11.369  47.105  1.00  0.00     0.143 C 
ENDBRANCH  18  19
ENDBRANCH  17  18
ENDBRANCH  15  17
ENDBRANCH  13  15
ENDBRANCH  11  13
ENDBRANCH   1  11
BRANCH   8  25
HETATM   25  C14 UNL     1      26.317   1.458  52.411  1.00  0.00    -0.005 A 
HETATM   26  C15 UNL     1      27.404   2.086  53.004  1.00  0.00     0.015 A 
HETATM   27  C16 UNL     1      28.498   1.346  53.462  1.00  0.00     0.026 A 
HETATM   28  C17 UNL     1      28.476  -0.018  53.315  1.00  0.00     0.055 A 
HETATM   29 CL1  UNL     1      29.828  -0.996  53.876  1.00  0.00    -0.083 Cl
HETATM   30  C18 UNL     1      27.418  -0.681  52.733  1.00  0.00     0.056 A 
HETATM   31 CL2  UNL     1      27.364  -2.438  52.534  1.00  0.00    -0.083 Cl
HETATM   32  C19 UNL     1      26.359   0.085  52.295  1.00  0.00     0.039 A 
ENDBRANCH   8  25
TORSDOF 7
ENDMDL
MODEL 9
REMARK VINA RESULT:      -7.7      3.536      5.224
REMARK  7 active torsions:
REMARK  status: ('A' for Active; 'I' for Inactive)
REMARK    1  A    between atoms: C1_2  and  N1_3 
REMARK    2  A    between atoms: C1_2  and  N3_12 
REMARK    3  A    between atoms: N1_3  and  C2_4 
REMARK    4  A    between atoms: C2_4  and  C3_5 
REMARK    5  A    between atoms: C3_5  and  N2_6 
REMARK    6  A    between atoms: N3_12  and  C8_13 
REMARK    7  A    between atoms: C13_20  and  C14_21 
ROOT
HETATM    1  C8  UNL     1      25.007   2.668  50.776  1.00  0.00     0.035 A 
HETATM    2  C9  UNL     1      26.381   2.866  50.955  1.00  0.00     0.032 A 
HETATM    3  C10 UNL     1      27.091   2.194  51.943  1.00  0.00     0.035 A 
HETATM    4  C11 UNL     1      26.451   1.311  52.776  1.00  0.00     0.070 A 
HETATM    5  N4  UNL     1      27.055   0.599  53.756  1.00  0.00    -0.241 NA
HETATM    6  C12 UNL     1      26.361  -0.262  54.528  1.00  0.00     0.234 A 
HETATM    7  N5  UNL     1      25.028  -0.437  54.338  1.00  0.00    -0.240 NA
HETATM    8  C13 UNL     1      24.356   0.246  53.373  1.00  0.00     0.081 A 
HETATM    9  C20 UNL     1      25.099   1.107  52.612  1.00  0.00     0.025 A 
HETATM   10  C21 UNL     1      24.399   1.774  51.632  1.00  0.00     0.045 A 
ENDROOT
BRANCH   1  11
HETATM   11  N3  UNL     1      24.359   3.398  49.747  1.00  0.00    -0.333 N 
HETATM   12  H14 UNL     1      25.230   3.805  49.374  1.00  0.00     0.168 HD
BRANCH  11  13
HETATM   13  C1  UNL     1      22.961   3.375  49.545  1.00  0.00     0.172 C 
HETATM   14  S1  UNL     1      22.411   2.422  48.342  1.00  0.00    -0.041 SA
BRANCH  13  15
HETATM   15  N1  UNL     1      22.036   4.119  50.316  1.00  0.00    -0.365 N 
HETATM   16  H1  UNL     1      21.010   3.968  50.194  1.00  0.00     0.161 HD
BRANCH  15  17
HETATM   17  C2  UNL     1      22.389   5.116  51.302  1.00  0.00     0.141 C 
BRANCH  17  18
HETATM   18  C3  UNL     1      22.131   6.510  50.806  1.00  0.00     0.136 C 
BRANCH  18  19
HETATM   19  N2  UNL     1      23.300   7.208  50.386  1.00  0.00    -0.407 N 
HETATM   20  C4  UNL     1      23.393   7.472  48.993  1.00  0.00     0.143 C 
HETATM   21  C5  UNL     1      24.535   6.680  48.390  1.00  0.00     0.187 C 
HETATM   22  O1  UNL     1      25.736   7.016  48.954  1.00  0.00    -0.388 OA
HETATM   23  C6  UNL     1      25.637   7.539  50.228  1.00  0.00     0.187 C 
HETATM   24  C7  UNL     1      24.531   6.785  50.972  1.00  0.00     0.143 C 
ENDBRANCH  18  19
ENDBRANCH  17  18
ENDBRANCH  15  17
ENDBRANCH  13  15
ENDBRANCH  11  13
ENDBRANCH   1  11
BRANCH   8  25
HETATM   25  C14 UNL     1      22.938  -0.061  53.306  1.00  0.00    -0.005 A 
HETATM   26  C15 UNL     1      22.423  -0.783  54.375  1.00  0.00     0.015 A 
HETATM   27  C16 UNL     1      21.067  -1.118  54.427  1.00  0.00     0.026 A 
HETATM   28  C17 UNL     1      20.251  -0.720  53.399  1.00  0.00     0.055 A 
HETATM   29 CL1  UNL     1      18.536  -1.116  53.418  1.00  0.00    -0.083 Cl
HETATM   30  C18 UNL     1      20.720  -0.002  52.320  1.00  0.00     0.056 A 
HETATM   31 CL2  UNL     1      19.688   0.526  50.983  1.00  0.00    -0.083 Cl
HETATM   32  C19 UNL     1      22.063   0.309  52.307  1.00  0.00     0.039 A 
ENDBRANCH   8  25
TORSDOF 7
ENDMDL
