MODEL 1
REMARK VINA RESULT:      -9.2      0.000      0.000
REMARK  2 active torsions:
REMARK  status: ('A' for Active; 'I' for Inactive)
REMARK    1  A    between atoms: O1_1  and  C1_2 
REMARK    2  A    between atoms: C4_5  and  N1_6 
ROOT
HETATM    1  N1  UNL     1      26.144   2.341  51.058  1.00  0.00    -0.321 N 
HETATM    2  C5  UNL     1      26.284   3.069  49.886  1.00  0.00     0.142 C 
HETATM    3  C6  UNL     1      26.576   4.142  49.225  1.00  0.00     0.009 C 
HETATM    4  C7  UNL     1      26.989   5.503  48.917  1.00  0.00    -0.052 A 
HETATM    5  C8  UNL     1      27.983   5.966  48.198  1.00  0.00     0.007 A 
HETATM    6  C9  UNL     1      27.768   7.395  48.340  1.00  0.00    -0.003 A 
HETATM    7  C10 UNL     1      26.740   7.781  49.076  1.00  0.00    -0.017 A 
HETATM    8  C11 UNL     1      26.098   6.531  49.554  1.00  0.00     0.042 A 
HETATM    9  C12 UNL     1      24.675   6.362  49.176  1.00  0.00     0.033 C 
HETATM   10  C13 UNL     1      23.627   6.817  50.124  1.00  0.00     0.122 C 
HETATM   11  N2  UNL     1      23.559   6.160  51.388  1.00  0.00    -0.375 N 
HETATM   12  C14 UNL     1      23.346   4.824  51.735  1.00  0.00     0.128 A 
HETATM   13  C15 UNL     1      24.350   3.931  51.498  1.00  0.00     0.100 A 
HETATM   14  C16 UNL     1      24.828   2.647  51.544  1.00  0.00     0.136 A 
HETATM   15  N3  UNL     1      23.836   1.937  52.076  1.00  0.00    -0.224 NA
HETATM   16  C17 UNL     1      22.705   2.635  52.401  1.00  0.00     0.237 A 
HETATM   17  N4  UNL     1      22.453   3.971  52.253  1.00  0.00    -0.225 NA
HETATM   18  H14 UNL     1      23.633   6.398  52.400  1.00  0.00     0.161 HD
ENDROOT
BRANCH   1  19
HETATM   19  C4  UNL     1      26.797   1.448  51.889  1.00  0.00     0.037 A 
HETATM   20  C3  UNL     1      27.634   2.082  52.783  1.00  0.00     0.032 A 
HETATM   21  C2  UNL     1      28.387   1.381  53.732  1.00  0.00     0.039 A 
HETATM   22  C1  UNL     1      28.268   0.005  53.750  1.00  0.00     0.065 A 
HETATM   23  C19 UNL     1      27.414  -0.580  52.830  1.00  0.00     0.039 A 
HETATM   24  C18 UNL     1      26.666   0.090  51.892  1.00  0.00     0.032 A 
BRANCH  22  25
HETATM   25  O1  UNL     1      28.979  -0.778  54.660  1.00  0.00    -0.361 OA
HETATM   26  H1  UNL     1      29.936  -1.063  54.532  1.00  0.00     0.217 HD
ENDBRANCH  22  25
ENDBRANCH   1  19
TORSDOF 2
ENDMDL
MODEL 2
REMARK VINA RESULT:      -8.6      2.553      5.349
REMARK  2 active torsions:
REMARK  status: ('A' for Active; 'I' for Inactive)
REMARK    1  A    between atoms: O1_1  and  C1_2 
REMARK    2  A    between atoms: C4_5  and  N1_6 
ROOT
HETATM    1  N1  UNL     1      25.384   1.030  52.675  1.00  0.00    -0.321 N 
HETATM    2  C5  UNL     1      24.091   1.340  53.068  1.00  0.00     0.142 C 
HETATM    3  C6  UNL     1      22.805   1.261  52.959  1.00  0.00     0.009 C 
HETATM    4  C7  UNL     1      21.481   0.896  52.477  1.00  0.00    -0.052 A 
HETATM    5  C8  UNL     1      20.489   0.269  53.061  1.00  0.00     0.007 A 
HETATM    6  C9  UNL     1      19.509   0.268  51.988  1.00  0.00    -0.003 A 
HETATM    7  C10 UNL     1      19.861   0.839  50.850  1.00  0.00    -0.017 A 
HETATM    8  C11 UNL     1      21.248   1.327  51.058  1.00  0.00     0.042 A 
HETATM    9  C12 UNL     1      21.445   2.783  50.867  1.00  0.00     0.033 C 
HETATM   10  C13 UNL     1      21.873   3.276  49.534  1.00  0.00     0.122 C 
HETATM   11  N2  UNL     1      23.152   2.855  49.062  1.00  0.00    -0.375 N 
HETATM   12  C14 UNL     1      24.439   3.021  49.578  1.00  0.00     0.128 A 
HETATM   13  C15 UNL     1      24.783   2.304  50.687  1.00  0.00     0.100 A 
HETATM   14  C16 UNL     1      25.708   1.974  51.644  1.00  0.00     0.136 A 
HETATM   15  N3  UNL     1      26.780   2.703  51.342  1.00  0.00    -0.224 NA
HETATM   16  C17 UNL     1      26.665   3.515  50.246  1.00  0.00     0.237 A 
HETATM   17  N4  UNL     1      25.593   3.680  49.414  1.00  0.00    -0.225 NA
HETATM   18  H14 UNL     1      23.557   2.332  48.256  1.00  0.00     0.161 HD
ENDROOT
BRANCH   1  19
HETATM   19  C4  UNL     1      26.439   0.169  52.924  1.00  0.00     0.037 A 
HETATM   20  C3  UNL     1      26.214  -1.094  52.418  1.00  0.00     0.032 A 
HETATM   21  C2  UNL     1      27.150  -2.128  52.537  1.00  0.00     0.039 A 
HETATM   22  C1  UNL     1      28.333  -1.844  53.191  1.00  0.00     0.065 A 
HETATM   23  C19 UNL     1      28.508  -0.560  53.679  1.00  0.00     0.039 A 
HETATM   24  C18 UNL     1      27.602   0.469  53.572  1.00  0.00     0.032 A 
BRANCH  22  25
HETATM   25  O1  UNL     1      29.326  -2.809  53.358  1.00  0.00    -0.361 OA
HETATM   26  H1  UNL     1      30.002  -3.052  52.653  1.00  0.00     0.217 HD
ENDBRANCH  22  25
ENDBRANCH   1  19
TORSDOF 2
ENDMDL
MODEL 3
REMARK VINA RESULT:      -8.2      3.631      7.675
REMARK  2 active torsions:
REMARK  status: ('A' for Active; 'I' for Inactive)
REMARK    1  A    between atoms: O1_1  and  C1_2 
REMARK    2  A    between atoms: C4_5  and  N1_6 
ROOT
HETATM    1  N1  UNL     1      22.861   2.711  50.626  1.00  0.00    -0.321 N 
HETATM    2  C5  UNL     1      22.583   1.393  50.954  1.00  0.00     0.142 C 
HETATM    3  C6  UNL     1      22.372   0.437  51.801  1.00  0.00     0.009 C 
HETATM    4  C7  UNL     1      22.206  -0.284  53.054  1.00  0.00    -0.052 A 
HETATM    5  C8  UNL     1      21.186  -0.947  53.543  1.00  0.00     0.007 A 
HETATM    6  C9  UNL     1      21.742  -1.389  54.810  1.00  0.00    -0.003 A 
HETATM    7  C10 UNL     1      22.986  -1.034  55.080  1.00  0.00    -0.017 A 
HETATM    8  C11 UNL     1      23.437  -0.237  53.911  1.00  0.00     0.042 A 
HETATM    9  C12 UNL     1      24.637  -0.756  53.212  1.00  0.00     0.033 C 
HETATM   10  C13 UNL     1      25.971  -0.238  53.604  1.00  0.00     0.122 C 
HETATM   11  N2  UNL     1      26.222   1.150  53.390  1.00  0.00    -0.375 N 
HETATM   12  C14 UNL     1      26.217   1.932  52.233  1.00  0.00     0.128 A 
HETATM   13  C15 UNL     1      25.013   2.217  51.656  1.00  0.00     0.100 A 
HETATM   14  C16 UNL     1      24.292   2.821  50.658  1.00  0.00     0.136 A 
HETATM   15  N3  UNL     1      25.206   3.406  49.888  1.00  0.00    -0.224 NA
HETATM   16  C17 UNL     1      26.508   3.252  50.278  1.00  0.00     0.237 A 
HETATM   17  N4  UNL     1      27.002   2.574  51.359  1.00  0.00    -0.225 NA
HETATM   18  H14 UNL     1      26.471   1.996  53.945  1.00  0.00     0.161 HD
ENDROOT
BRANCH   1  19
HETATM   19  C4  UNL     1      22.268   3.913  50.280  1.00  0.00     0.037 A 
HETATM   20  C3  UNL     1      22.247   4.807  51.330  1.00  0.00     0.032 A 
HETATM   21  C2  UNL     1      21.709   6.094  51.209  1.00  0.00     0.039 A 
HETATM   22  C1  UNL     1      21.187   6.453  49.981  1.00  0.00     0.065 A 
HETATM   23  C19 UNL     1      21.233   5.517  48.962  1.00  0.00     0.039 A 
HETATM   24  C18 UNL     1      21.758   4.250  49.060  1.00  0.00     0.032 A 
BRANCH  22  25
HETATM   25  O1  UNL     1      20.629   7.713  49.765  1.00  0.00    -0.361 OA
HETATM   26  H1  UNL     1      21.124   8.580  49.902  1.00  0.00     0.217 HD
ENDBRANCH  22  25
ENDBRANCH   1  19
TORSDOF 2
ENDMDL
MODEL 4
REMARK VINA RESULT:      -8.2      4.429      7.037
REMARK  2 active torsions:
REMARK  status: ('A' for Active; 'I' for Inactive)
REMARK    1  A    between atoms: O1_1  and  C1_2 
REMARK    2  A    between atoms: C4_5  and  N1_6 
ROOT
HETATM    1  N1  UNL     1      22.782   2.008  52.286  1.00  0.00    -0.321 N 
HETATM    2  C5  UNL     1      23.955   2.375  52.928  1.00  0.00     0.142 C 
HETATM    3  C6  UNL     1      25.201   2.208  53.233  1.00  0.00     0.009 C 
HETATM    4  C7  UNL     1      26.541   1.644  53.303  1.00  0.00    -0.052 A 
HETATM    5  C8  UNL     1      27.705   2.131  52.950  1.00  0.00     0.007 A 
HETATM    6  C9  UNL     1      28.574   1.024  53.311  1.00  0.00    -0.003 A 
HETATM    7  C10 UNL     1      28.003  -0.045  53.837  1.00  0.00    -0.017 A 
HETATM    8  C11 UNL     1      26.551   0.260  53.886  1.00  0.00     0.042 A 
HETATM    9  C12 UNL     1      25.934   0.206  55.232  1.00  0.00     0.033 C 
HETATM   10  C13 UNL     1      25.299  -1.061  55.675  1.00  0.00     0.122 C 
HETATM   11  N2  UNL     1      24.167  -1.517  54.937  1.00  0.00    -0.375 N 
HETATM   12  C14 UNL     1      22.921  -0.937  54.686  1.00  0.00     0.128 A 
HETATM   13  C15 UNL     1      22.867   0.117  53.821  1.00  0.00     0.100 A 
HETATM   14  C16 UNL     1      22.137   1.077  53.169  1.00  0.00     0.136 A 
HETATM   15  N3  UNL     1      20.885   0.883  53.575  1.00  0.00    -0.224 NA
HETATM   16  C17 UNL     1      20.694  -0.140  54.463  1.00  0.00     0.237 A 
HETATM   17  N4  UNL     1      21.619  -0.997  54.992  1.00  0.00    -0.225 NA
HETATM   18  H14 UNL     1      23.878  -2.348  54.380  1.00  0.00     0.161 HD
ENDROOT
BRANCH   1  19
HETATM   19  C4  UNL     1      22.035   2.222  51.141  1.00  0.00     0.037 A 
HETATM   20  C3  UNL     1      22.015   1.117  50.316  1.00  0.00     0.032 A 
HETATM   21  C2  UNL     1      21.310   1.096  49.106  1.00  0.00     0.039 A 
HETATM   22  C1  UNL     1      20.618   2.239  48.753  1.00  0.00     0.065 A 
HETATM   23  C19 UNL     1      20.672   3.319  49.618  1.00  0.00     0.039 A 
HETATM   24  C18 UNL     1      21.357   3.359  50.809  1.00  0.00     0.032 A 
BRANCH  22  25
HETATM   25  O1  UNL     1      19.887   2.313  47.568  1.00  0.00    -0.361 OA
HETATM   26  H1  UNL     1      19.724   1.530  46.955  1.00  0.00     0.217 HD
ENDBRANCH  22  25
ENDBRANCH   1  19
TORSDOF 2
ENDMDL
MODEL 5
REMARK VINA RESULT:      -8.2      3.341      6.709
REMARK  2 active torsions:
REMARK  status: ('A' for Active; 'I' for Inactive)
REMARK    1  A    between atoms: O1_1  and  C1_2 
REMARK    2  A    between atoms: C4_5  and  N1_6 
ROOT
HETATM    1  N1  UNL     1      23.772   3.909  51.871  1.00  0.00    -0.321 N 
HETATM    2  C5  UNL     1      24.625   3.250  52.743  1.00  0.00     0.142 C 
HETATM    3  C6  UNL     1      25.409   2.273  53.069  1.00  0.00     0.009 C 
HETATM    4  C7  UNL     1      26.166   1.032  53.005  1.00  0.00    -0.052 A 
HETATM    5  C8  UNL     1      27.454   0.798  53.080  1.00  0.00     0.007 A 
HETATM    6  C9  UNL     1      27.468  -0.648  52.942  1.00  0.00    -0.003 A 
HETATM    7  C10 UNL     1      26.301  -1.251  52.794  1.00  0.00    -0.017 A 
HETATM    8  C11 UNL     1      25.285  -0.169  52.818  1.00  0.00     0.042 A 
HETATM    9  C12 UNL     1      24.254  -0.287  53.875  1.00  0.00     0.033 C 
HETATM   10  C13 UNL     1      22.975  -0.967  53.552  1.00  0.00     0.122 C 
HETATM   11  N2  UNL     1      22.148  -0.365  52.558  1.00  0.00    -0.375 N 
HETATM   12  C14 UNL     1      21.542   0.892  52.484  1.00  0.00     0.128 A 
HETATM   13  C15 UNL     1      22.340   1.976  52.259  1.00  0.00     0.100 A 
HETATM   14  C16 UNL     1      22.477   3.330  52.091  1.00  0.00     0.136 A 
HETATM   15  N3  UNL     1      21.240   3.811  52.197  1.00  0.00    -0.224 NA
HETATM   16  C17 UNL     1      20.256   2.889  52.428  1.00  0.00     0.237 A 
HETATM   17  N4  UNL     1      20.370   1.533  52.565  1.00  0.00    -0.225 NA
HETATM   18  H14 UNL     1      21.736  -0.603  51.631  1.00  0.00     0.161 HD
ENDROOT
BRANCH   1  19
HETATM   19  C4  UNL     1      23.728   4.900  50.906  1.00  0.00     0.037 A 
HETATM   20  C3  UNL     1      23.848   6.163  51.447  1.00  0.00     0.032 A 
HETATM   21  C2  UNL     1      23.844   7.320  50.659  1.00  0.00     0.039 A 
HETATM   22  C1  UNL     1      23.715   7.160  49.292  1.00  0.00     0.065 A 
HETATM   23  C19 UNL     1      23.598   5.870  48.803  1.00  0.00     0.039 A 
HETATM   24  C18 UNL     1      23.599   4.722  49.559  1.00  0.00     0.032 A 
BRANCH  22  25
HETATM   25  O1  UNL     1      23.701   8.253  48.427  1.00  0.00    -0.361 OA
HETATM   26  H1  UNL     1      24.126   9.143  48.633  1.00  0.00     0.217 HD
ENDBRANCH  22  25
ENDBRANCH   1  19
TORSDOF 2
ENDMDL
MODEL 6
REMARK VINA RESULT:      -8.1      2.453      3.621
REMARK  2 active torsions:
REMARK  status: ('A' for Active; 'I' for Inactive)
REMARK    1  A    between atoms: O1_1  and  C1_2 
REMARK    2  A    between atoms: C4_5  and  N1_6 
ROOT
HETATM    1  N1  UNL     1      24.485   1.394  52.068  1.00  0.00    -0.321 N 
HETATM    2  C5  UNL     1      24.140   2.240  51.025  1.00  0.00     0.142 C 
HETATM    3  C6  UNL     1      23.732   3.370  50.545  1.00  0.00     0.009 C 
HETATM    4  C7  UNL     1      23.261   4.745  50.464  1.00  0.00    -0.052 A 
HETATM    5  C8  UNL     1      23.777   5.804  49.890  1.00  0.00     0.007 A 
HETATM    6  C9  UNL     1      22.770   6.798  50.218  1.00  0.00    -0.003 A 
HETATM    7  C10 UNL     1      21.731   6.394  50.928  1.00  0.00    -0.017 A 
HETATM    8  C11 UNL     1      21.956   4.947  51.176  1.00  0.00     0.042 A 
HETATM    9  C12 UNL     1      20.891   4.044  50.680  1.00  0.00     0.033 C 
HETATM   10  C13 UNL     1      19.800   3.650  51.607  1.00  0.00     0.122 C 
HETATM   11  N2  UNL     1      20.164   2.888  52.757  1.00  0.00    -0.375 N 
HETATM   12  C14 UNL     1      20.782   1.644  52.895  1.00  0.00     0.128 A 
HETATM   13  C15 UNL     1      22.113   1.552  52.604  1.00  0.00     0.100 A 
HETATM   14  C16 UNL     1      23.253   0.797  52.501  1.00  0.00     0.136 A 
HETATM   15  N3  UNL     1      22.879  -0.429  52.855  1.00  0.00    -0.224 NA
HETATM   16  C17 UNL     1      21.562  -0.581  53.196  1.00  0.00     0.237 A 
HETATM   17  N4  UNL     1      20.572   0.362  53.222  1.00  0.00    -0.225 NA
HETATM   18  H14 UNL     1      20.112   2.963  53.795  1.00  0.00     0.161 HD
ENDROOT
BRANCH   1  19
HETATM   19  C4  UNL     1      25.559   0.932  52.808  1.00  0.00     0.037 A 
HETATM   20  C3  UNL     1      26.297  -0.012  52.124  1.00  0.00     0.032 A 
HETATM   21  C2  UNL     1      27.439  -0.610  52.669  1.00  0.00     0.039 A 
HETATM   22  C1  UNL     1      27.817  -0.222  53.940  1.00  0.00     0.065 A 
HETATM   23  C19 UNL     1      27.041   0.729  54.581  1.00  0.00     0.039 A 
HETATM   24  C18 UNL     1      25.917   1.328  54.063  1.00  0.00     0.032 A 
BRANCH  22  25
HETATM   25  O1  UNL     1      28.940  -0.762  54.566  1.00  0.00    -0.361 OA
HETATM   26  H1  UNL     1      29.054  -0.829  55.564  1.00  0.00     0.217 HD
ENDBRANCH  22  25
ENDBRANCH   1  19
TORSDOF 2
ENDMDL
MODEL 7
REMARK VINA RESULT:      -8.1      2.846      3.790
REMARK  2 active torsions:
REMARK  status: ('A' for Active; 'I' for Inactive)
REMARK    1  A    between atoms: O1_1  and  C1_2 
REMARK    2  A    between atoms: C4_5  and  N1_6 
ROOT
HETATM    1  N1  UNL     1      22.521   1.410  51.730  1.00  0.00    -0.321 N 
HETATM    2  C5  UNL     1      23.254   1.797  50.618  1.00  0.00     0.142 C 
HETATM    3  C6  UNL     1      24.082   2.576  49.999  1.00  0.00     0.009 C 
HETATM    4  C7  UNL     1      25.004   3.666  49.720  1.00  0.00    -0.052 A 
HETATM    5  C8  UNL     1      26.266   3.663  49.365  1.00  0.00     0.007 A 
HETATM    6  C9  UNL     1      26.515   5.091  49.267  1.00  0.00    -0.003 A 
HETATM    7  C10 UNL     1      25.506   5.900  49.536  1.00  0.00    -0.017 A 
HETATM    8  C11 UNL     1      24.364   5.014  49.878  1.00  0.00     0.042 A 
HETATM    9  C12 UNL     1      23.159   5.175  49.031  1.00  0.00     0.033 C 
HETATM   10  C13 UNL     1      22.088   6.100  49.481  1.00  0.00     0.122 C 
HETATM   11  N2  UNL     1      21.415   5.778  50.697  1.00  0.00    -0.375 N 
HETATM   12  C14 UNL     1      20.666   4.664  51.082  1.00  0.00     0.128 A 
HETATM   13  C15 UNL     1      21.330   3.496  51.320  1.00  0.00     0.100 A 
HETATM   14  C16 UNL     1      21.305   2.170  51.672  1.00  0.00     0.136 A 
HETATM   15  N3  UNL     1      20.019   1.901  51.880  1.00  0.00    -0.224 NA
HETATM   16  C17 UNL     1      19.150   2.941  51.698  1.00  0.00     0.237 A 
HETATM   17  N4  UNL     1      19.424   4.229  51.328  1.00  0.00    -0.225 NA
HETATM   18  H14 UNL     1      21.249   6.199  51.635  1.00  0.00     0.161 HD
ENDROOT
BRANCH   1  19
HETATM   19  C4  UNL     1      22.543   0.571  52.830  1.00  0.00     0.037 A 
HETATM   20  C3  UNL     1      23.817   0.143  53.136  1.00  0.00     0.032 A 
HETATM   21  C2  UNL     1      24.085  -0.702  54.220  1.00  0.00     0.039 A 
HETATM   22  C1  UNL     1      23.013  -1.106  54.993  1.00  0.00     0.065 A 
HETATM   23  C19 UNL     1      21.755  -0.646  54.641  1.00  0.00     0.039 A 
HETATM   24  C18 UNL     1      21.472   0.184  53.582  1.00  0.00     0.032 A 
BRANCH  22  25
HETATM   25  O1  UNL     1      23.181  -1.947  56.093  1.00  0.00    -0.361 OA
HETATM   26  H1  UNL     1      23.768  -2.766  56.093  1.00  0.00     0.217 HD
ENDBRANCH  22  25
ENDBRANCH   1  19
TORSDOF 2
ENDMDL
MODEL 8
REMARK VINA RESULT:      -8.0      3.243      7.023
REMARK  2 active torsions:
REMARK  status: ('A' for Active; 'I' for Inactive)
REMARK    1  A    between atoms: O1_1  and  C1_2 
REMARK    2  A    between atoms: C4_5  and  N1_6 
ROOT
HETATM    1  N1  UNL     1      24.251   3.059  50.681  1.00  0.00    -0.321 N 
HETATM    2  C5  UNL     1      23.295   2.108  50.358  1.00  0.00     0.142 C 
HETATM    3  C6  UNL     1      22.218   1.432  50.595  1.00  0.00     0.009 C 
HETATM    4  C7  UNL     1      21.018   0.934  51.251  1.00  0.00    -0.052 A 
HETATM    5  C8  UNL     1      19.762   0.938  50.877  1.00  0.00     0.007 A 
HETATM    6  C9  UNL     1      19.145   0.282  52.017  1.00  0.00    -0.003 A 
HETATM    7  C10 UNL     1      19.942  -0.091  53.002  1.00  0.00    -0.017 A 
HETATM    8  C11 UNL     1      21.309   0.316  52.588  1.00  0.00     0.042 A 
HETATM    9  C12 UNL     1      22.302  -0.780  52.504  1.00  0.00     0.033 C 
HETATM   10  C13 UNL     1      23.153  -1.064  53.686  1.00  0.00     0.122 C 
HETATM   11  N2  UNL     1      24.049  -0.038  54.108  1.00  0.00    -0.375 N 
HETATM   12  C14 UNL     1      25.104   0.604  53.456  1.00  0.00     0.128 A 
HETATM   13  C15 UNL     1      24.801   1.490  52.463  1.00  0.00     0.100 A 
HETATM   14  C16 UNL     1      25.213   2.374  51.499  1.00  0.00     0.136 A 
HETATM   15  N3  UNL     1      26.541   2.359  51.571  1.00  0.00    -0.224 NA
HETATM   16  C17 UNL     1      27.081   1.527  52.514  1.00  0.00     0.237 A 
HETATM   17  N4  UNL     1      26.438   0.705  53.398  1.00  0.00    -0.225 NA
HETATM   18  H14 UNL     1      24.233   0.544  54.952  1.00  0.00     0.161 HD
ENDROOT
BRANCH   1  19
HETATM   19  C4  UNL     1      24.599   4.385  50.492  1.00  0.00     0.037 A 
HETATM   20  C3  UNL     1      23.958   5.225  51.378  1.00  0.00     0.032 A 
HETATM   21  C2  UNL     1      24.166   6.609  51.384  1.00  0.00     0.039 A 
HETATM   22  C1  UNL     1      25.053   7.124  50.458  1.00  0.00     0.065 A 
HETATM   23  C19 UNL     1      25.669   6.236  49.592  1.00  0.00     0.039 A 
HETATM   24  C18 UNL     1      25.478   4.875  49.571  1.00  0.00     0.032 A 
BRANCH  22  25
HETATM   25  O1  UNL     1      25.325   8.490  50.387  1.00  0.00    -0.361 OA
HETATM   26  H1  UNL     1      24.840   9.191  50.925  1.00  0.00     0.217 HD
ENDBRANCH  22  25
ENDBRANCH   1  19
TORSDOF 2
ENDMDL
MODEL 9
REMARK VINA RESULT:      -8.0      3.186      6.123
REMARK  2 active torsions:
REMARK  status: ('A' for Active; 'I' for Inactive)
REMARK    1  A    between atoms: O1_1  and  C1_2 
REMARK    2  A    between atoms: C4_5  and  N1_6 
ROOT
HETATM    1  N1  UNL     1      22.942   1.360  52.900  1.00  0.00    -0.321 N 
HETATM    2  C5  UNL     1      21.598   1.123  53.147  1.00  0.00     0.142 C 
HETATM    3  C6  UNL     1      20.392   0.838  52.776  1.00  0.00     0.009 C 
HETATM    4  C7  UNL     1      19.248   0.509  51.939  1.00  0.00    -0.052 A 
HETATM    5  C8  UNL     1      18.450  -0.530  51.933  1.00  0.00     0.007 A 
HETATM    6  C9  UNL     1      17.557  -0.171  50.844  1.00  0.00    -0.003 A 
HETATM    7  C10 UNL     1      17.782   0.980  50.235  1.00  0.00    -0.017 A 
HETATM    8  C11 UNL     1      18.964   1.568  50.914  1.00  0.00     0.042 A 
HETATM    9  C12 UNL     1      18.749   2.903  51.520  1.00  0.00     0.033 C 
HETATM   10  C13 UNL     1      19.078   4.111  50.722  1.00  0.00     0.122 C 
HETATM   11  N2  UNL     1      20.442   4.296  50.349  1.00  0.00    -0.375 N 
HETATM   12  C14 UNL     1      21.606   4.436  51.109  1.00  0.00     0.128 A 
HETATM   13  C15 UNL     1      22.091   3.333  51.749  1.00  0.00     0.100 A 
HETATM   14  C16 UNL     1      23.030   2.753  52.564  1.00  0.00     0.136 A 
HETATM   15  N3  UNL     1      23.864   3.743  52.874  1.00  0.00    -0.224 NA
HETATM   16  C17 UNL     1      23.571   4.966  52.335  1.00  0.00     0.237 A 
HETATM   17  N4  UNL     1      22.533   5.313  51.516  1.00  0.00    -0.225 NA
HETATM   18  H14 UNL     1      21.013   4.387  49.482  1.00  0.00     0.161 HD
ENDROOT
BRANCH   1  19
HETATM   19  C4  UNL     1      24.185   0.753  52.875  1.00  0.00     0.037 A 
HETATM   20  C3  UNL     1      24.349  -0.147  53.906  1.00  0.00     0.032 A 
HETATM   21  C2  UNL     1      25.523  -0.892  54.073  1.00  0.00     0.039 A 
HETATM   22  C1  UNL     1      26.537  -0.696  53.155  1.00  0.00     0.065 A 
HETATM   23  C19 UNL     1      26.320   0.219  52.139  1.00  0.00     0.039 A 
HETATM   24  C18 UNL     1      25.175   0.959  51.958  1.00  0.00     0.032 A 
BRANCH  22  25
HETATM   25  O1  UNL     1      27.742  -1.393  53.239  1.00  0.00    -0.361 OA
HETATM   26  H1  UNL     1      27.811  -2.393  53.337  1.00  0.00     0.217 HD
ENDBRANCH  22  25
ENDBRANCH   1  19
TORSDOF 2
ENDMDL
