MODEL 1
REMARK VINA RESULT:      -8.6      0.000      0.000
REMARK  4 active torsions:
REMARK  status: ('A' for Active; 'I' for Inactive)
REMARK    1  A    between atoms: C3_3  and  C4_4 
REMARK    2  A    between atoms: C3_3  and  C10_12 
REMARK    3  A    between atoms: C4_4  and  C5_5 
REMARK    4  A    between atoms: C12_14  and  C13_15 
ROOT
HETATM    1  C10 UNL     1      22.812   1.450  52.806  1.00  0.00     0.054 A 
HETATM    2  C11 UNL     1      23.168   2.360  51.695  1.00  0.00    -0.039 A 
HETATM    3  C12 UNL     1      23.433   3.104  50.662  1.00  0.00     0.036 C 
HETATM    4  N2  UNL     1      24.182   4.252  50.950  1.00  0.00    -0.351 N 
HETATM    5  C15 UNL     1      23.533   5.091  51.873  1.00  0.00     0.207 C 
HETATM    6  N3  UNL     1      22.394   5.142  52.361  1.00  0.00    -0.255 NA
HETATM    7  C16 UNL     1      21.353   4.252  52.049  1.00  0.00     0.136 C 
HETATM    8  C17 UNL     1      20.550   3.242  51.740  1.00  0.00     0.040 C 
HETATM    9  C18 UNL     1      19.143   3.629  51.657  1.00  0.00     0.096 C 
HETATM   10  N4  UNL     1      18.001   3.922  51.594  1.00  0.00    -0.192 NA
HETATM   11  C19 UNL     1      20.746   1.816  51.432  1.00  0.00     0.061 C 
HETATM   12  C20 UNL     1      22.180   1.343  51.420  1.00  0.00     0.035 A 
HETATM   13  H18 UNL     1      25.117   4.408  50.461  1.00  0.00     0.166 HD
ENDROOT
BRANCH   1  14
HETATM   14  C3  UNL     1      23.694   0.343  53.225  1.00  0.00    -0.072 C 
HETATM   15  C2  UNL     1      23.409  -0.807  53.895  1.00  0.00    -0.027 C 
HETATM   16  C1  UNL     1      22.296  -1.579  54.535  1.00  0.00     0.036 C 
BRANCH  14  17
HETATM   17  C4  UNL     1      25.144   0.566  52.820  1.00  0.00     0.078 C 
BRANCH  17  18
HETATM   18  C5  UNL     1      25.948   1.226  53.894  1.00  0.00     0.293 C 
HETATM   19  N1  UNL     1      26.766   2.278  53.251  1.00  0.00     0.095 N 
HETATM   20  C6  UNL     1      28.147   2.176  53.712  1.00  0.00     0.271 C 
HETATM   21  H8  UNL     1      26.761   2.135  52.210  1.00  0.00     0.316 HD
HETATM   22  C7  UNL     1      28.840   0.956  53.112  1.00  0.00     0.037 C 
HETATM   23  C8  UNL     1      28.013  -0.273  53.482  1.00  0.00     0.082 C 
HETATM   24  C9  UNL     1      26.927   0.208  54.395  1.00  0.00     0.160 C 
HETATM   25  O1  UNL     1      26.819  -0.222  55.555  1.00  0.00    -0.296 OA
ENDBRANCH  17  18
ENDBRANCH  14  17
ENDBRANCH   1  14
BRANCH   3  26
HETATM   26  C13 UNL     1      23.064   2.977  49.216  1.00  0.00     0.037 C 
HETATM   27  C14 UNL     1      22.273   3.583  48.376  1.00  0.00     0.058 C 
HETATM   28 BR1  UNL     1      21.893   3.303  46.507  1.00  0.00    -0.064 Br
ENDBRANCH   3  26
TORSDOF 4
ENDMDL
MODEL 2
REMARK VINA RESULT:      -8.2      2.115      2.487
REMARK  4 active torsions:
REMARK  status: ('A' for Active; 'I' for Inactive)
REMARK    1  A    between atoms: C3_3  and  C4_4 
REMARK    2  A    between atoms: C3_3  and  C10_12 
REMARK    3  A    between atoms: C4_4  and  C5_5 
REMARK    4  A    between atoms: C12_14  and  C13_15 
ROOT
HETATM    1  C10 UNL     1      22.899   1.602  52.328  1.00  0.00     0.054 A 
HETATM    2  C11 UNL     1      23.457   2.926  51.975  1.00  0.00    -0.039 A 
HETATM    3  C12 UNL     1      23.994   4.048  51.596  1.00  0.00     0.036 C 
HETATM    4  N2  UNL     1      23.583   5.166  52.333  1.00  0.00    -0.351 N 
HETATM    5  C15 UNL     1      22.192   5.363  52.267  1.00  0.00     0.207 C 
HETATM    6  N3  UNL     1      21.271   4.888  51.585  1.00  0.00    -0.255 NA
HETATM    7  C16 UNL     1      21.440   3.920  50.582  1.00  0.00     0.136 C 
HETATM    8  C17 UNL     1      21.776   2.915  49.784  1.00  0.00     0.040 C 
HETATM    9  C18 UNL     1      20.992   2.874  48.549  1.00  0.00     0.096 C 
HETATM   10  N4  UNL     1      20.364   2.821  47.552  1.00  0.00    -0.192 NA
HETATM   11  C19 UNL     1      22.777   1.838  49.834  1.00  0.00     0.061 C 
HETATM   12  C20 UNL     1      23.684   1.848  51.041  1.00  0.00     0.035 A 
HETATM   13  H18 UNL     1      24.310   5.763  52.836  1.00  0.00     0.166 HD
ENDROOT
BRANCH   1  14
HETATM   14  C3  UNL     1      23.530   0.730  53.339  1.00  0.00    -0.072 C 
HETATM   15  C2  UNL     1      23.144  -0.482  53.822  1.00  0.00    -0.027 C 
HETATM   16  C1  UNL     1      22.081  -1.532  53.720  1.00  0.00     0.036 C 
BRANCH  14  17
HETATM   17  C4  UNL     1      24.814   1.321  53.900  1.00  0.00     0.078 C 
BRANCH  17  18
HETATM   18  C5  UNL     1      25.957   0.358  53.863  1.00  0.00     0.293 C 
HETATM   19  N1  UNL     1      26.873   0.714  54.969  1.00  0.00     0.095 N 
HETATM   20  C6  UNL     1      28.245   0.764  54.473  1.00  0.00     0.271 C 
HETATM   21  H8  UNL     1      26.625   1.669  55.332  1.00  0.00     0.316 HD
HETATM   22  C7  UNL     1      28.469   1.990  53.593  1.00  0.00     0.037 C 
HETATM   23  C8  UNL     1      27.445   1.940  52.462  1.00  0.00     0.082 C 
HETATM   24  C9  UNL     1      26.721   0.636  52.605  1.00  0.00     0.160 C 
HETATM   25  O1  UNL     1      26.740  -0.218  51.702  1.00  0.00    -0.296 OA
ENDBRANCH  17  18
ENDBRANCH  14  17
ENDBRANCH   1  14
BRANCH   3  26
HETATM   26  C13 UNL     1      24.956   4.376  50.496  1.00  0.00     0.037 C 
HETATM   27  C14 UNL     1      25.617   5.422  50.087  1.00  0.00     0.058 C 
HETATM   28 BR1  UNL     1      26.843   5.701  48.626  1.00  0.00    -0.064 Br
ENDBRANCH   3  26
TORSDOF 4
ENDMDL
MODEL 3
REMARK VINA RESULT:      -8.1      2.062      2.896
REMARK  4 active torsions:
REMARK  status: ('A' for Active; 'I' for Inactive)
REMARK    1  A    between atoms: C3_3  and  C4_4 
REMARK    2  A    between atoms: C3_3  and  C10_12 
REMARK    3  A    between atoms: C4_4  and  C5_5 
REMARK    4  A    between atoms: C12_14  and  C13_15 
ROOT
HETATM    1  C10 UNL     1      23.674   1.803  51.730  1.00  0.00     0.054 A 
HETATM    2  C11 UNL     1      22.448   1.523  50.950  1.00  0.00    -0.039 A 
HETATM    3  C12 UNL     1      21.322   1.300  50.339  1.00  0.00     0.036 C 
HETATM    4  N2  UNL     1      21.455   0.906  49.002  1.00  0.00    -0.351 N 
HETATM    5  C15 UNL     1      22.128   1.870  48.229  1.00  0.00     0.207 C 
HETATM    6  N3  UNL     1      22.481   3.045  48.408  1.00  0.00    -0.255 NA
HETATM    7  C16 UNL     1      22.246   3.778  49.582  1.00  0.00     0.136 C 
HETATM    8  C17 UNL     1      22.061   4.254  50.807  1.00  0.00     0.040 C 
HETATM    9  C18 UNL     1      21.765   5.686  50.830  1.00  0.00     0.096 C 
HETATM   10  N4  UNL     1      21.533   6.842  50.867  1.00  0.00    -0.192 NA
HETATM   11  C19 UNL     1      22.056   3.671  52.158  1.00  0.00     0.061 C 
HETATM   12  C20 UNL     1      22.279   2.179  52.225  1.00  0.00     0.035 A 
HETATM   13  H18 UNL     1      21.041  -0.023  48.681  1.00  0.00     0.166 HD
ENDROOT
BRANCH   1  14
HETATM   14  C3  UNL     1      24.385   0.747  52.477  1.00  0.00    -0.072 C 
HETATM   15  C2  UNL     1      23.902  -0.288  53.217  1.00  0.00    -0.027 C 
HETATM   16  C1  UNL     1      22.638  -0.933  53.697  1.00  0.00     0.036 C 
BRANCH  14  17
HETATM   17  C4  UNL     1      25.898   0.874  52.373  1.00  0.00     0.078 C 
BRANCH  17  18
HETATM   18  C5  UNL     1      26.522   1.380  53.633  1.00  0.00     0.293 C 
HETATM   19  N1  UNL     1      27.606   2.311  53.249  1.00  0.00     0.095 N 
HETATM   20  C6  UNL     1      28.817   1.991  53.997  1.00  0.00     0.271 C 
HETATM   21  H8  UNL     1      27.816   2.196  52.226  1.00  0.00     0.316 HD
HETATM   22  C7  UNL     1      29.448   0.695  53.496  1.00  0.00     0.037 C 
HETATM   23  C8  UNL     1      28.393  -0.403  53.603  1.00  0.00     0.082 C 
HETATM   24  C9  UNL     1      27.207   0.214  54.279  1.00  0.00     0.160 C 
HETATM   25  O1  UNL     1      26.779  -0.221  55.361  1.00  0.00    -0.296 OA
ENDBRANCH  17  18
ENDBRANCH  14  17
ENDBRANCH   1  14
BRANCH   3  26
HETATM   26  C13 UNL     1      19.899   1.411  50.792  1.00  0.00     0.037 C 
HETATM   27  C14 UNL     1      18.881   2.190  50.559  1.00  0.00     0.058 C 
HETATM   28 BR1  UNL     1      17.074   2.212  51.230  1.00  0.00    -0.064 Br
ENDBRANCH   3  26
TORSDOF 4
ENDMDL
MODEL 4
REMARK VINA RESULT:      -8.0      2.385      3.718
REMARK  4 active torsions:
REMARK  status: ('A' for Active; 'I' for Inactive)
REMARK    1  A    between atoms: C3_3  and  C4_4 
REMARK    2  A    between atoms: C3_3  and  C10_12 
REMARK    3  A    between atoms: C4_4  and  C5_5 
REMARK    4  A    between atoms: C12_14  and  C13_15 
ROOT
HETATM    1  C10 UNL     1      24.781   4.039  50.350  1.00  0.00     0.054 A 
HETATM    2  C11 UNL     1      23.915   4.786  49.411  1.00  0.00    -0.039 A 
HETATM    3  C12 UNL     1      23.124   5.361  48.554  1.00  0.00     0.036 C 
HETATM    4  N2  UNL     1      23.117   6.760  48.619  1.00  0.00    -0.351 N 
HETATM    5  C15 UNL     1      22.722   7.231  49.883  1.00  0.00     0.207 C 
HETATM    6  N3  UNL     1      22.221   6.713  50.893  1.00  0.00    -0.255 NA
HETATM    7  C16 UNL     1      21.886   5.355  51.010  1.00  0.00     0.136 C 
HETATM    8  C17 UNL     1      21.771   4.033  50.981  1.00  0.00     0.040 C 
HETATM    9  C18 UNL     1      20.609   3.540  51.721  1.00  0.00     0.096 C 
HETATM   10  N4  UNL     1      19.681   3.125  52.320  1.00  0.00    -0.192 NA
HETATM   11  C19 UNL     1      22.527   2.938  50.354  1.00  0.00     0.061 C 
HETATM   12  C20 UNL     1      23.703   3.360  49.507  1.00  0.00     0.035 A 
HETATM   13  H18 UNL     1      23.371   7.330  47.753  1.00  0.00     0.166 HD
ENDROOT
BRANCH   1  14
HETATM   14  C3  UNL     1      26.184   3.711  50.028  1.00  0.00    -0.072 C 
HETATM   15  C2  UNL     1      27.095   4.380  49.270  1.00  0.00    -0.027 C 
HETATM   16  C1  UNL     1      27.287   5.602  48.425  1.00  0.00     0.036 C 
BRANCH  14  17
HETATM   17  C4  UNL     1      26.642   2.410  50.670  1.00  0.00     0.078 C 
BRANCH  17  18
HETATM   18  C5  UNL     1      26.142   2.250  52.071  1.00  0.00     0.293 C 
HETATM   19  N1  UNL     1      27.313   2.333  52.971  1.00  0.00     0.095 N 
HETATM   20  C6  UNL     1      27.274   1.234  53.931  1.00  0.00     0.271 C 
HETATM   21  H8  UNL     1      28.194   2.240  52.406  1.00  0.00     0.316 HD
HETATM   22  C7  UNL     1      27.603  -0.096  53.259  1.00  0.00     0.037 C 
HETATM   23  C8  UNL     1      26.614  -0.291  52.112  1.00  0.00     0.082 C 
HETATM   24  C9  UNL     1      25.640   0.844  52.197  1.00  0.00     0.160 C 
HETATM   25  O1  UNL     1      24.426   0.643  52.366  1.00  0.00    -0.296 OA
ENDBRANCH  17  18
ENDBRANCH  14  17
ENDBRANCH   1  14
BRANCH   3  26
HETATM   26  C13 UNL     1      22.194   4.805  47.520  1.00  0.00     0.037 C 
HETATM   27  C14 UNL     1      22.049   4.879  46.227  1.00  0.00     0.058 C 
HETATM   28 BR1  UNL     1      20.780   4.093  45.009  1.00  0.00    -0.064 Br
ENDBRANCH   3  26
TORSDOF 4
ENDMDL
MODEL 5
REMARK VINA RESULT:      -7.5      3.154      5.426
REMARK  4 active torsions:
REMARK  status: ('A' for Active; 'I' for Inactive)
REMARK    1  A    between atoms: C3_3  and  C4_4 
REMARK    2  A    between atoms: C3_3  and  C10_12 
REMARK    3  A    between atoms: C4_4  and  C5_5 
REMARK    4  A    between atoms: C12_14  and  C13_15 
ROOT
HETATM    1  C10 UNL     1      22.940   2.660  50.971  1.00  0.00     0.054 A 
HETATM    2  C11 UNL     1      23.773   3.880  50.874  1.00  0.00    -0.039 A 
HETATM    3  C12 UNL     1      24.558   4.906  50.729  1.00  0.00     0.036 C 
HETATM    4  N2  UNL     1      24.174   6.038  51.460  1.00  0.00    -0.351 N 
HETATM    5  C15 UNL     1      22.887   6.485  51.110  1.00  0.00     0.207 C 
HETATM    6  N3  UNL     1      22.085   6.221  50.202  1.00  0.00    -0.255 NA
HETATM    7  C16 UNL     1      22.322   5.294  49.174  1.00  0.00     0.136 C 
HETATM    8  C17 UNL     1      22.666   4.290  48.377  1.00  0.00     0.040 C 
HETATM    9  C18 UNL     1      22.194   4.458  47.003  1.00  0.00     0.096 C 
HETATM   10  N4  UNL     1      21.814   4.573  45.892  1.00  0.00    -0.192 NA
HETATM   11  C19 UNL     1      23.440   3.050  48.544  1.00  0.00     0.061 C 
HETATM   12  C20 UNL     1      24.031   2.831  49.916  1.00  0.00     0.035 A 
HETATM   13  H18 UNL     1      24.852   6.466  52.164  1.00  0.00     0.166 HD
ENDROOT
BRANCH   1  14
HETATM   14  C3  UNL     1      23.170   1.636  52.009  1.00  0.00    -0.072 C 
HETATM   15  C2  UNL     1      24.146   1.540  52.952  1.00  0.00    -0.027 C 
HETATM   16  C1  UNL     1      25.376   2.212  53.481  1.00  0.00     0.036 C 
BRANCH  14  17
HETATM   17  C4  UNL     1      22.123   0.533  51.983  1.00  0.00     0.078 C 
BRANCH  17  18
HETATM   18  C5  UNL     1      21.038   0.742  52.990  1.00  0.00     0.293 C 
HETATM   19  N1  UNL     1      20.439  -0.579  53.279  1.00  0.00     0.095 N 
HETATM   20  C6  UNL     1      18.984  -0.483  53.219  1.00  0.00     0.271 C 
HETATM   21  H8  UNL     1      20.749  -1.268  52.548  1.00  0.00     0.316 HD
HETATM   22  C7  UNL     1      18.500  -0.327  51.780  1.00  0.00     0.037 C 
HETATM   23  C8  UNL     1      19.188   0.903  51.192  1.00  0.00     0.082 C 
HETATM   24  C9  UNL     1      19.959   1.531  52.312  1.00  0.00     0.160 C 
HETATM   25  O1  UNL     1      19.725   2.692  52.688  1.00  0.00    -0.296 OA
ENDBRANCH  17  18
ENDBRANCH  14  17
ENDBRANCH   1  14
BRANCH   3  26
HETATM   26  C13 UNL     1      25.788   5.116  49.903  1.00  0.00     0.037 C 
HETATM   27  C14 UNL     1      26.294   6.066  49.168  1.00  0.00     0.058 C 
HETATM   28 BR1  UNL     1      27.921   6.196  48.142  1.00  0.00    -0.064 Br
ENDBRANCH   3  26
TORSDOF 4
ENDMDL
MODEL 6
REMARK VINA RESULT:      -7.2      2.843      3.946
REMARK  4 active torsions:
REMARK  status: ('A' for Active; 'I' for Inactive)
REMARK    1  A    between atoms: C3_3  and  C4_4 
REMARK    2  A    between atoms: C3_3  and  C10_12 
REMARK    3  A    between atoms: C4_4  and  C5_5 
REMARK    4  A    between atoms: C12_14  and  C13_15 
ROOT
HETATM    1  C10 UNL     1      22.796   3.422  50.521  1.00  0.00     0.054 A 
HETATM    2  C11 UNL     1      23.829   4.480  50.583  1.00  0.00    -0.039 A 
HETATM    3  C12 UNL     1      24.778   5.369  50.567  1.00  0.00     0.036 C 
HETATM    4  N2  UNL     1      24.633   6.390  51.515  1.00  0.00    -0.351 N 
HETATM    5  C15 UNL     1      23.433   7.105  51.345  1.00  0.00     0.207 C 
HETATM    6  N3  UNL     1      22.562   7.156  50.464  1.00  0.00    -0.255 NA
HETATM    7  C16 UNL     1      22.587   6.414  49.273  1.00  0.00     0.136 C 
HETATM    8  C17 UNL     1      22.714   5.535  48.287  1.00  0.00     0.040 C 
HETATM    9  C18 UNL     1      22.225   6.035  47.003  1.00  0.00     0.096 C 
HETATM   10  N4  UNL     1      21.828   6.420  45.960  1.00  0.00    -0.192 NA
HETATM   11  C19 UNL     1      23.260   4.173  48.173  1.00  0.00     0.061 C 
HETATM   12  C20 UNL     1      23.857   3.603  49.437  1.00  0.00     0.035 A 
HETATM   13  H18 UNL     1      25.404   6.558  52.233  1.00  0.00     0.166 HD
ENDROOT
BRANCH   1  14
HETATM   14  C3  UNL     1      22.880   2.196  51.339  1.00  0.00    -0.072 C 
HETATM   15  C2  UNL     1      22.094   1.085  51.346  1.00  0.00    -0.027 C 
HETATM   16  C1  UNL     1      20.889   0.462  50.711  1.00  0.00     0.036 C 
BRANCH  14  17
HETATM   17  C4  UNL     1      24.048   2.223  52.314  1.00  0.00     0.078 C 
BRANCH  17  18
HETATM   18  C5  UNL     1      25.195   1.377  51.864  1.00  0.00     0.293 C 
HETATM   19  N1  UNL     1      25.181   0.142  52.679  1.00  0.00     0.095 N 
HETATM   20  C6  UNL     1      26.522  -0.127  53.187  1.00  0.00     0.271 C 
HETATM   21  H8  UNL     1      24.543   0.276  53.503  1.00  0.00     0.316 HD
HETATM   22  C7  UNL     1      26.904   0.861  54.286  1.00  0.00     0.037 C 
HETATM   23  C8  UNL     1      26.774   2.268  53.708  1.00  0.00     0.082 C 
HETATM   24  C9  UNL     1      26.449   2.099  52.255  1.00  0.00     0.160 C 
HETATM   25  O1  UNL     1      27.195   2.547  51.368  1.00  0.00    -0.296 OA
ENDBRANCH  17  18
ENDBRANCH  14  17
ENDBRANCH   1  14
BRANCH   3  26
HETATM   26  C13 UNL     1      25.992   5.520  49.705  1.00  0.00     0.037 C 
HETATM   27  C14 UNL     1      26.566   6.471  49.023  1.00  0.00     0.058 C 
HETATM   28 BR1  UNL     1      28.158   6.521  47.937  1.00  0.00    -0.064 Br
ENDBRANCH   3  26
TORSDOF 4
ENDMDL
MODEL 7
REMARK VINA RESULT:      -7.1     11.265     13.979
REMARK  4 active torsions:
REMARK  status: ('A' for Active; 'I' for Inactive)
REMARK    1  A    between atoms: C3_3  and  C4_4 
REMARK    2  A    between atoms: C3_3  and  C10_12 
REMARK    3  A    between atoms: C4_4  and  C5_5 
REMARK    4  A    between atoms: C12_14  and  C13_15 
ROOT
HETATM    1  C10 UNL     1      34.230   4.824  44.705  1.00  0.00     0.054 A 
HETATM    2  C11 UNL     1      33.550   5.629  45.744  1.00  0.00    -0.039 A 
HETATM    3  C12 UNL     1      32.874   6.292  46.636  1.00  0.00     0.036 C 
HETATM    4  N2  UNL     1      33.638   7.189  47.394  1.00  0.00    -0.351 N 
HETATM    5  C15 UNL     1      34.673   6.545  48.095  1.00  0.00     0.207 C 
HETATM    6  N3  UNL     1      34.966   5.364  48.334  1.00  0.00    -0.255 NA
HETATM    7  C16 UNL     1      34.220   4.255  47.903  1.00  0.00     0.136 C 
HETATM    8  C17 UNL     1      33.474   3.343  47.293  1.00  0.00     0.040 C 
HETATM    9  C18 UNL     1      33.305   2.119  48.075  1.00  0.00     0.096 C 
HETATM   10  N4  UNL     1      33.165   1.121  48.690  1.00  0.00    -0.192 NA
HETATM   11  C19 UNL     1      32.748   3.281  46.015  1.00  0.00     0.061 C 
HETATM   12  C20 UNL     1      32.805   4.532  45.172  1.00  0.00     0.035 A 
HETATM   13  H18 UNL     1      33.380   8.224  47.403  1.00  0.00     0.166 HD
ENDROOT
BRANCH   1  14
HETATM   14  C3  UNL     1      34.392   5.310  43.321  1.00  0.00    -0.072 C 
HETATM   15  C2  UNL     1      34.437   6.579  42.831  1.00  0.00    -0.027 C 
HETATM   16  C1  UNL     1      34.363   8.022  43.226  1.00  0.00     0.036 C 
BRANCH  14  17
HETATM   17  C4  UNL     1      34.530   4.176  42.316  1.00  0.00     0.078 C 
BRANCH  17  18
HETATM   18  C5  UNL     1      33.883   4.486  41.004  1.00  0.00     0.293 C 
HETATM   19  N1  UNL     1      32.465   4.077  41.101  1.00  0.00     0.095 N 
HETATM   20  C6  UNL     1      32.097   3.294  39.925  1.00  0.00     0.271 C 
HETATM   21  H8  UNL     1      32.336   3.469  41.948  1.00  0.00     0.316 HD
HETATM   22  C7  UNL     1      32.733   1.907  39.965  1.00  0.00     0.037 C 
HETATM   23  C8  UNL     1      34.243   2.095  40.088  1.00  0.00     0.082 C 
HETATM   24  C9  UNL     1      34.495   3.569  39.988  1.00  0.00     0.160 C 
HETATM   25  O1  UNL     1      35.202   4.045  39.085  1.00  0.00    -0.296 OA
ENDBRANCH  17  18
ENDBRANCH  14  17
ENDBRANCH   1  14
BRANCH   3  26
HETATM   26  C13 UNL     1      31.429   6.258  47.025  1.00  0.00     0.037 C 
HETATM   27  C14 UNL     1      30.698   5.675  47.933  1.00  0.00     0.058 C 
HETATM   28 BR1  UNL     1      28.811   5.727  48.320  1.00  0.00    -0.064 Br
ENDBRANCH   3  26
TORSDOF 4
ENDMDL
MODEL 8
REMARK VINA RESULT:      -6.9      3.168      5.144
REMARK  4 active torsions:
REMARK  status: ('A' for Active; 'I' for Inactive)
REMARK    1  A    between atoms: C3_3  and  C4_4 
REMARK    2  A    between atoms: C3_3  and  C10_12 
REMARK    3  A    between atoms: C4_4  and  C5_5 
REMARK    4  A    between atoms: C12_14  and  C13_15 
ROOT
HETATM    1  C10 UNL     1      23.696   3.836  50.849  1.00  0.00     0.054 A 
HETATM    2  C11 UNL     1      24.530   5.027  50.576  1.00  0.00    -0.039 A 
HETATM    3  C12 UNL     1      25.297   6.030  50.263  1.00  0.00     0.036 C 
HETATM    4  N2  UNL     1      25.157   7.149  51.094  1.00  0.00    -0.351 N 
HETATM    5  C15 UNL     1      23.844   7.652  51.089  1.00  0.00     0.207 C 
HETATM    6  N3  UNL     1      22.830   7.448  50.404  1.00  0.00    -0.255 NA
HETATM    7  C16 UNL     1      22.763   6.549  49.328  1.00  0.00     0.136 C 
HETATM    8  C17 UNL     1      22.854   5.561  48.447  1.00  0.00     0.040 C 
HETATM    9  C18 UNL     1      22.061   5.792  47.239  1.00  0.00     0.096 C 
HETATM   10  N4  UNL     1      21.422   5.958  46.262  1.00  0.00    -0.192 NA
HETATM   11  C19 UNL     1      23.591   4.290  48.385  1.00  0.00     0.061 C 
HETATM   12  C20 UNL     1      24.496   4.003  49.559  1.00  0.00     0.035 A 
HETATM   13  H18 UNL     1      26.006   7.529  51.616  1.00  0.00     0.166 HD
ENDROOT
BRANCH   1  14
HETATM   14  C3  UNL     1      24.134   2.769  51.772  1.00  0.00    -0.072 C 
HETATM   15  C2  UNL     1      25.373   2.254  52.000  1.00  0.00    -0.027 C 
HETATM   16  C1  UNL     1      26.810   2.355  51.589  1.00  0.00     0.036 C 
BRANCH  14  17
HETATM   17  C4  UNL     1      22.983   2.183  52.575  1.00  0.00     0.078 C 
BRANCH  17  18
HETATM   18  C5  UNL     1      22.493   0.885  52.018  1.00  0.00     0.293 C 
HETATM   19  N1  UNL     1      21.093   1.088  51.585  1.00  0.00     0.095 N 
HETATM   20  C6  UNL     1      20.259   0.002  52.090  1.00  0.00     0.271 C 
HETATM   21  H8  UNL     1      20.732   1.989  51.989  1.00  0.00     0.316 HD
HETATM   22  C7  UNL     1      20.046   0.124  53.596  1.00  0.00     0.037 C 
HETATM   23  C8  UNL     1      21.423   0.153  54.256  1.00  0.00     0.082 C 
HETATM   24  C9  UNL     1      22.421  -0.081  53.162  1.00  0.00     0.160 C 
HETATM   25  O1  UNL     1      23.190  -1.056  53.186  1.00  0.00    -0.296 OA
ENDBRANCH  17  18
ENDBRANCH  14  17
ENDBRANCH   1  14
BRANCH   3  26
HETATM   26  C13 UNL     1      26.290   6.224  49.160  1.00  0.00     0.037 C 
HETATM   27  C14 UNL     1      27.055   7.183  48.721  1.00  0.00     0.058 C 
HETATM   28 BR1  UNL     1      28.307   7.290  47.260  1.00  0.00    -0.064 Br
ENDBRANCH   3  26
TORSDOF 4
ENDMDL
MODEL 9
REMARK VINA RESULT:      -6.7      1.801      2.420
REMARK  4 active torsions:
REMARK  status: ('A' for Active; 'I' for Inactive)
REMARK    1  A    between atoms: C3_3  and  C4_4 
REMARK    2  A    between atoms: C3_3  and  C10_12 
REMARK    3  A    between atoms: C4_4  and  C5_5 
REMARK    4  A    between atoms: C12_14  and  C13_15 
ROOT
HETATM    1  C10 UNL     1      21.194   0.776  52.206  1.00  0.00     0.054 A 
HETATM    2  C11 UNL     1      21.199   1.947  51.303  1.00  0.00    -0.039 A 
HETATM    3  C12 UNL     1      21.211   2.919  50.438  1.00  0.00     0.036 C 
HETATM    4  N2  UNL     1      21.060   4.194  50.996  1.00  0.00    -0.351 N 
HETATM    5  C15 UNL     1      19.852   4.325  51.704  1.00  0.00     0.207 C 
HETATM    6  N3  UNL     1      18.822   3.642  51.812  1.00  0.00    -0.255 NA
HETATM    7  C16 UNL     1      18.601   2.423  51.152  1.00  0.00     0.136 C 
HETATM    8  C17 UNL     1      18.635   1.234  50.563  1.00  0.00     0.040 C 
HETATM    9  C18 UNL     1      17.331   0.803  50.060  1.00  0.00     0.096 C 
HETATM   10  N4  UNL     1      16.285   0.437  49.655  1.00  0.00    -0.192 NA
HETATM   11  C19 UNL     1      19.688   0.250  50.271  1.00  0.00     0.061 C 
HETATM   12  C20 UNL     1      21.084   0.646  50.689  1.00  0.00     0.035 A 
HETATM   13  H18 UNL     1      21.811   4.934  50.833  1.00  0.00     0.166 HD
ENDROOT
BRANCH   1  14
HETATM   14  C3  UNL     1      22.430   0.265  52.832  1.00  0.00    -0.072 C 
HETATM   15  C2  UNL     1      22.618  -0.768  53.699  1.00  0.00    -0.027 C 
HETATM   16  C1  UNL     1      21.903  -1.845  54.456  1.00  0.00     0.036 C 
BRANCH  14  17
HETATM   17  C4  UNL     1      23.665   1.046  52.411  1.00  0.00     0.078 C 
BRANCH  17  18
HETATM   18  C5  UNL     1      24.813   0.863  53.351  1.00  0.00     0.293 C 
HETATM   19  N1  UNL     1      25.332   2.207  53.686  1.00  0.00     0.095 N 
HETATM   20  C6  UNL     1      26.785   2.221  53.550  1.00  0.00     0.271 C 
HETATM   21  H8  UNL     1      24.937   2.910  53.011  1.00  0.00     0.316 HD
HETATM   22  C7  UNL     1      27.202   2.178  52.083  1.00  0.00     0.037 C 
HETATM   23  C8  UNL     1      26.573   0.935  51.460  1.00  0.00     0.082 C 
HETATM   24  C9  UNL     1      25.907   0.192  52.578  1.00  0.00     0.160 C 
HETATM   25  O1  UNL     1      26.242  -0.967  52.875  1.00  0.00    -0.296 OA
ENDBRANCH  17  18
ENDBRANCH  14  17
ENDBRANCH   1  14
BRANCH   3  26
HETATM   26  C13 UNL     1      21.331   2.928  48.946  1.00  0.00     0.037 C 
HETATM   27  C14 UNL     1      22.001   3.592  48.046  1.00  0.00     0.058 C 
HETATM   28 BR1  UNL     1      22.054   3.493  46.122  1.00  0.00    -0.064 Br
ENDBRANCH   3  26
TORSDOF 4
ENDMDL
