MODEL 1
REMARK VINA RESULT:      -8.2      0.000      0.000
REMARK  7 active torsions:
REMARK  status: ('A' for Active; 'I' for Inactive)
REMARK    1  A    between atoms: C5_5  and  C6_6 
REMARK    2  A    between atoms: C7_8  and  C8_9 
REMARK    3  A    between atoms: C7_8  and  N2_14 
REMARK    4  A    between atoms: C8_9  and  C9_10 
REMARK    5  A    between atoms: C10_11  and  C11_12 
REMARK    6  A    between atoms: N2_14  and  C13_15 
REMARK    7  A    between atoms: C14_17  and  O1_18 
ROOT
HETATM    1  C6  UNL     1      25.187   4.103  50.785  1.00  0.00     0.101 C 
HETATM    2  N1  UNL     1      25.519   3.063  51.434  1.00  0.00    -0.249 NA
HETATM    3  C7  UNL     1      24.591   2.438  52.269  1.00  0.00     0.140 C 
HETATM    4  C16 UNL     1      23.567   3.451  52.802  1.00  0.00     0.137 C 
HETATM    5  S2  UNL     1      23.460   4.434  51.242  1.00  0.00    -0.105 SA
ENDROOT
BRANCH   3   6
HETATM    6  C8  UNL     1      23.764   1.363  51.596  1.00  0.00     0.083 C 
BRANCH   6   7
HETATM    7  C9  UNL     1      22.880   0.622  52.491  1.00  0.00    -0.022 C 
HETATM    8  C10 UNL     1      22.920  -0.543  53.116  1.00  0.00    -0.005 C 
BRANCH   8   9
HETATM    9  C11 UNL     1      21.819  -0.962  53.952  1.00  0.00    -0.011 C 
HETATM   10  C12 UNL     1      21.180  -0.050  54.652  1.00  0.00     0.011 C 
ENDBRANCH   8   9
ENDBRANCH   6   7
ENDBRANCH   3   6
BRANCH   3  11
HETATM   11  N2  UNL     1      25.302   1.932  53.439  1.00  0.00    -0.340 N 
HETATM   12  H13 UNL     1      24.816   1.781  54.366  1.00  0.00     0.164 HD
BRANCH  11  13
HETATM   13  C13 UNL     1      26.649   1.539  53.694  1.00  0.00     0.171 A 
HETATM   14  N3  UNL     1      27.592   2.129  54.073  1.00  0.00    -0.200 NA
HETATM   15  C14 UNL     1      28.796   1.582  54.254  1.00  0.00     0.171 A 
HETATM   16  C15 UNL     1      28.957   0.134  53.957  1.00  0.00     0.111 A 
HETATM   17  S1  UNL     1      27.187  -0.259  53.411  1.00  0.00    -0.060 SA
BRANCH  15  18
HETATM   18  O1  UNL     1      29.811   2.448  54.717  1.00  0.00    -0.344 OA
HETATM   19  H14 UNL     1      30.575   2.713  54.089  1.00  0.00     0.219 HD
ENDBRANCH  15  18
ENDBRANCH  11  13
ENDBRANCH   3  11
BRANCH   1  20
HETATM   20  C5  UNL     1      25.991   4.901  49.867  1.00  0.00    -0.001 A 
HETATM   21  C4  UNL     1      25.614   6.200  49.601  1.00  0.00     0.015 A 
HETATM   22  C3  UNL     1      26.400   6.937  48.722  1.00  0.00     0.007 A 
HETATM   23  C2  UNL     1      27.531   6.352  48.144  1.00  0.00    -0.062 A 
HETATM   24  C1  UNL     1      28.313   7.224  47.211  1.00  0.00     0.048 C 
HETATM   25  C18 UNL     1      27.885   5.046  48.430  1.00  0.00     0.007 A 
HETATM   26  C17 UNL     1      27.104   4.311  49.304  1.00  0.00     0.015 A 
ENDBRANCH   1  20
TORSDOF 7
ENDMDL
MODEL 2
REMARK VINA RESULT:      -7.6      3.030      6.842
REMARK  7 active torsions:
REMARK  status: ('A' for Active; 'I' for Inactive)
REMARK    1  A    between atoms: C5_5  and  C6_6 
REMARK    2  A    between atoms: C7_8  and  C8_9 
REMARK    3  A    between atoms: C7_8  and  N2_14 
REMARK    4  A    between atoms: C8_9  and  C9_10 
REMARK    5  A    between atoms: C10_11  and  C11_12 
REMARK    6  A    between atoms: N2_14  and  C13_15 
REMARK    7  A    between atoms: C14_17  and  O1_18 
ROOT
HETATM    1  C6  UNL     1      25.192   1.559  52.402  1.00  0.00     0.101 C 
HETATM    2  N1  UNL     1      24.297   1.207  51.572  1.00  0.00    -0.249 NA
HETATM    3  C7  UNL     1      23.174   2.013  51.377  1.00  0.00     0.140 C 
HETATM    4  C16 UNL     1      22.851   2.817  52.644  1.00  0.00     0.137 C 
HETATM    5  S2  UNL     1      24.611   3.129  53.110  1.00  0.00    -0.105 SA
ENDROOT
BRANCH   3   6
HETATM    6  C8  UNL     1      23.326   3.049  50.283  1.00  0.00     0.083 C 
BRANCH   6   7
HETATM    7  C9  UNL     1      24.690   3.228  49.797  1.00  0.00    -0.022 C 
HETATM    8  C10 UNL     1      25.513   4.250  49.630  1.00  0.00    -0.005 C 
BRANCH   8   9
HETATM    9  C11 UNL     1      26.842   4.041  49.104  1.00  0.00    -0.011 C 
HETATM   10  C12 UNL     1      27.507   5.081  48.647  1.00  0.00     0.011 C 
ENDBRANCH   8   9
ENDBRANCH   6   7
ENDBRANCH   3   6
BRANCH   3  11
HETATM   11  N2  UNL     1      22.025   1.141  51.151  1.00  0.00    -0.340 N 
HETATM   12  H13 UNL     1      21.669   0.927  50.178  1.00  0.00     0.164 HD
BRANCH  11  13
HETATM   13  C13 UNL     1      21.145   0.411  52.002  1.00  0.00     0.171 A 
HETATM   14  N3  UNL     1      21.319  -0.200  52.990  1.00  0.00    -0.200 NA
HETATM   15  C14 UNL     1      20.353  -0.832  53.662  1.00  0.00     0.171 A 
HETATM   16  C15 UNL     1      18.968  -0.759  53.127  1.00  0.00     0.111 A 
HETATM   17  S1  UNL     1      19.294   0.307  51.595  1.00  0.00    -0.060 SA
BRANCH  15  18
HETATM   18  O1  UNL     1      20.751  -1.516  54.831  1.00  0.00    -0.344 OA
HETATM   19  H14 UNL     1      20.170  -2.275  55.196  1.00  0.00     0.219 HD
ENDBRANCH  15  18
ENDBRANCH  11  13
ENDBRANCH   3  11
BRANCH   1  20
HETATM   20  C5  UNL     1      26.430   0.875  52.753  1.00  0.00    -0.001 A 
HETATM   21  C4  UNL     1      26.494  -0.497  52.637  1.00  0.00     0.015 A 
HETATM   22  C3  UNL     1      27.687  -1.122  52.980  1.00  0.00     0.007 A 
HETATM   23  C2  UNL     1      28.771  -0.358  53.422  1.00  0.00    -0.062 A 
HETATM   24  C1  UNL     1      30.012  -1.120  53.767  1.00  0.00     0.048 C 
HETATM   25  C18 UNL     1      28.677   1.018  53.529  1.00  0.00     0.007 A 
HETATM   26  C17 UNL     1      27.490   1.643  53.189  1.00  0.00     0.015 A 
ENDBRANCH   1  20
TORSDOF 7
ENDMDL
MODEL 3
REMARK VINA RESULT:      -7.6      2.095      2.242
REMARK  7 active torsions:
REMARK  status: ('A' for Active; 'I' for Inactive)
REMARK    1  A    between atoms: C5_5  and  C6_6 
REMARK    2  A    between atoms: C7_8  and  C8_9 
REMARK    3  A    between atoms: C7_8  and  N2_14 
REMARK    4  A    between atoms: C8_9  and  C9_10 
REMARK    5  A    between atoms: C10_11  and  C11_12 
REMARK    6  A    between atoms: N2_14  and  C13_15 
REMARK    7  A    between atoms: C14_17  and  O1_18 
ROOT
HETATM    1  C6  UNL     1      24.570   3.675  50.482  1.00  0.00     0.101 C 
HETATM    2  N1  UNL     1      24.559   2.426  50.713  1.00  0.00    -0.249 NA
HETATM    3  C7  UNL     1      23.486   1.854  51.399  1.00  0.00     0.140 C 
HETATM    4  C16 UNL     1      22.838   2.873  52.347  1.00  0.00     0.137 C 
HETATM    5  S2  UNL     1      23.039   4.320  51.217  1.00  0.00    -0.105 SA
ENDROOT
BRANCH   3   6
HETATM    6  C8  UNL     1      22.358   1.373  50.511  1.00  0.00     0.083 C 
BRANCH   6   7
HETATM    7  C9  UNL     1      21.264   0.712  51.217  1.00  0.00    -0.022 C 
HETATM    8  C10 UNL     1      19.944   0.779  51.198  1.00  0.00    -0.005 C 
BRANCH   8   9
HETATM    9  C11 UNL     1      19.156  -0.060  52.071  1.00  0.00    -0.011 C 
HETATM   10  C12 UNL     1      17.961  -0.437  51.670  1.00  0.00     0.011 C 
ENDBRANCH   8   9
ENDBRANCH   6   7
ENDBRANCH   3   6
BRANCH   3  11
HETATM   11  N2  UNL     1      24.008   0.788  52.249  1.00  0.00    -0.340 N 
HETATM   12  H13 UNL     1      23.389   0.011  52.614  1.00  0.00     0.164 HD
BRANCH  11  13
HETATM   13  C13 UNL     1      25.291   0.480  52.787  1.00  0.00     0.171 A 
HETATM   14  N3  UNL     1      25.948  -0.494  52.768  1.00  0.00    -0.200 NA
HETATM   15  C14 UNL     1      27.150  -0.599  53.340  1.00  0.00     0.171 A 
HETATM   16  C15 UNL     1      27.695   0.591  54.045  1.00  0.00     0.111 A 
HETATM   17  S1  UNL     1      26.261   1.794  53.753  1.00  0.00    -0.060 SA
BRANCH  15  18
HETATM   18  O1  UNL     1      27.794  -1.850  53.214  1.00  0.00    -0.344 OA
HETATM   19  H14 UNL     1      27.782  -2.337  52.314  1.00  0.00     0.219 HD
ENDBRANCH  15  18
ENDBRANCH  11  13
ENDBRANCH   3  11
BRANCH   1  20
HETATM   20  C5  UNL     1      25.580   4.466  49.790  1.00  0.00    -0.001 A 
HETATM   21  C4  UNL     1      25.345   5.806  49.568  1.00  0.00     0.015 A 
HETATM   22  C3  UNL     1      26.326   6.536  48.905  1.00  0.00     0.007 A 
HETATM   23  C2  UNL     1      27.502   5.903  48.491  1.00  0.00    -0.062 A 
HETATM   24  C1  UNL     1      28.498   6.770  47.786  1.00  0.00     0.048 C 
HETATM   25  C18 UNL     1      27.709   4.555  48.727  1.00  0.00     0.007 A 
HETATM   26  C17 UNL     1      26.734   3.828  49.386  1.00  0.00     0.015 A 
ENDBRANCH   1  20
TORSDOF 7
ENDMDL
MODEL 4
REMARK VINA RESULT:      -7.3      3.361      5.968
REMARK  7 active torsions:
REMARK  status: ('A' for Active; 'I' for Inactive)
REMARK    1  A    between atoms: C5_5  and  C6_6 
REMARK    2  A    between atoms: C7_8  and  C8_9 
REMARK    3  A    between atoms: C7_8  and  N2_14 
REMARK    4  A    between atoms: C8_9  and  C9_10 
REMARK    5  A    between atoms: C10_11  and  C11_12 
REMARK    6  A    between atoms: N2_14  and  C13_15 
REMARK    7  A    between atoms: C14_17  and  O1_18 
ROOT
HETATM    1  C6  UNL     1      23.564   1.983  51.602  1.00  0.00     0.101 C 
HETATM    2  N1  UNL     1      23.026   2.987  52.165  1.00  0.00    -0.249 NA
HETATM    3  C7  UNL     1      21.895   3.578  51.599  1.00  0.00     0.140 C 
HETATM    4  C16 UNL     1      21.878   3.380  50.077  1.00  0.00     0.137 C 
HETATM    5  S2  UNL     1      22.573   1.668  50.113  1.00  0.00    -0.105 SA
ENDROOT
BRANCH   3   6
HETATM    6  C8  UNL     1      20.579   3.007  52.083  1.00  0.00     0.083 C 
BRANCH   6   7
HETATM    7  C9  UNL     1      20.693   2.066  53.194  1.00  0.00    -0.022 C 
HETATM    8  C10 UNL     1      20.430   0.784  53.384  1.00  0.00    -0.005 C 
BRANCH   8   9
HETATM    9  C11 UNL     1      20.681   0.169  54.667  1.00  0.00    -0.011 C 
HETATM   10  C12 UNL     1      21.653  -0.713  54.761  1.00  0.00     0.011 C 
ENDBRANCH   8   9
ENDBRANCH   6   7
ENDBRANCH   3   6
BRANCH   3  11
HETATM   11  N2  UNL     1      21.980   5.019  51.816  1.00  0.00    -0.340 N 
HETATM   12  H13 UNL     1      21.327   5.524  52.477  1.00  0.00     0.164 HD
BRANCH  11  13
HETATM   13  C13 UNL     1      22.815   6.056  51.306  1.00  0.00     0.171 A 
HETATM   14  N3  UNL     1      23.974   6.245  51.365  1.00  0.00    -0.200 NA
HETATM   15  C14 UNL     1      24.591   7.295  50.817  1.00  0.00     0.171 A 
HETATM   16  C15 UNL     1      23.762   8.289  50.086  1.00  0.00     0.111 A 
HETATM   17  S1  UNL     1      22.060   7.490  50.318  1.00  0.00    -0.060 SA
BRANCH  15  18
HETATM   18  O1  UNL     1      25.991   7.356  50.990  1.00  0.00    -0.344 OA
HETATM   19  H14 UNL     1      26.435   6.796  51.723  1.00  0.00     0.219 HD
ENDBRANCH  15  18
ENDBRANCH  11  13
ENDBRANCH   3  11
BRANCH   1  20
HETATM   20  C5  UNL     1      24.736   1.223  52.020  1.00  0.00    -0.001 A 
HETATM   21  C4  UNL     1      25.985   1.635  51.607  1.00  0.00     0.015 A 
HETATM   22  C3  UNL     1      27.084   0.891  52.020  1.00  0.00     0.007 A 
HETATM   23  C2  UNL     1      26.897  -0.234  52.831  1.00  0.00    -0.062 A 
HETATM   24  C1  UNL     1      28.139  -0.970  53.225  1.00  0.00     0.048 C 
HETATM   25  C18 UNL     1      25.631  -0.623  53.230  1.00  0.00     0.007 A 
HETATM   26  C17 UNL     1      24.536   0.117  52.819  1.00  0.00     0.015 A 
ENDBRANCH   1  20
TORSDOF 7
ENDMDL
MODEL 5
REMARK VINA RESULT:      -7.2      1.811      6.846
REMARK  7 active torsions:
REMARK  status: ('A' for Active; 'I' for Inactive)
REMARK    1  A    between atoms: C5_5  and  C6_6 
REMARK    2  A    between atoms: C7_8  and  C8_9 
REMARK    3  A    between atoms: C7_8  and  N2_14 
REMARK    4  A    between atoms: C8_9  and  C9_10 
REMARK    5  A    between atoms: C10_11  and  C11_12 
REMARK    6  A    between atoms: N2_14  and  C13_15 
REMARK    7  A    between atoms: C14_17  and  O1_18 
ROOT
HETATM    1  C6  UNL     1      22.323   1.524  52.223  1.00  0.00     0.101 C 
HETATM    2  N1  UNL     1      23.028   2.232  53.008  1.00  0.00    -0.249 NA
HETATM    3  C7  UNL     1      24.101   2.969  52.505  1.00  0.00     0.140 C 
HETATM    4  C16 UNL     1      24.684   2.301  51.252  1.00  0.00     0.137 C 
HETATM    5  S2  UNL     1      23.058   1.744  50.576  1.00  0.00    -0.105 SA
ENDROOT
BRANCH   3   6
HETATM    6  C8  UNL     1      23.749   4.377  52.072  1.00  0.00     0.083 C 
BRANCH   6   7
HETATM    7  C9  UNL     1      24.442   4.838  50.873  1.00  0.00    -0.022 C 
HETATM    8  C10 UNL     1      24.595   5.994  50.249  1.00  0.00    -0.005 C 
BRANCH   8   9
HETATM    9  C11 UNL     1      25.382   6.075  49.040  1.00  0.00    -0.011 C 
HETATM   10  C12 UNL     1      26.492   5.373  48.966  1.00  0.00     0.011 C 
ENDBRANCH   8   9
ENDBRANCH   6   7
ENDBRANCH   3   6
BRANCH   3  11
HETATM   11  N2  UNL     1      25.168   2.953  53.502  1.00  0.00    -0.340 N 
HETATM   12  H13 UNL     1      25.245   3.696  54.251  1.00  0.00     0.164 HD
BRANCH  11  13
HETATM   13  C13 UNL     1      26.274   2.092  53.765  1.00  0.00     0.171 A 
HETATM   14  N3  UNL     1      27.432   2.282  53.826  1.00  0.00    -0.200 NA
HETATM   15  C14 UNL     1      28.334   1.332  54.087  1.00  0.00     0.171 A 
HETATM   16  C15 UNL     1      27.845  -0.053  54.314  1.00  0.00     0.111 A 
HETATM   17  S1  UNL     1      25.987   0.246  54.098  1.00  0.00    -0.060 SA
BRANCH  15  18
HETATM   18  O1  UNL     1      29.684   1.747  54.122  1.00  0.00    -0.344 OA
HETATM   19  H14 UNL     1      30.027   2.286  54.921  1.00  0.00     0.219 HD
ENDBRANCH  15  18
ENDBRANCH  11  13
ENDBRANCH   3  11
BRANCH   1  20
HETATM   20  C5  UNL     1      21.170   0.688  52.535  1.00  0.00    -0.001 A 
HETATM   21  C4  UNL     1      21.244  -0.184  53.599  1.00  0.00     0.015 A 
HETATM   22  C3  UNL     1      20.129  -0.969  53.874  1.00  0.00     0.007 A 
HETATM   23  C2  UNL     1      18.984  -0.853  53.079  1.00  0.00    -0.062 A 
HETATM   24  C1  UNL     1      17.837  -1.738  53.451  1.00  0.00     0.048 C 
HETATM   25  C18 UNL     1      18.941   0.033  52.017  1.00  0.00     0.007 A 
HETATM   26  C17 UNL     1      20.049   0.814  51.742  1.00  0.00     0.015 A 
ENDBRANCH   1  20
TORSDOF 7
ENDMDL
MODEL 6
REMARK VINA RESULT:      -7.1      3.891      6.636
REMARK  7 active torsions:
REMARK  status: ('A' for Active; 'I' for Inactive)
REMARK    1  A    between atoms: C5_5  and  C6_6 
REMARK    2  A    between atoms: C7_8  and  C8_9 
REMARK    3  A    between atoms: C7_8  and  N2_14 
REMARK    4  A    between atoms: C8_9  and  C9_10 
REMARK    5  A    between atoms: C10_11  and  C11_12 
REMARK    6  A    between atoms: N2_14  and  C13_15 
REMARK    7  A    between atoms: C14_17  and  O1_18 
ROOT
HETATM    1  C6  UNL     1      25.207   1.457  52.334  1.00  0.00     0.101 C 
HETATM    2  N1  UNL     1      24.304   1.065  51.531  1.00  0.00    -0.249 NA
HETATM    3  C7  UNL     1      23.182   1.864  51.304  1.00  0.00     0.140 C 
HETATM    4  C16 UNL     1      22.872   2.733  52.531  1.00  0.00     0.137 C 
HETATM    5  S2  UNL     1      24.637   3.063  52.965  1.00  0.00    -0.105 SA
ENDROOT
BRANCH   3   6
HETATM    6  C8  UNL     1      23.327   2.841  50.157  1.00  0.00     0.083 C 
BRANCH   6   7
HETATM    7  C9  UNL     1      22.226   2.827  49.198  1.00  0.00    -0.022 C 
HETATM    8  C10 UNL     1      22.033   3.269  47.967  1.00  0.00    -0.005 C 
BRANCH   8   9
HETATM    9  C11 UNL     1      20.763   3.066  47.308  1.00  0.00    -0.011 C 
HETATM   10  C12 UNL     1      19.702   2.827  48.049  1.00  0.00     0.011 C 
ENDBRANCH   8   9
ENDBRANCH   6   7
ENDBRANCH   3   6
BRANCH   3  11
HETATM   11  N2  UNL     1      22.029   0.985  51.133  1.00  0.00    -0.340 N 
HETATM   12  H13 UNL     1      21.654   0.735  50.175  1.00  0.00     0.164 HD
BRANCH  11  13
HETATM   13  C13 UNL     1      21.165   0.288  52.027  1.00  0.00     0.171 A 
HETATM   14  N3  UNL     1      21.368  -0.354  52.991  1.00  0.00    -0.200 NA
HETATM   15  C14 UNL     1      20.413  -0.945  53.713  1.00  0.00     0.171 A 
HETATM   16  C15 UNL     1      19.003  -0.781  53.273  1.00  0.00     0.111 A 
HETATM   17  S1  UNL     1      19.289   0.297  51.743  1.00  0.00    -0.060 SA
BRANCH  15  18
HETATM   18  O1  UNL     1      20.847  -1.676  54.841  1.00  0.00    -0.344 OA
HETATM   19  H14 UNL     1      20.224  -2.369  55.265  1.00  0.00     0.219 HD
ENDBRANCH  15  18
ENDBRANCH  11  13
ENDBRANCH   3  11
BRANCH   1  20
HETATM   20  C5  UNL     1      26.447   0.787  52.710  1.00  0.00    -0.001 A 
HETATM   21  C4  UNL     1      27.503   1.543  53.171  1.00  0.00     0.015 A 
HETATM   22  C3  UNL     1      28.672   0.877  53.522  1.00  0.00     0.007 A 
HETATM   23  C2  UNL     1      28.743  -0.514  53.402  1.00  0.00    -0.062 A 
HETATM   24  C1  UNL     1      30.042  -1.140  53.804  1.00  0.00     0.048 C 
HETATM   25  C18 UNL     1      27.665  -1.246  52.936  1.00  0.00     0.007 A 
HETATM   26  C17 UNL     1      26.501  -0.585  52.586  1.00  0.00     0.015 A 
ENDBRANCH   1  20
TORSDOF 7
ENDMDL
MODEL 7
REMARK VINA RESULT:      -6.8      3.617      7.916
REMARK  7 active torsions:
REMARK  status: ('A' for Active; 'I' for Inactive)
REMARK    1  A    between atoms: C5_5  and  C6_6 
REMARK    2  A    between atoms: C7_8  and  C8_9 
REMARK    3  A    between atoms: C7_8  and  N2_14 
REMARK    4  A    between atoms: C8_9  and  C9_10 
REMARK    5  A    between atoms: C10_11  and  C11_12 
REMARK    6  A    between atoms: N2_14  and  C13_15 
REMARK    7  A    between atoms: C14_17  and  O1_18 
ROOT
HETATM    1  C6  UNL     1      22.374   1.267  52.558  1.00  0.00     0.101 C 
HETATM    2  N1  UNL     1      22.372   2.475  52.165  1.00  0.00    -0.249 NA
HETATM    3  C7  UNL     1      23.581   3.139  51.952  1.00  0.00     0.140 C 
HETATM    4  C16 UNL     1      24.685   2.568  52.854  1.00  0.00     0.137 C 
HETATM    5  S2  UNL     1      24.125   0.812  52.729  1.00  0.00    -0.105 SA
ENDROOT
BRANCH   3   6
HETATM    6  C8  UNL     1      24.125   3.020  50.544  1.00  0.00     0.083 C 
BRANCH   6   7
HETATM    7  C9  UNL     1      23.111   3.040  49.494  1.00  0.00    -0.022 C 
HETATM    8  C10 UNL     1      22.967   2.487  48.302  1.00  0.00    -0.005 C 
BRANCH   8   9
HETATM    9  C11 UNL     1      21.783   2.742  47.515  1.00  0.00    -0.011 C 
HETATM   10  C12 UNL     1      21.890   3.508  46.450  1.00  0.00     0.011 C 
ENDBRANCH   8   9
ENDBRANCH   6   7
ENDBRANCH   3   6
BRANCH   3  11
HETATM   11  N2  UNL     1      23.411   4.531  52.359  1.00  0.00    -0.340 N 
HETATM   12  H13 UNL     1      23.274   4.805  53.371  1.00  0.00     0.164 HD
BRANCH  11  13
HETATM   13  C13 UNL     1      23.375   5.775  51.664  1.00  0.00     0.171 A 
HETATM   14  N3  UNL     1      24.187   6.603  51.471  1.00  0.00    -0.200 NA
HETATM   15  C14 UNL     1      23.964   7.726  50.785  1.00  0.00     0.171 A 
HETATM   16  C15 UNL     1      22.603   7.947  50.228  1.00  0.00     0.111 A 
HETATM   17  S1  UNL     1      21.771   6.357  50.833  1.00  0.00    -0.060 SA
BRANCH  15  18
HETATM   18  O1  UNL     1      25.061   8.605  50.654  1.00  0.00    -0.344 OA
HETATM   19  H14 UNL     1      24.992   9.559  51.019  1.00  0.00     0.219 HD
ENDBRANCH  15  18
ENDBRANCH  11  13
ENDBRANCH   3  11
BRANCH   1  20
HETATM   20  C5  UNL     1      21.239   0.396  52.836  1.00  0.00    -0.001 A 
HETATM   21  C4  UNL     1      20.049   0.614  52.175  1.00  0.00     0.015 A 
HETATM   22  C3  UNL     1      18.984  -0.232  52.461  1.00  0.00     0.007 A 
HETATM   23  C2  UNL     1      19.144  -1.263  53.392  1.00  0.00    -0.062 A 
HETATM   24  C1  UNL     1      17.942  -2.121  53.633  1.00  0.00     0.048 C 
HETATM   25  C18 UNL     1      20.351  -1.457  54.040  1.00  0.00     0.007 A 
HETATM   26  C17 UNL     1      21.413  -0.616  53.757  1.00  0.00     0.015 A 
ENDBRANCH   1  20
TORSDOF 7
ENDMDL
MODEL 8
REMARK VINA RESULT:      -6.8      2.384      2.976
REMARK  7 active torsions:
REMARK  status: ('A' for Active; 'I' for Inactive)
REMARK    1  A    between atoms: C5_5  and  C6_6 
REMARK    2  A    between atoms: C7_8  and  C8_9 
REMARK    3  A    between atoms: C7_8  and  N2_14 
REMARK    4  A    between atoms: C8_9  and  C9_10 
REMARK    5  A    between atoms: C10_11  and  C11_12 
REMARK    6  A    between atoms: N2_14  and  C13_15 
REMARK    7  A    between atoms: C14_17  and  O1_18 
ROOT
HETATM    1  C6  UNL     1      25.908   5.199  49.323  1.00  0.00     0.101 C 
HETATM    2  N1  UNL     1      25.904   4.177  50.078  1.00  0.00    -0.249 NA
HETATM    3  C7  UNL     1      24.707   3.739  50.648  1.00  0.00     0.140 C 
HETATM    4  C16 UNL     1      23.732   4.909  50.839  1.00  0.00     0.137 C 
HETATM    5  S2  UNL     1      24.187   5.777  49.274  1.00  0.00    -0.105 SA
ENDROOT
BRANCH   3   6
HETATM    6  C8  UNL     1      23.947   2.728  49.814  1.00  0.00     0.083 C 
BRANCH   6   7
HETATM    7  C9  UNL     1      22.639   2.357  50.346  1.00  0.00    -0.022 C 
HETATM    8  C10 UNL     1      21.956   1.234  50.492  1.00  0.00    -0.005 C 
BRANCH   8   9
HETATM    9  C11 UNL     1      20.638   1.251  51.084  1.00  0.00    -0.011 C 
HETATM   10  C12 UNL     1      20.395   2.111  52.049  1.00  0.00     0.011 C 
ENDBRANCH   8   9
ENDBRANCH   6   7
ENDBRANCH   3   6
BRANCH   3  11
HETATM   11  N2  UNL     1      25.000   3.236  51.987  1.00  0.00    -0.340 N 
HETATM   12  H13 UNL     1      25.083   3.883  52.820  1.00  0.00     0.164 HD
BRANCH  11  13
HETATM   13  C13 UNL     1      25.232   1.942  52.537  1.00  0.00     0.171 A 
HETATM   14  N3  UNL     1      24.555   1.207  53.155  1.00  0.00    -0.200 NA
HETATM   15  C14 UNL     1      24.954   0.012  53.596  1.00  0.00     0.171 A 
HETATM   16  C15 UNL     1      26.343  -0.419  53.288  1.00  0.00     0.111 A 
HETATM   17  S1  UNL     1      26.921   1.103  52.320  1.00  0.00    -0.060 SA
BRANCH  15  18
HETATM   18  O1  UNL     1      24.001  -0.735  54.322  1.00  0.00    -0.344 OA
HETATM   19  H14 UNL     1      23.405  -0.264  55.009  1.00  0.00     0.219 HD
ENDBRANCH  15  18
ENDBRANCH  11  13
ENDBRANCH   3  11
BRANCH   1  20
HETATM   20  C5  UNL     1      27.034   5.818  48.633  1.00  0.00    -0.001 A 
HETATM   21  C4  UNL     1      28.244   5.159  48.600  1.00  0.00     0.015 A 
HETATM   22  C3  UNL     1      29.299   5.773  47.935  1.00  0.00     0.007 A 
HETATM   23  C2  UNL     1      29.108   7.019  47.328  1.00  0.00    -0.062 A 
HETATM   24  C1  UNL     1      30.301   7.600  46.637  1.00  0.00     0.048 C 
HETATM   25  C18 UNL     1      27.881   7.656  47.379  1.00  0.00     0.007 A 
HETATM   26  C17 UNL     1      26.830   7.046  48.040  1.00  0.00     0.015 A 
ENDBRANCH   1  20
TORSDOF 7
ENDMDL
MODEL 9
REMARK VINA RESULT:      -6.7      5.279      7.604
REMARK  7 active torsions:
REMARK  status: ('A' for Active; 'I' for Inactive)
REMARK    1  A    between atoms: C5_5  and  C6_6 
REMARK    2  A    between atoms: C7_8  and  C8_9 
REMARK    3  A    between atoms: C7_8  and  N2_14 
REMARK    4  A    between atoms: C8_9  and  C9_10 
REMARK    5  A    between atoms: C10_11  and  C11_12 
REMARK    6  A    between atoms: N2_14  and  C13_15 
REMARK    7  A    between atoms: C14_17  and  O1_18 
ROOT
HETATM    1  C6  UNL     1      22.036   1.939  50.582  1.00  0.00     0.101 C 
HETATM    2  N1  UNL     1      21.000   2.420  51.138  1.00  0.00    -0.249 NA
HETATM    3  C7  UNL     1      19.751   2.263  50.535  1.00  0.00     0.140 C 
HETATM    4  C16 UNL     1      19.890   2.151  49.010  1.00  0.00     0.137 C 
HETATM    5  S2  UNL     1      21.451   1.164  49.047  1.00  0.00    -0.105 SA
ENDROOT
BRANCH   3   6
HETATM    6  C8  UNL     1      19.003   1.014  50.953  1.00  0.00     0.083 C 
BRANCH   6   7
HETATM    7  C9  UNL     1      19.399   0.470  52.249  1.00  0.00    -0.022 C 
HETATM    8  C10 UNL     1      20.221  -0.476  52.670  1.00  0.00    -0.005 C 
BRANCH   8   9
HETATM    9  C11 UNL     1      20.363  -0.746  54.083  1.00  0.00    -0.011 C 
HETATM   10  C12 UNL     1      21.505  -0.454  54.666  1.00  0.00     0.011 C 
ENDBRANCH   8   9
ENDBRANCH   6   7
ENDBRANCH   3   6
BRANCH   3  11
HETATM   11  N2  UNL     1      18.974   3.475  50.780  1.00  0.00    -0.340 N 
HETATM   12  H13 UNL     1      19.398   4.439  50.680  1.00  0.00     0.164 HD
BRANCH  11  13
HETATM   13  C13 UNL     1      17.628   3.735  51.167  1.00  0.00     0.171 A 
HETATM   14  N3  UNL     1      17.128   3.962  52.207  1.00  0.00    -0.200 NA
HETATM   15  C14 UNL     1      15.823   4.182  52.379  1.00  0.00     0.171 A 
HETATM   16  C15 UNL     1      14.943   4.139  51.182  1.00  0.00     0.111 A 
HETATM   17  S1  UNL     1      16.247   3.750  49.865  1.00  0.00    -0.060 SA
BRANCH  15  18
HETATM   18  O1  UNL     1      15.404   4.440  53.703  1.00  0.00    -0.344 OA
HETATM   19  H14 UNL     1      15.709   3.822  54.460  1.00  0.00     0.219 HD
ENDBRANCH  15  18
ENDBRANCH  11  13
ENDBRANCH   3  11
BRANCH   1  20
HETATM   20  C5  UNL     1      23.421   1.988  51.036  1.00  0.00    -0.001 A 
HETATM   21  C4  UNL     1      23.814   1.170  52.073  1.00  0.00     0.015 A 
HETATM   22  C3  UNL     1      25.141   1.238  52.485  1.00  0.00     0.007 A 
HETATM   23  C2  UNL     1      26.023   2.115  51.847  1.00  0.00    -0.062 A 
HETATM   24  C1  UNL     1      27.429   2.117  52.360  1.00  0.00     0.048 C 
HETATM   25  C18 UNL     1      25.598   2.924  50.808  1.00  0.00     0.007 A 
HETATM   26  C17 UNL     1      24.279   2.858  50.397  1.00  0.00     0.015 A 
ENDBRANCH   1  20
TORSDOF 7
ENDMDL
