MODEL 1
REMARK VINA RESULT:      -6.8      0.000      0.000
REMARK  5 active torsions:
REMARK  status: ('A' for Active; 'I' for Inactive)
REMARK    1  A    between atoms: C6_8  and  N3_9 
REMARK    2  A    between atoms: N3_9  and  C7_10 
REMARK    3  A    between atoms: C7_10  and  C8_11 
REMARK    4  A    between atoms: C9_12  and  C10_13 
REMARK    5  A    between atoms: C11_15  and  O1_16 
ROOT
HETATM    1  C1  UNL     1      21.293  -1.100  54.522  1.00  0.00     0.046 C 
HETATM    2  C2  UNL     1      21.944  -0.311  53.401  1.00  0.00    -0.059 C 
HETATM    3  C3  UNL     1      21.236   0.159  52.386  1.00  0.00     0.018 C 
HETATM    4  C4  UNL     1      21.321   0.925  51.141  1.00  0.00     0.090 C 
HETATM    5  N1  UNL     1      22.556   1.221  51.159  1.00  0.00    -0.161 NA
HETATM    6  C5  UNL     1      23.214   1.977  50.174  1.00  0.00     0.197 A 
HETATM    7  N2  UNL     1      23.609   2.137  51.353  1.00  0.00    -0.259 N 
HETATM    8  C6  UNL     1      24.633   2.970  51.890  1.00  0.00     0.215 A 
HETATM    9  C11 UNL     1      24.383   3.762  53.096  1.00  0.00     0.127 A 
HETATM   10  C12 UNL     1      25.033   2.546  53.284  1.00  0.00     0.098 A 
HETATM   11  N4  UNL     1      25.701   1.407  53.902  1.00  0.00    -0.366 N 
HETATM   12  C13 UNL     1      25.511   0.348  52.890  1.00  0.00     0.290 C 
HETATM   13  O2  UNL     1      24.186   0.166  52.755  1.00  0.00    -0.368 OA
HETATM   14  C14 UNL     1      23.413  -0.360  53.717  1.00  0.00     0.204 C 
HETATM   15  H15 UNL     1      26.123   1.579  54.832  1.00  0.00     0.161 HD
ENDROOT
BRANCH   8  16
HETATM   16  N3  UNL     1      25.791   3.260  51.091  1.00  0.00    -0.382 N 
HETATM   17  H7  UNL     1      26.264   2.432  50.709  1.00  0.00     0.156 HD
BRANCH  16  18
HETATM   18  C7  UNL     1      25.646   4.336  50.164  1.00  0.00     0.144 C 
BRANCH  18  19
HETATM   19  C8  UNL     1      26.739   4.397  49.175  1.00  0.00    -0.011 C 
HETATM   20  C9  UNL     1      27.257   5.459  48.621  1.00  0.00    -0.014 C 
BRANCH  20  21
HETATM   21  C10 UNL     1      26.927   6.892  48.800  1.00  0.00     0.141 C 
HETATM   22 CL1  UNL     1      25.507   7.290  47.802  1.00  0.00    -0.126 Cl
ENDBRANCH  20  21
ENDBRANCH  18  19
ENDBRANCH  16  18
ENDBRANCH   8  16
BRANCH   9  23
HETATM   23  O1  UNL     1      23.792   4.994  53.427  1.00  0.00    -0.358 OA
HETATM   24  H14 UNL     1      24.056   5.841  52.909  1.00  0.00     0.217 HD
ENDBRANCH   9  23
TORSDOF 5
ENDMDL
MODEL 2
REMARK VINA RESULT:      -6.6      1.363      1.489
REMARK  5 active torsions:
REMARK  status: ('A' for Active; 'I' for Inactive)
REMARK    1  A    between atoms: C6_8  and  N3_9 
REMARK    2  A    between atoms: N3_9  and  C7_10 
REMARK    3  A    between atoms: C7_10  and  C8_11 
REMARK    4  A    between atoms: C9_12  and  C10_13 
REMARK    5  A    between atoms: C11_15  and  O1_16 
ROOT
HETATM    1  C1  UNL     1      21.757  -0.973  54.143  1.00  0.00     0.046 C 
HETATM    2  C2  UNL     1      22.189  -0.110  52.974  1.00  0.00    -0.059 C 
HETATM    3  C3  UNL     1      21.429   0.028  51.898  1.00  0.00     0.018 C 
HETATM    4  C4  UNL     1      21.340   0.680  50.590  1.00  0.00     0.090 C 
HETATM    5  N1  UNL     1      22.416   1.355  50.617  1.00  0.00    -0.161 NA
HETATM    6  C5  UNL     1      22.857   2.201  49.586  1.00  0.00     0.197 A 
HETATM    7  N2  UNL     1      23.113   2.571  50.756  1.00  0.00    -0.259 N 
HETATM    8  C6  UNL     1      23.790   3.727  51.242  1.00  0.00     0.215 A 
HETATM    9  C11 UNL     1      23.234   4.491  52.361  1.00  0.00     0.127 A 
HETATM   10  C12 UNL     1      24.222   3.565  52.681  1.00  0.00     0.098 A 
HETATM   11  N4  UNL     1      25.177   2.751  53.422  1.00  0.00    -0.366 N 
HETATM   12  C13 UNL     1      25.390   1.610  52.509  1.00  0.00     0.290 C 
HETATM   13  O2  UNL     1      24.200   1.005  52.352  1.00  0.00    -0.368 OA
HETATM   14  C14 UNL     1      23.578   0.338  53.335  1.00  0.00     0.204 C 
HETATM   15  H15 UNL     1      25.470   3.122  54.344  1.00  0.00     0.161 HD
ENDROOT
BRANCH   8  16
HETATM   16  N3  UNL     1      24.842   4.307  50.454  1.00  0.00    -0.382 N 
HETATM   17  H7  UNL     1      25.367   3.635  49.884  1.00  0.00     0.156 HD
BRANCH  16  18
HETATM   18  C7  UNL     1      24.508   5.519  49.778  1.00  0.00     0.144 C 
BRANCH  18  19
HETATM   19  C8  UNL     1      25.379   6.649  50.154  1.00  0.00    -0.011 C 
HETATM   20  C9  UNL     1      26.417   7.107  49.509  1.00  0.00    -0.014 C 
BRANCH  20  21
HETATM   21  C10 UNL     1      27.033   6.656  48.241  1.00  0.00     0.141 C 
HETATM   22 CL1  UNL     1      27.861   5.103  48.517  1.00  0.00    -0.126 Cl
ENDBRANCH  20  21
ENDBRANCH  18  19
ENDBRANCH  16  18
ENDBRANCH   8  16
BRANCH   9  23
HETATM   23  O1  UNL     1      22.267   5.492  52.558  1.00  0.00    -0.358 OA
HETATM   24  H14 UNL     1      22.405   6.422  52.144  1.00  0.00     0.217 HD
ENDBRANCH   9  23
TORSDOF 5
ENDMDL
MODEL 3
REMARK VINA RESULT:      -6.4      1.557      1.751
REMARK  5 active torsions:
REMARK  status: ('A' for Active; 'I' for Inactive)
REMARK    1  A    between atoms: C6_8  and  N3_9 
REMARK    2  A    between atoms: N3_9  and  C7_10 
REMARK    3  A    between atoms: C7_10  and  C8_11 
REMARK    4  A    between atoms: C9_12  and  C10_13 
REMARK    5  A    between atoms: C11_15  and  O1_16 
ROOT
HETATM    1  C1  UNL     1      21.757  -1.199  54.274  1.00  0.00     0.046 C 
HETATM    2  C2  UNL     1      22.234  -0.309  53.142  1.00  0.00    -0.059 C 
HETATM    3  C3  UNL     1      21.454  -0.026  52.110  1.00  0.00     0.018 C 
HETATM    4  C4  UNL     1      21.385   0.716  50.849  1.00  0.00     0.090 C 
HETATM    5  N1  UNL     1      22.525   1.276  50.871  1.00  0.00    -0.161 NA
HETATM    6  C5  UNL     1      23.013   2.138  49.876  1.00  0.00     0.197 A 
HETATM    7  N2  UNL     1      23.348   2.404  51.054  1.00  0.00    -0.259 N 
HETATM    8  C6  UNL     1      24.158   3.452  51.581  1.00  0.00     0.215 A 
HETATM    9  C11 UNL     1      23.725   4.193  52.767  1.00  0.00     0.127 A 
HETATM   10  C12 UNL     1      24.623   3.154  52.987  1.00  0.00     0.098 A 
HETATM   11  N4  UNL     1      25.516   2.201  53.636  1.00  0.00    -0.366 N 
HETATM   12  C13 UNL     1      25.576   1.106  52.646  1.00  0.00     0.290 C 
HETATM   13  O2  UNL     1      24.325   0.635  52.504  1.00  0.00    -0.368 OA
HETATM   14  C14 UNL     1      23.674  -0.028  53.470  1.00  0.00     0.204 C 
HETATM   15  H15 UNL     1      25.879   2.480  54.565  1.00  0.00     0.161 HD
ENDROOT
BRANCH   8  16
HETATM   16  N3  UNL     1      25.235   3.973  50.786  1.00  0.00    -0.382 N 
HETATM   17  H7  UNL     1      25.623   3.309  50.106  1.00  0.00     0.156 HD
BRANCH  16  18
HETATM   18  C7  UNL     1      25.042   5.293  50.276  1.00  0.00     0.144 C 
BRANCH  18  19
HETATM   19  C8  UNL     1      24.415   5.310  48.941  1.00  0.00    -0.011 C 
HETATM   20  C9  UNL     1      23.270   5.839  48.603  1.00  0.00    -0.014 C 
BRANCH  20  21
HETATM   21  C10 UNL     1      22.270   6.563  49.419  1.00  0.00     0.141 C 
HETATM   22 CL1  UNL     1      22.858   8.215  49.730  1.00  0.00    -0.126 Cl
ENDBRANCH  20  21
ENDBRANCH  18  19
ENDBRANCH  16  18
ENDBRANCH   8  16
BRANCH   9  23
HETATM   23  O1  UNL     1      22.874   5.272  53.067  1.00  0.00    -0.358 OA
HETATM   24  H14 UNL     1      22.502   5.378  54.018  1.00  0.00     0.217 HD
ENDBRANCH   9  23
TORSDOF 5
ENDMDL
MODEL 4
REMARK VINA RESULT:      -6.3      3.370      6.309
REMARK  5 active torsions:
REMARK  status: ('A' for Active; 'I' for Inactive)
REMARK    1  A    between atoms: C6_8  and  N3_9 
REMARK    2  A    between atoms: N3_9  and  C7_10 
REMARK    3  A    between atoms: C7_10  and  C8_11 
REMARK    4  A    between atoms: C9_12  and  C10_13 
REMARK    5  A    between atoms: C11_15  and  O1_16 
ROOT
HETATM    1  C1  UNL     1      23.662   7.618  47.667  1.00  0.00     0.046 C 
HETATM    2  C2  UNL     1      24.332   6.393  48.261  1.00  0.00    -0.059 C 
HETATM    3  C3  UNL     1      25.634   6.367  48.502  1.00  0.00     0.018 C 
HETATM    4  C4  UNL     1      26.722   5.539  49.025  1.00  0.00     0.090 C 
HETATM    5  N1  UNL     1      26.058   4.513  49.374  1.00  0.00    -0.161 NA
HETATM    6  C5  UNL     1      26.610   3.362  49.961  1.00  0.00     0.197 A 
HETATM    7  N2  UNL     1      25.467   3.694  50.356  1.00  0.00    -0.259 N 
HETATM    8  C6  UNL     1      24.602   3.097  51.318  1.00  0.00     0.215 A 
HETATM    9  C11 UNL     1      23.916   3.929  52.309  1.00  0.00     0.127 A 
HETATM   10  C12 UNL     1      23.180   3.587  51.180  1.00  0.00     0.098 A 
HETATM   11  N4  UNL     1      22.101   3.469  50.207  1.00  0.00    -0.366 N 
HETATM   12  C13 UNL     1      22.832   3.127  48.970  1.00  0.00     0.290 C 
HETATM   13  O2  UNL     1      23.662   4.153  48.708  1.00  0.00    -0.368 OA
HETATM   14  C14 UNL     1      23.235   5.368  48.337  1.00  0.00     0.204 C 
HETATM   15  H15 UNL     1      21.144   3.636  50.567  1.00  0.00     0.161 HD
ENDROOT
BRANCH   8  16
HETATM   16  N3  UNL     1      24.637   1.673  51.505  1.00  0.00    -0.382 N 
HETATM   17  H7  UNL     1      24.644   1.130  50.635  1.00  0.00     0.156 HD
BRANCH  16  18
HETATM   18  C7  UNL     1      25.546   1.205  52.501  1.00  0.00     0.144 C 
BRANCH  18  19
HETATM   19  C8  UNL     1      26.269  -0.015  52.095  1.00  0.00    -0.011 C 
HETATM   20  C9  UNL     1      27.290  -0.574  52.686  1.00  0.00    -0.014 C 
BRANCH  20  21
HETATM   21  C10 UNL     1      28.025  -0.176  53.908  1.00  0.00     0.141 C 
HETATM   22 CL1  UNL     1      29.768  -0.432  53.646  1.00  0.00    -0.126 Cl
ENDBRANCH  20  21
ENDBRANCH  18  19
ENDBRANCH  16  18
ENDBRANCH   8  16
BRANCH   9  23
HETATM   23  O1  UNL     1      24.206   4.515  53.554  1.00  0.00    -0.358 OA
HETATM   24  H14 UNL     1      23.885   4.061  54.417  1.00  0.00     0.217 HD
ENDBRANCH   9  23
TORSDOF 5
ENDMDL
MODEL 5
REMARK VINA RESULT:      -6.2      2.508      4.283
REMARK  5 active torsions:
REMARK  status: ('A' for Active; 'I' for Inactive)
REMARK    1  A    between atoms: C6_8  and  N3_9 
REMARK    2  A    between atoms: N3_9  and  C7_10 
REMARK    3  A    between atoms: C7_10  and  C8_11 
REMARK    4  A    between atoms: C9_12  and  C10_13 
REMARK    5  A    between atoms: C11_15  and  O1_16 
ROOT
HETATM    1  C1  UNL     1      26.814  -1.688  52.596  1.00  0.00     0.046 C 
HETATM    2  C2  UNL     1      26.014  -0.400  52.638  1.00  0.00    -0.059 C 
HETATM    3  C3  UNL     1      26.545   0.756  52.270  1.00  0.00     0.018 C 
HETATM    4  C4  UNL     1      26.270   2.185  52.109  1.00  0.00     0.090 C 
HETATM    5  N1  UNL     1      25.042   2.202  52.438  1.00  0.00    -0.161 NA
HETATM    6  C5  UNL     1      24.235   3.351  52.463  1.00  0.00     0.197 A 
HETATM    7  N2  UNL     1      23.674   2.285  52.114  1.00  0.00    -0.259 N 
HETATM    8  C6  UNL     1      22.327   2.021  51.729  1.00  0.00     0.215 A 
HETATM    9  C11 UNL     1      22.045   1.193  50.555  1.00  0.00     0.127 A 
HETATM   10  C12 UNL     1      22.002   0.547  51.786  1.00  0.00     0.098 A 
HETATM   11  N4  UNL     1      21.857  -0.474  52.816  1.00  0.00    -0.366 N 
HETATM   12  C13 UNL     1      22.626   0.103  53.938  1.00  0.00     0.290 C 
HETATM   13  O2  UNL     1      23.895   0.242  53.514  1.00  0.00    -0.368 OA
HETATM   14  C14 UNL     1      24.702  -0.797  53.255  1.00  0.00     0.204 C 
HETATM   15  H15 UNL     1      21.296  -1.305  52.556  1.00  0.00     0.161 HD
ENDROOT
BRANCH   8  16
HETATM   16  N3  UNL     1      21.268   2.802  52.305  1.00  0.00    -0.382 N 
HETATM   17  H7  UNL     1      21.484   3.201  53.225  1.00  0.00     0.156 HD
BRANCH  16  18
HETATM   18  C7  UNL     1      20.610   3.701  51.412  1.00  0.00     0.144 C 
BRANCH  18  19
HETATM   19  C8  UNL     1      21.283   5.010  51.310  1.00  0.00    -0.011 C 
HETATM   20  C9  UNL     1      21.962   5.483  50.301  1.00  0.00    -0.014 C 
BRANCH  20  21
HETATM   21  C10 UNL     1      22.264   4.881  48.982  1.00  0.00     0.141 C 
HETATM   22 CL1  UNL     1      23.939   4.275  48.991  1.00  0.00    -0.126 Cl
ENDBRANCH  20  21
ENDBRANCH  18  19
ENDBRANCH  16  18
ENDBRANCH   8  16
BRANCH   9  23
HETATM   23  O1  UNL     1      21.967   1.358  49.160  1.00  0.00    -0.358 OA
HETATM   24  H14 UNL     1      21.106   1.726  48.739  1.00  0.00     0.217 HD
ENDBRANCH   9  23
TORSDOF 5
ENDMDL
MODEL 6
REMARK VINA RESULT:      -6.2      3.307      6.823
REMARK  5 active torsions:
REMARK  status: ('A' for Active; 'I' for Inactive)
REMARK    1  A    between atoms: C6_8  and  N3_9 
REMARK    2  A    between atoms: N3_9  and  C7_10 
REMARK    3  A    between atoms: C7_10  and  C8_11 
REMARK    4  A    between atoms: C9_12  and  C10_13 
REMARK    5  A    between atoms: C11_15  and  O1_16 
ROOT
HETATM    1  C1  UNL     1      24.540   7.910  47.453  1.00  0.00     0.046 C 
HETATM    2  C2  UNL     1      24.791   6.601  48.177  1.00  0.00    -0.059 C 
HETATM    3  C3  UNL     1      26.015   6.210  48.494  1.00  0.00     0.018 C 
HETATM    4  C4  UNL     1      26.785   5.146  49.142  1.00  0.00     0.090 C 
HETATM    5  N1  UNL     1      25.832   4.401  49.530  1.00  0.00    -0.161 NA
HETATM    6  C5  UNL     1      25.991   3.197  50.235  1.00  0.00     0.197 A 
HETATM    7  N2  UNL     1      24.990   3.889  50.536  1.00  0.00    -0.259 N 
HETATM    8  C6  UNL     1      23.955   3.668  51.490  1.00  0.00     0.215 A 
HETATM    9  C11 UNL     1      23.522   4.753  52.373  1.00  0.00     0.127 A 
HETATM   10  C12 UNL     1      22.752   4.545  51.233  1.00  0.00     0.098 A 
HETATM   11  N4  UNL     1      21.719   4.665  50.211  1.00  0.00    -0.366 N 
HETATM   12  C13 UNL     1      22.352   4.010  49.049  1.00  0.00     0.290 C 
HETATM   13  O2  UNL     1      23.461   4.713  48.756  1.00  0.00    -0.368 OA
HETATM   14  C14 UNL     1      23.433   5.961  48.269  1.00  0.00     0.204 C 
HETATM   15  H15 UNL     1      20.847   5.142  50.502  1.00  0.00     0.161 HD
ENDROOT
BRANCH   8  16
HETATM   16  N3  UNL     1      23.553   2.321  51.788  1.00  0.00    -0.382 N 
HETATM   17  H7  UNL     1      23.586   1.680  50.988  1.00  0.00     0.156 HD
BRANCH  16  18
HETATM   18  C7  UNL     1      24.071   1.777  53.002  1.00  0.00     0.144 C 
BRANCH  18  19
HETATM   19  C8  UNL     1      24.077   0.303  53.018  1.00  0.00    -0.011 C 
HETATM   20  C9  UNL     1      23.183  -0.495  53.536  1.00  0.00    -0.014 C 
BRANCH  20  21
HETATM   21  C10 UNL     1      21.923  -0.188  54.250  1.00  0.00     0.141 C 
HETATM   22 CL1  UNL     1      20.902  -1.647  54.279  1.00  0.00    -0.126 Cl
ENDBRANCH  20  21
ENDBRANCH  18  19
ENDBRANCH  16  18
ENDBRANCH   8  16
BRANCH   9  23
HETATM   23  O1  UNL     1      23.935   5.337  53.584  1.00  0.00    -0.358 OA
HETATM   24  H14 UNL     1      24.412   6.246  53.573  1.00  0.00     0.217 HD
ENDBRANCH   9  23
TORSDOF 5
ENDMDL
MODEL 7
REMARK VINA RESULT:      -6.1      3.392      5.817
REMARK  5 active torsions:
REMARK  status: ('A' for Active; 'I' for Inactive)
REMARK    1  A    between atoms: C6_8  and  N3_9 
REMARK    2  A    between atoms: N3_9  and  C7_10 
REMARK    3  A    between atoms: C7_10  and  C8_11 
REMARK    4  A    between atoms: C9_12  and  C10_13 
REMARK    5  A    between atoms: C11_15  and  O1_16 
ROOT
HETATM    1  C1  UNL     1      26.777  -1.379  52.590  1.00  0.00     0.046 C 
HETATM    2  C2  UNL     1      25.852  -0.177  52.560  1.00  0.00    -0.059 C 
HETATM    3  C3  UNL     1      26.244   0.985  52.059  1.00  0.00     0.018 C 
HETATM    4  C4  UNL     1      25.815   2.358  51.785  1.00  0.00     0.090 C 
HETATM    5  N1  UNL     1      24.610   2.286  52.180  1.00  0.00    -0.161 NA
HETATM    6  C5  UNL     1      23.691   3.348  52.147  1.00  0.00     0.197 A 
HETATM    7  N2  UNL     1      23.226   2.204  51.929  1.00  0.00    -0.259 N 
HETATM    8  C6  UNL     1      21.897   1.774  51.647  1.00  0.00     0.215 A 
HETATM    9  C11 UNL     1      21.645   0.814  50.571  1.00  0.00     0.127 A 
HETATM   10  C12 UNL     1      21.727   0.288  51.856  1.00  0.00     0.098 A 
HETATM   11  N4  UNL     1      21.738  -0.639  52.981  1.00  0.00    -0.366 N 
HETATM   12  C13 UNL     1      22.496   0.116  54.000  1.00  0.00     0.290 C 
HETATM   13  O2  UNL     1      23.722   0.336  53.494  1.00  0.00    -0.368 OA
HETATM   14  C14 UNL     1      24.618  -0.639  53.285  1.00  0.00     0.204 C 
HETATM   15  H15 UNL     1      21.252  -1.541  52.830  1.00  0.00     0.161 HD
ENDROOT
BRANCH   8  16
HETATM   16  N3  UNL     1      20.792   2.500  52.209  1.00  0.00    -0.382 N 
HETATM   17  H7  UNL     1      20.992   2.953  53.108  1.00  0.00     0.156 HD
BRANCH  16  18
HETATM   18  C7  UNL     1      20.056   3.310  51.292  1.00  0.00     0.144 C 
BRANCH  18  19
HETATM   19  C8  UNL     1      18.600   3.267  51.523  1.00  0.00    -0.011 C 
HETATM   20  C9  UNL     1      17.744   2.394  51.066  1.00  0.00    -0.014 C 
BRANCH  20  21
HETATM   21  C10 UNL     1      17.950   1.212  50.199  1.00  0.00     0.141 C 
HETATM   22 CL1  UNL     1      18.218  -0.220  51.224  1.00  0.00    -0.126 Cl
ENDBRANCH  20  21
ENDBRANCH  18  19
ENDBRANCH  16  18
ENDBRANCH   8  16
BRANCH   9  23
HETATM   23  O1  UNL     1      21.484   0.835  49.174  1.00  0.00    -0.358 OA
HETATM   24  H14 UNL     1      20.575   0.593  48.763  1.00  0.00     0.217 HD
ENDBRANCH   9  23
TORSDOF 5
ENDMDL
MODEL 8
REMARK VINA RESULT:      -6.0      2.808      4.743
REMARK  5 active torsions:
REMARK  status: ('A' for Active; 'I' for Inactive)
REMARK    1  A    between atoms: C6_8  and  N3_9 
REMARK    2  A    between atoms: N3_9  and  C7_10 
REMARK    3  A    between atoms: C7_10  and  C8_11 
REMARK    4  A    between atoms: C9_12  and  C10_13 
REMARK    5  A    between atoms: C11_15  and  O1_16 
ROOT
HETATM    1  C1  UNL     1      27.679   1.304  53.935  1.00  0.00     0.046 C 
HETATM    2  C2  UNL     1      26.467   1.404  53.028  1.00  0.00    -0.059 C 
HETATM    3  C3  UNL     1      25.355   0.732  53.283  1.00  0.00     0.018 C 
HETATM    4  C4  UNL     1      23.994   0.474  52.807  1.00  0.00     0.090 C 
HETATM    5  N1  UNL     1      23.971   1.252  51.802  1.00  0.00    -0.161 NA
HETATM    6  C5  UNL     1      22.872   1.420  50.944  1.00  0.00     0.197 A 
HETATM    7  N2  UNL     1      23.566   2.441  51.165  1.00  0.00    -0.259 N 
HETATM    8  C6  UNL     1      23.438   3.778  50.688  1.00  0.00     0.215 A 
HETATM    9  C11 UNL     1      23.574   4.906  51.611  1.00  0.00     0.127 A 
HETATM   10  C12 UNL     1      24.709   4.570  50.880  1.00  0.00     0.098 A 
HETATM   11  N4  UNL     1      26.065   4.559  50.343  1.00  0.00    -0.366 N 
HETATM   12  C13 UNL     1      26.187   3.177  49.834  1.00  0.00     0.290 C 
HETATM   13  O2  UNL     1      26.036   2.356  50.888  1.00  0.00    -0.368 OA
HETATM   14  C14 UNL     1      26.929   2.263  51.883  1.00  0.00     0.204 C 
HETATM   15  H15 UNL     1      26.595   5.445  50.430  1.00  0.00     0.161 HD
ENDROOT
BRANCH   8  16
HETATM   16  N3  UNL     1      22.885   4.006  49.382  1.00  0.00    -0.382 N 
HETATM   17  H7  UNL     1      22.990   3.220  48.731  1.00  0.00     0.156 HD
BRANCH  16  18
HETATM   18  C7  UNL     1      21.598   4.624  49.357  1.00  0.00     0.144 C 
BRANCH  18  19
HETATM   19  C8  UNL     1      20.501   3.665  49.125  1.00  0.00    -0.011 C 
HETATM   20  C9  UNL     1      19.503   3.385  49.918  1.00  0.00    -0.014 C 
BRANCH  20  21
HETATM   21  C10 UNL     1      19.164   3.918  51.257  1.00  0.00     0.141 C 
HETATM   22 CL1  UNL     1      20.277   3.219  52.460  1.00  0.00    -0.126 Cl
ENDBRANCH  20  21
ENDBRANCH  18  19
ENDBRANCH  16  18
ENDBRANCH   8  16
BRANCH   9  23
HETATM   23  O1  UNL     1      22.768   5.604  52.528  1.00  0.00    -0.358 OA
HETATM   24  H14 UNL     1      21.746   5.522  52.471  1.00  0.00     0.217 HD
ENDBRANCH   9  23
TORSDOF 5
ENDMDL
MODEL 9
REMARK VINA RESULT:      -6.0      3.331      5.723
REMARK  5 active torsions:
REMARK  status: ('A' for Active; 'I' for Inactive)
REMARK    1  A    between atoms: C6_8  and  N3_9 
REMARK    2  A    between atoms: N3_9  and  C7_10 
REMARK    3  A    between atoms: C7_10  and  C8_11 
REMARK    4  A    between atoms: C9_12  and  C10_13 
REMARK    5  A    between atoms: C11_15  and  O1_16 
ROOT
HETATM    1  C1  UNL     1      29.325   0.873  54.615  1.00  0.00     0.046 C 
HETATM    2  C2  UNL     1      27.902   0.656  54.138  1.00  0.00    -0.059 C 
HETATM    3  C3  UNL     1      26.985   0.109  54.922  1.00  0.00     0.018 C 
HETATM    4  C4  UNL     1      25.580  -0.297  54.993  1.00  0.00     0.090 C 
HETATM    5  N1  UNL     1      25.191   0.090  53.847  1.00  0.00    -0.161 NA
HETATM    6  C5  UNL     1      23.881  -0.047  53.357  1.00  0.00     0.197 A 
HETATM    7  N2  UNL     1      24.498   0.989  53.012  1.00  0.00    -0.259 N 
HETATM    8  C6  UNL     1      24.100   2.082  52.189  1.00  0.00     0.215 A 
HETATM    9  C11 UNL     1      24.375   3.458  52.607  1.00  0.00     0.127 A 
HETATM   10  C12 UNL     1      25.283   2.894  51.717  1.00  0.00     0.098 A 
HETATM   11  N4  UNL     1      26.423   2.702  50.829  1.00  0.00    -0.366 N 
HETATM   12  C13 UNL     1      26.540   1.230  50.785  1.00  0.00     0.290 C 
HETATM   13  O2  UNL     1      26.782   0.817  52.042  1.00  0.00    -0.368 OA
HETATM   14  C14 UNL     1      27.926   1.072  52.693  1.00  0.00     0.204 C 
HETATM   15  H15 UNL     1      26.860   3.564  50.457  1.00  0.00     0.161 HD
ENDROOT
BRANCH   8  16
HETATM   16  N3  UNL     1      23.177   1.849  51.113  1.00  0.00    -0.382 N 
HETATM   17  H7  UNL     1      23.364   1.000  50.568  1.00  0.00     0.156 HD
BRANCH  16  18
HETATM   18  C7  UNL     1      21.800   2.060  51.425  1.00  0.00     0.144 C 
BRANCH  18  19
HETATM   19  C8  UNL     1      20.957   0.884  51.140  1.00  0.00    -0.011 C 
HETATM   20  C9  UNL     1      20.352   0.107  51.997  1.00  0.00    -0.014 C 
BRANCH  20  21
HETATM   21  C10 UNL     1      20.319   0.154  53.476  1.00  0.00     0.141 C 
HETATM   22 CL1  UNL     1      20.577  -1.489  54.115  1.00  0.00    -0.126 Cl
ENDBRANCH  20  21
ENDBRANCH  18  19
ENDBRANCH  16  18
ENDBRANCH   8  16
BRANCH   9  23
HETATM   23  O1  UNL     1      23.794   4.426  53.445  1.00  0.00    -0.358 OA
HETATM   24  H14 UNL     1      23.026   5.010  53.093  1.00  0.00     0.217 HD
ENDBRANCH   9  23
TORSDOF 5
ENDMDL
