MODEL 1
REMARK VINA RESULT:      -7.8      0.000      0.000
REMARK  7 active torsions:
REMARK  status: ('A' for Active; 'I' for Inactive)
REMARK    1  A    between atoms: O1_2  and  C2_3 
REMARK    2  A    between atoms: C8_10  and  C9_11 
REMARK    3  A    between atoms: C10_12  and  C12_14 
REMARK    4  A    between atoms: C15_18  and  O2_19 
REMARK    5  A    between atoms: O2_19  and  C16_20 
REMARK    6  A    between atoms: C16_20  and  C17_21 
REMARK    7  A    between atoms: C17_21  and  N2_22 
ROOT
HETATM    1  C2  UNL     1      27.220   1.792  53.559  1.00  0.00     0.103 A 
HETATM    2  C3  UNL     1      26.843   1.050  54.614  1.00  0.00     0.067 A 
HETATM    3  C4  UNL     1      25.792   0.058  54.398  1.00  0.00     0.043 A 
HETATM    4  N1  UNL     1      25.359  -0.686  55.388  1.00  0.00    -0.293 NA
HETATM    5  C5  UNL     1      24.295  -1.668  55.108  1.00  0.00     0.153 C 
HETATM    6  C6  UNL     1      23.143  -0.966  54.398  1.00  0.00     0.057 C 
HETATM    7  C7  UNL     1      23.682  -0.124  53.274  1.00  0.00    -0.065 C 
HETATM    8  C8  UNL     1      22.794   0.584  52.587  1.00  0.00     0.004 C 
HETATM    9  C13 UNL     1      25.135  -0.187  53.066  1.00  0.00     0.091 A 
HETATM   10  C14 UNL     1      25.672   0.717  52.045  1.00  0.00     0.028 A 
HETATM   11  C15 UNL     1      26.617   1.620  52.247  1.00  0.00     0.099 A 
ENDROOT
BRANCH  11  12
HETATM   12  O2  UNL     1      27.154   2.486  51.329  1.00  0.00    -0.347 OA
BRANCH  12  13
HETATM   13  C16 UNL     1      26.522   2.874  50.134  1.00  0.00     0.195 C 
BRANCH  13  14
HETATM   14  C17 UNL     1      26.036   4.307  50.167  1.00  0.00     0.149 C 
BRANCH  14  15
HETATM   15  N2  UNL     1      24.630   4.439  49.855  1.00  0.00    -0.379 N 
HETATM   16  C18 UNL     1      23.471   4.431  48.900  1.00  0.00     0.153 C 
HETATM   17  C19 UNL     1      22.361   3.797  49.759  1.00  0.00     0.293 C 
HETATM   18  N3  UNL     1      21.769   4.648  50.779  1.00  0.00     0.099 N 
HETATM   19  C20 UNL     1      22.022   4.155  52.160  1.00  0.00     0.302 C 
HETATM   20  C23 UNL     1      22.708   5.817  50.927  1.00  0.00     0.329 C 
HETATM   21  C21 UNL     1      23.552   4.253  52.240  1.00  0.00     0.029 C 
HETATM   22  C22 UNL     1      23.801   4.728  50.984  1.00  0.00     0.033 C 
ENDBRANCH  14  15
ENDBRANCH  13  14
ENDBRANCH  12  13
ENDBRANCH  11  12
BRANCH   1  23
HETATM   23  O1  UNL     1      28.218   2.677  53.941  1.00  0.00    -0.353 OA
HETATM   24  C1  UNL     1      29.448   2.196  54.402  1.00  0.00     0.210 C 
ENDBRANCH   1  23
BRANCH   8  25
HETATM   25  C9  UNL     1      21.399   0.474  52.987  1.00  0.00     0.005 C 
HETATM   26  C10 UNL     1      20.421   0.525  52.101  1.00  0.00    -0.056 C 
HETATM   27  C11 UNL     1      20.490   0.692  50.630  1.00  0.00     0.046 C 
BRANCH  26  28
HETATM   28  C12 UNL     1      18.984   0.415  52.498  1.00  0.00     0.256 C 
HETATM   29  F1  UNL     1      18.579  -0.882  52.348  1.00  0.00    -0.251 F 
ENDBRANCH  26  28
ENDBRANCH   8  25
TORSDOF 7
ENDMDL
MODEL 2
REMARK VINA RESULT:      -7.8      3.423      5.859
REMARK  7 active torsions:
REMARK  status: ('A' for Active; 'I' for Inactive)
REMARK    1  A    between atoms: O1_2  and  C2_3 
REMARK    2  A    between atoms: C8_10  and  C9_11 
REMARK    3  A    between atoms: C10_12  and  C12_14 
REMARK    4  A    between atoms: C15_18  and  O2_19 
REMARK    5  A    between atoms: O2_19  and  C16_20 
REMARK    6  A    between atoms: C16_20  and  C17_21 
REMARK    7  A    between atoms: C17_21  and  N2_22 
ROOT
HETATM    1  C2  UNL     1      22.356   1.863  50.917  1.00  0.00     0.103 A 
HETATM    2  C3  UNL     1      22.100   0.751  51.628  1.00  0.00     0.067 A 
HETATM    3  C4  UNL     1      23.008   0.431  52.726  1.00  0.00     0.043 A 
HETATM    4  N1  UNL     1      22.830  -0.651  53.448  1.00  0.00    -0.293 NA
HETATM    5  C5  UNL     1      23.781  -0.921  54.542  1.00  0.00     0.153 C 
HETATM    6  C6  UNL     1      25.203  -0.844  53.999  1.00  0.00     0.057 C 
HETATM    7  C7  UNL     1      25.362   0.406  53.178  1.00  0.00    -0.065 C 
HETATM    8  C8  UNL     1      26.543   0.588  52.601  1.00  0.00     0.004 C 
HETATM    9  C13 UNL     1      24.186   1.284  53.114  1.00  0.00     0.091 A 
HETATM   10  C14 UNL     1      24.305   2.443  52.225  1.00  0.00     0.028 A 
HETATM   11  C15 UNL     1      23.486   2.725  51.225  1.00  0.00     0.099 A 
ENDROOT
BRANCH  11  12
HETATM   12  O2  UNL     1      23.552   3.794  50.368  1.00  0.00    -0.347 OA
BRANCH  12  13
HETATM   13  C16 UNL     1      24.461   3.905  49.300  1.00  0.00     0.195 C 
BRANCH  13  14
HETATM   14  C17 UNL     1      25.782   4.512  49.717  1.00  0.00     0.149 C 
BRANCH  14  15
HETATM   15  N2  UNL     1      25.804   5.955  49.615  1.00  0.00    -0.379 N 
HETATM   16  C18 UNL     1      25.341   7.326  50.018  1.00  0.00     0.153 C 
HETATM   17  C19 UNL     1      26.646   8.138  49.924  1.00  0.00     0.293 C 
HETATM   18  N3  UNL     1      27.102   8.471  48.585  1.00  0.00     0.099 N 
HETATM   19  C20 UNL     1      28.405   7.838  48.245  1.00  0.00     0.302 C 
HETATM   20  C23 UNL     1      26.323   7.578  47.656  1.00  0.00     0.329 C 
HETATM   21  C21 UNL     1      28.041   6.348  48.303  1.00  0.00     0.029 C 
HETATM   22  C22 UNL     1      26.725   6.464  48.646  1.00  0.00     0.033 C 
ENDBRANCH  14  15
ENDBRANCH  13  14
ENDBRANCH  12  13
ENDBRANCH  11  12
BRANCH   1  23
HETATM   23  O1  UNL     1      21.404   2.012  49.919  1.00  0.00    -0.353 OA
HETATM   24  C1  UNL     1      21.528   1.311  48.715  1.00  0.00     0.210 C 
ENDBRANCH   1  23
BRANCH   8  25
HETATM   25  C9  UNL     1      27.558  -0.432  52.821  1.00  0.00     0.005 C 
HETATM   26  C10 UNL     1      28.685  -0.160  53.454  1.00  0.00    -0.056 C 
HETATM   27  C11 UNL     1      29.151   1.119  54.040  1.00  0.00     0.046 C 
BRANCH  26  28
HETATM   28  C12 UNL     1      29.735  -1.197  53.685  1.00  0.00     0.256 C 
HETATM   29  F1  UNL     1      29.282  -2.402  53.225  1.00  0.00    -0.251 F 
ENDBRANCH  26  28
ENDBRANCH   8  25
TORSDOF 7
ENDMDL
MODEL 3
REMARK VINA RESULT:      -7.7      3.147      5.698
REMARK  7 active torsions:
REMARK  status: ('A' for Active; 'I' for Inactive)
REMARK    1  A    between atoms: O1_2  and  C2_3 
REMARK    2  A    between atoms: C8_10  and  C9_11 
REMARK    3  A    between atoms: C10_12  and  C12_14 
REMARK    4  A    between atoms: C15_18  and  O2_19 
REMARK    5  A    between atoms: O2_19  and  C16_20 
REMARK    6  A    between atoms: C16_20  and  C17_21 
REMARK    7  A    between atoms: C17_21  and  N2_22 
ROOT
HETATM    1  C2  UNL     1      21.803   0.701  51.291  1.00  0.00     0.103 A 
HETATM    2  C3  UNL     1      21.757  -0.172  52.312  1.00  0.00     0.067 A 
HETATM    3  C4  UNL     1      22.870  -0.160  53.259  1.00  0.00     0.043 A 
HETATM    4  N1  UNL     1      22.901  -1.000  54.266  1.00  0.00    -0.293 NA
HETATM    5  C5  UNL     1      24.052  -0.940  55.187  1.00  0.00     0.153 C 
HETATM    6  C6  UNL     1      25.342  -0.997  54.378  1.00  0.00     0.057 C 
HETATM    7  C7  UNL     1      25.263  -0.023  53.234  1.00  0.00    -0.065 C 
HETATM    8  C8  UNL     1      26.304   0.008  52.412  1.00  0.00     0.004 C 
HETATM    9  C13 UNL     1      24.038   0.785  53.164  1.00  0.00     0.091 A 
HETATM   10  C14 UNL     1      23.914   1.651  51.989  1.00  0.00     0.028 A 
HETATM   11  C15 UNL     1      22.909   1.631  51.128  1.00  0.00     0.099 A 
ENDROOT
BRANCH  11  12
HETATM   12  O2  UNL     1      22.744   2.419  50.018  1.00  0.00    -0.347 OA
BRANCH  12  13
HETATM   13  C16 UNL     1      22.245   3.734  50.041  1.00  0.00     0.195 C 
BRANCH  13  14
HETATM   14  C17 UNL     1      22.935   4.640  49.044  1.00  0.00     0.149 C 
BRANCH  14  15
HETATM   15  N2  UNL     1      24.327   4.878  49.359  1.00  0.00    -0.379 N 
HETATM   16  C18 UNL     1      25.660   4.456  49.908  1.00  0.00     0.153 C 
HETATM   17  C19 UNL     1      26.632   5.140  48.930  1.00  0.00     0.293 C 
HETATM   18  N3  UNL     1      26.802   6.575  49.087  1.00  0.00     0.099 N 
HETATM   19  C20 UNL     1      26.325   7.345  47.907  1.00  0.00     0.302 C 
HETATM   20  C23 UNL     1      25.657   7.026  49.957  1.00  0.00     0.329 C 
HETATM   21  C21 UNL     1      24.828   7.005  47.909  1.00  0.00     0.029 C 
HETATM   22  C22 UNL     1      24.800   6.178  48.993  1.00  0.00     0.033 C 
ENDBRANCH  14  15
ENDBRANCH  13  14
ENDBRANCH  12  13
ENDBRANCH  11  12
BRANCH   1  23
HETATM   23  O1  UNL     1      20.677   0.552  50.495  1.00  0.00    -0.353 OA
HETATM   24  C1  UNL     1      19.402   0.534  51.072  1.00  0.00     0.210 C 
ENDBRANCH   1  23
BRANCH   8  25
HETATM   25  C9  UNL     1      27.409  -0.895  52.697  1.00  0.00     0.005 C 
HETATM   26  C10 UNL     1      28.533  -0.462  53.238  1.00  0.00    -0.056 C 
HETATM   27  C11 UNL     1      28.914   0.911  53.647  1.00  0.00     0.046 C 
BRANCH  26  28
HETATM   28  C12 UNL     1      29.676  -1.378  53.536  1.00  0.00     0.256 C 
HETATM   29  F1  UNL     1      29.255  -2.672  53.408  1.00  0.00    -0.251 F 
ENDBRANCH  26  28
ENDBRANCH   8  25
TORSDOF 7
ENDMDL
MODEL 4
REMARK VINA RESULT:      -7.6      3.390      5.750
REMARK  7 active torsions:
REMARK  status: ('A' for Active; 'I' for Inactive)
REMARK    1  A    between atoms: O1_2  and  C2_3 
REMARK    2  A    between atoms: C8_10  and  C9_11 
REMARK    3  A    between atoms: C10_12  and  C12_14 
REMARK    4  A    between atoms: C15_18  and  O2_19 
REMARK    5  A    between atoms: O2_19  and  C16_20 
REMARK    6  A    between atoms: C16_20  and  C17_21 
REMARK    7  A    between atoms: C17_21  and  N2_22 
ROOT
HETATM    1  C2  UNL     1      22.738  -0.021  53.016  1.00  0.00     0.103 A 
HETATM    2  C3  UNL     1      23.983  -0.367  53.384  1.00  0.00     0.067 A 
HETATM    3  C4  UNL     1      25.001   0.681  53.383  1.00  0.00     0.043 A 
HETATM    4  N1  UNL     1      26.242   0.409  53.710  1.00  0.00    -0.293 NA
HETATM    5  C5  UNL     1      27.224   1.509  53.689  1.00  0.00     0.153 C 
HETATM    6  C6  UNL     1      27.150   2.219  52.342  1.00  0.00     0.057 C 
HETATM    7  C7  UNL     1      25.713   2.508  52.004  1.00  0.00    -0.065 C 
HETATM    8  C8  UNL     1      25.487   3.090  50.833  1.00  0.00     0.004 C 
HETATM    9  C13 UNL     1      24.724   2.115  53.018  1.00  0.00     0.091 A 
HETATM   10  C14 UNL     1      23.320   2.295  52.641  1.00  0.00     0.028 A 
HETATM   11  C15 UNL     1      22.403   1.342  52.634  1.00  0.00     0.099 A 
ENDROOT
BRANCH  11  12
HETATM   12  O2  UNL     1      21.080   1.458  52.293  1.00  0.00    -0.347 OA
BRANCH  12  13
HETATM   13  C16 UNL     1      20.262   2.552  52.633  1.00  0.00     0.195 C 
BRANCH  13  14
HETATM   14  C17 UNL     1      20.087   3.529  51.491  1.00  0.00     0.149 C 
BRANCH  14  15
HETATM   15  N2  UNL     1      20.296   2.930  50.192  1.00  0.00    -0.379 N 
HETATM   16  C18 UNL     1      19.883   2.045  49.050  1.00  0.00     0.153 C 
HETATM   17  C19 UNL     1      20.394   2.841  47.835  1.00  0.00     0.293 C 
HETATM   18  N3  UNL     1      21.828   2.808  47.599  1.00  0.00     0.099 N 
HETATM   19  C20 UNL     1      22.467   4.144  47.742  1.00  0.00     0.302 C 
HETATM   20  C23 UNL     1      22.437   2.282  48.872  1.00  0.00     0.329 C 
HETATM   21  C21 UNL     1      22.201   4.450  49.222  1.00  0.00     0.029 C 
HETATM   22  C22 UNL     1      21.517   3.317  49.554  1.00  0.00     0.033 C 
ENDBRANCH  14  15
ENDBRANCH  13  14
ENDBRANCH  12  13
ENDBRANCH  11  12
BRANCH   1  23
HETATM   23  O1  UNL     1      21.907  -1.130  53.072  1.00  0.00    -0.353 OA
HETATM   24  C1  UNL     1      21.510  -1.653  54.307  1.00  0.00     0.210 C 
ENDBRANCH   1  23
BRANCH   8  25
HETATM   25  C9  UNL     1      26.643   3.387  50.000  1.00  0.00     0.005 C 
HETATM   26  C10 UNL     1      26.735   4.518  49.324  1.00  0.00    -0.056 C 
HETATM   27  C11 UNL     1      25.782   5.651  49.250  1.00  0.00     0.046 C 
BRANCH  26  28
HETATM   28  C12 UNL     1      27.915   4.835  48.465  1.00  0.00     0.256 C 
HETATM   29  F1  UNL     1      27.763   6.089  47.944  1.00  0.00    -0.251 F 
ENDBRANCH  26  28
ENDBRANCH   8  25
TORSDOF 7
ENDMDL
MODEL 5
REMARK VINA RESULT:      -7.3      3.308      5.465
REMARK  7 active torsions:
REMARK  status: ('A' for Active; 'I' for Inactive)
REMARK    1  A    between atoms: O1_2  and  C2_3 
REMARK    2  A    between atoms: C8_10  and  C9_11 
REMARK    3  A    between atoms: C10_12  and  C12_14 
REMARK    4  A    between atoms: C15_18  and  O2_19 
REMARK    5  A    between atoms: O2_19  and  C16_20 
REMARK    6  A    between atoms: C16_20  and  C17_21 
REMARK    7  A    between atoms: C17_21  and  N2_22 
ROOT
HETATM    1  C2  UNL     1      22.415   1.855  50.873  1.00  0.00     0.103 A 
HETATM    2  C3  UNL     1      22.124   0.780  51.626  1.00  0.00     0.067 A 
HETATM    3  C4  UNL     1      23.036   0.458  52.721  1.00  0.00     0.043 A 
HETATM    4  N1  UNL     1      22.824  -0.590  53.482  1.00  0.00    -0.293 NA
HETATM    5  C5  UNL     1      23.781  -0.864  54.570  1.00  0.00     0.153 C 
HETATM    6  C6  UNL     1      25.195  -0.869  54.002  1.00  0.00     0.057 C 
HETATM    7  C7  UNL     1      25.394   0.345  53.135  1.00  0.00    -0.065 C 
HETATM    8  C8  UNL     1      26.572   0.455  52.534  1.00  0.00     0.004 C 
HETATM    9  C13 UNL     1      24.256   1.271  53.060  1.00  0.00     0.091 A 
HETATM   10  C14 UNL     1      24.410   2.393  52.130  1.00  0.00     0.028 A 
HETATM   11  C15 UNL     1      23.587   2.677  51.133  1.00  0.00     0.099 A 
ENDROOT
BRANCH  11  12
HETATM   12  O2  UNL     1      23.684   3.712  50.239  1.00  0.00    -0.347 OA
BRANCH  12  13
HETATM   13  C16 UNL     1      24.761   3.903  49.354  1.00  0.00     0.195 C 
BRANCH  13  14
HETATM   14  C17 UNL     1      25.731   4.962  49.832  1.00  0.00     0.149 C 
BRANCH  14  15
HETATM   15  N2  UNL     1      25.574   6.227  49.149  1.00  0.00    -0.379 N 
HETATM   16  C18 UNL     1      25.844   7.170  48.012  1.00  0.00     0.153 C 
HETATM   17  C19 UNL     1      24.483   7.873  47.857  1.00  0.00     0.293 C 
HETATM   18  N3  UNL     1      24.153   8.869  48.862  1.00  0.00     0.099 N 
HETATM   19  C20 UNL     1      22.971   8.492  49.683  1.00  0.00     0.302 C 
HETATM   20  C23 UNL     1      25.123   8.641  49.993  1.00  0.00     0.329 C 
HETATM   21  C21 UNL     1      23.477   7.218  50.374  1.00  0.00     0.029 C 
HETATM   22  C22 UNL     1      24.724   7.160  49.825  1.00  0.00     0.033 C 
ENDBRANCH  14  15
ENDBRANCH  13  14
ENDBRANCH  12  13
ENDBRANCH  11  12
BRANCH   1  23
HETATM   23  O1  UNL     1      21.454   2.012  49.886  1.00  0.00    -0.353 OA
HETATM   24  C1  UNL     1      21.570   1.326  48.673  1.00  0.00     0.210 C 
ENDBRANCH   1  23
BRANCH   8  25
HETATM   25  C9  UNL     1      27.546  -0.600  52.772  1.00  0.00     0.005 C 
HETATM   26  C10 UNL     1      28.690  -0.359  53.386  1.00  0.00    -0.056 C 
HETATM   27  C11 UNL     1      29.217   0.915  53.929  1.00  0.00     0.046 C 
BRANCH  26  28
HETATM   28  C12 UNL     1      29.699  -1.433  53.636  1.00  0.00     0.256 C 
HETATM   29  F1  UNL     1      29.150  -2.643  53.316  1.00  0.00    -0.251 F 
ENDBRANCH  26  28
ENDBRANCH   8  25
TORSDOF 7
ENDMDL
MODEL 6
REMARK VINA RESULT:      -7.3      3.016      5.526
REMARK  7 active torsions:
REMARK  status: ('A' for Active; 'I' for Inactive)
REMARK    1  A    between atoms: O1_2  and  C2_3 
REMARK    2  A    between atoms: C8_10  and  C9_11 
REMARK    3  A    between atoms: C10_12  and  C12_14 
REMARK    4  A    between atoms: C15_18  and  O2_19 
REMARK    5  A    between atoms: O2_19  and  C16_20 
REMARK    6  A    between atoms: C16_20  and  C17_21 
REMARK    7  A    between atoms: C17_21  and  N2_22 
ROOT
HETATM    1  C2  UNL     1      25.244   0.188  52.828  1.00  0.00     0.103 A 
HETATM    2  C3  UNL     1      26.213   0.796  52.122  1.00  0.00     0.067 A 
HETATM    3  C4  UNL     1      25.863   2.032  51.425  1.00  0.00     0.043 A 
HETATM    4  N1  UNL     1      26.753   2.666  50.698  1.00  0.00    -0.293 NA
HETATM    5  C5  UNL     1      26.339   3.907  50.018  1.00  0.00     0.153 C 
HETATM    6  C6  UNL     1      25.065   3.640  49.224  1.00  0.00     0.057 C 
HETATM    7  C7  UNL     1      24.075   2.910  50.091  1.00  0.00    -0.065 C 
HETATM    8  C8  UNL     1      22.927   2.570  49.519  1.00  0.00     0.004 C 
HETATM    9  C13 UNL     1      24.497   2.663  51.476  1.00  0.00     0.091 A 
HETATM   10  C14 UNL     1      23.580   1.856  52.286  1.00  0.00     0.028 A 
HETATM   11  C15 UNL     1      23.898   0.733  52.908  1.00  0.00     0.099 A 
ENDROOT
BRANCH  11  12
HETATM   12  O2  UNL     1      23.081  -0.056  53.677  1.00  0.00    -0.347 OA
BRANCH  12  13
HETATM   13  C16 UNL     1      22.004  -0.812  53.180  1.00  0.00     0.195 C 
BRANCH  13  14
HETATM   14  C17 UNL     1      20.674  -0.390  53.764  1.00  0.00     0.149 C 
BRANCH  14  15
HETATM   15  N2  UNL     1      19.664  -0.137  52.759  1.00  0.00    -0.379 N 
HETATM   16  C18 UNL     1      18.429  -0.507  51.989  1.00  0.00     0.153 C 
HETATM   17  C19 UNL     1      17.745   0.862  51.818  1.00  0.00     0.293 C 
HETATM   18  N3  UNL     1      18.330   1.756  50.832  1.00  0.00     0.099 N 
HETATM   19  C20 UNL     1      18.883   2.998  51.436  1.00  0.00     0.302 C 
HETATM   20  C23 UNL     1      19.692   1.190  50.527  1.00  0.00     0.329 C 
HETATM   21  C21 UNL     1      19.994   2.430  52.330  1.00  0.00     0.029 C 
HETATM   22  C22 UNL     1      19.824   1.102  52.063  1.00  0.00     0.033 C 
ENDBRANCH  14  15
ENDBRANCH  13  14
ENDBRANCH  12  13
ENDBRANCH  11  12
BRANCH   1  23
HETATM   23  O1  UNL     1      25.746  -0.962  53.418  1.00  0.00    -0.353 OA
HETATM   24  C1  UNL     1      26.777  -1.679  52.802  1.00  0.00     0.210 C 
ENDBRANCH   1  23
BRANCH   8  25
HETATM   25  C9  UNL     1      22.742   2.935  48.122  1.00  0.00     0.005 C 
HETATM   26  C10 UNL     1      21.759   3.730  47.740  1.00  0.00    -0.056 C 
HETATM   27  C11 UNL     1      20.705   4.382  48.552  1.00  0.00     0.046 C 
BRANCH  26  28
HETATM   28  C12 UNL     1      21.558   4.112  46.309  1.00  0.00     0.256 C 
HETATM   29  F1  UNL     1      22.284   3.268  45.516  1.00  0.00    -0.251 F 
ENDBRANCH  26  28
ENDBRANCH   8  25
TORSDOF 7
ENDMDL
MODEL 7
REMARK VINA RESULT:      -7.3      5.037      9.209
REMARK  7 active torsions:
REMARK  status: ('A' for Active; 'I' for Inactive)
REMARK    1  A    between atoms: O1_2  and  C2_3 
REMARK    2  A    between atoms: C8_10  and  C9_11 
REMARK    3  A    between atoms: C10_12  and  C12_14 
REMARK    4  A    between atoms: C15_18  and  O2_19 
REMARK    5  A    between atoms: O2_19  and  C16_20 
REMARK    6  A    between atoms: C16_20  and  C17_21 
REMARK    7  A    between atoms: C17_21  and  N2_22 
ROOT
HETATM    1  C2  UNL     1      25.739   6.871  50.091  1.00  0.00     0.103 A 
HETATM    2  C3  UNL     1      26.364   8.037  49.854  1.00  0.00     0.067 A 
HETATM    3  C4  UNL     1      27.412   8.044  48.836  1.00  0.00     0.043 A 
HETATM    4  N1  UNL     1      28.079   9.143  48.569  1.00  0.00    -0.293 NA
HETATM    5  C5  UNL     1      29.126   9.087  47.533  1.00  0.00     0.153 C 
HETATM    6  C6  UNL     1      30.069   7.928  47.838  1.00  0.00     0.057 C 
HETATM    7  C7  UNL     1      29.266   6.692  48.142  1.00  0.00    -0.065 C 
HETATM    8  C8  UNL     1      29.955   5.607  48.469  1.00  0.00     0.004 C 
HETATM    9  C13 UNL     1      27.807   6.834  48.034  1.00  0.00     0.091 A 
HETATM   10  C14 UNL     1      27.024   5.663  48.437  1.00  0.00     0.028 A 
HETATM   11  C15 UNL     1      26.081   5.658  49.365  1.00  0.00     0.099 A 
ENDROOT
BRANCH  11  12
HETATM   12  O2  UNL     1      25.320   4.594  49.777  1.00  0.00    -0.347 OA
BRANCH  12  13
HETATM   13  C16 UNL     1      25.727   3.249  49.710  1.00  0.00     0.195 C 
BRANCH  13  14
HETATM   14  C17 UNL     1      26.611   2.846  50.870  1.00  0.00     0.149 C 
BRANCH  14  15
HETATM   15  N2  UNL     1      25.868   2.334  52.001  1.00  0.00    -0.379 N 
HETATM   16  C18 UNL     1      24.755   2.406  53.007  1.00  0.00     0.153 C 
HETATM   17  C19 UNL     1      24.363   0.923  53.147  1.00  0.00     0.293 C 
HETATM   18  N3  UNL     1      25.268   0.086  53.916  1.00  0.00     0.099 N 
HETATM   19  C20 UNL     1      25.904  -0.981  53.097  1.00  0.00     0.302 C 
HETATM   20  C23 UNL     1      26.545   0.876  54.041  1.00  0.00     0.329 C 
HETATM   21  C21 UNL     1      26.711  -0.148  52.091  1.00  0.00     0.029 C 
HETATM   22  C22 UNL     1      26.368   1.099  52.524  1.00  0.00     0.033 C 
ENDBRANCH  14  15
ENDBRANCH  13  14
ENDBRANCH  12  13
ENDBRANCH  11  12
BRANCH   1  23
HETATM   23  O1  UNL     1      24.782   7.044  51.080  1.00  0.00    -0.353 OA
HETATM   24  C1  UNL     1      23.610   7.758  50.810  1.00  0.00     0.210 C 
ENDBRANCH   1  23
BRANCH   8  25
HETATM   25  C9  UNL     1      31.405   5.719  48.502  1.00  0.00     0.005 C 
HETATM   26  C10 UNL     1      32.178   4.882  47.834  1.00  0.00    -0.056 C 
HETATM   27  C11 UNL     1      31.802   3.736  46.973  1.00  0.00     0.046 C 
BRANCH  26  28
HETATM   28  C12 UNL     1      33.669   4.986  47.859  1.00  0.00     0.256 C 
HETATM   29  F1  UNL     1      34.202   3.731  47.953  1.00  0.00    -0.251 F 
ENDBRANCH  26  28
ENDBRANCH   8  25
TORSDOF 7
ENDMDL
MODEL 8
REMARK VINA RESULT:      -7.1      3.270      5.865
REMARK  7 active torsions:
REMARK  status: ('A' for Active; 'I' for Inactive)
REMARK    1  A    between atoms: O1_2  and  C2_3 
REMARK    2  A    between atoms: C8_10  and  C9_11 
REMARK    3  A    between atoms: C10_12  and  C12_14 
REMARK    4  A    between atoms: C15_18  and  O2_19 
REMARK    5  A    between atoms: O2_19  and  C16_20 
REMARK    6  A    between atoms: C16_20  and  C17_21 
REMARK    7  A    between atoms: C17_21  and  N2_22 
ROOT
HETATM    1  C2  UNL     1      18.801   0.648  52.124  1.00  0.00     0.103 A 
HETATM    2  C3  UNL     1      19.158  -0.486  52.752  1.00  0.00     0.067 A 
HETATM    3  C4  UNL     1      20.387  -0.458  53.542  1.00  0.00     0.043 A 
HETATM    4  N1  UNL     1      20.807  -1.535  54.163  1.00  0.00    -0.293 NA
HETATM    5  C5  UNL     1      22.055  -1.445  54.944  1.00  0.00     0.153 C 
HETATM    6  C6  UNL     1      23.150  -0.849  54.068  1.00  0.00     0.057 C 
HETATM    7  C7  UNL     1      22.626   0.379  53.373  1.00  0.00    -0.065 C 
HETATM    8  C8  UNL     1      23.460   0.986  52.538  1.00  0.00     0.004 C 
HETATM    9  C13 UNL     1      21.248   0.765  53.707  1.00  0.00     0.091 A 
HETATM   10  C14 UNL     1      20.703   1.893  52.948  1.00  0.00     0.028 A 
HETATM   11  C15 UNL     1      19.595   1.862  52.225  1.00  0.00     0.099 A 
ENDROOT
BRANCH  11  12
HETATM   12  O2  UNL     1      19.041   2.887  51.501  1.00  0.00    -0.347 OA
BRANCH  12  13
HETATM   13  C16 UNL     1      19.661   4.129  51.275  1.00  0.00     0.195 C 
BRANCH  13  14
HETATM   14  C17 UNL     1      20.355   4.201  49.932  1.00  0.00     0.149 C 
BRANCH  14  15
HETATM   15  N2  UNL     1      21.788   4.027  50.021  1.00  0.00    -0.379 N 
HETATM   16  C18 UNL     1      23.065   3.306  49.698  1.00  0.00     0.153 C 
HETATM   17  C19 UNL     1      24.059   4.474  49.561  1.00  0.00     0.293 C 
HETATM   18  N3  UNL     1      24.495   5.098  50.799  1.00  0.00     0.099 N 
HETATM   19  C20 UNL     1      24.067   6.519  50.911  1.00  0.00     0.302 C 
HETATM   20  C23 UNL     1      23.527   4.630  51.853  1.00  0.00     0.329 C 
HETATM   21  C21 UNL     1      22.539   6.373  50.924  1.00  0.00     0.029 C 
HETATM   22  C22 UNL     1      22.454   5.016  50.813  1.00  0.00     0.033 C 
ENDBRANCH  14  15
ENDBRANCH  13  14
ENDBRANCH  12  13
ENDBRANCH  11  12
BRANCH   1  23
HETATM   23  O1  UNL     1      17.621   0.445  51.424  1.00  0.00    -0.353 OA
HETATM   24  C1  UNL     1      17.655   0.042  50.085  1.00  0.00     0.210 C 
ENDBRANCH   1  23
BRANCH   8  25
HETATM   25  C9  UNL     1      24.787   0.409  52.380  1.00  0.00     0.005 C 
HETATM   26  C10 UNL     1      25.857   0.983  52.899  1.00  0.00    -0.056 C 
HETATM   27  C11 UNL     1      25.965   2.232  53.690  1.00  0.00     0.046 C 
BRANCH  26  28
HETATM   28  C12 UNL     1      27.224   0.401  52.743  1.00  0.00     0.256 C 
HETATM   29  F1  UNL     1      27.179  -0.932  53.042  1.00  0.00    -0.251 F 
ENDBRANCH  26  28
ENDBRANCH   8  25
TORSDOF 7
ENDMDL
MODEL 9
REMARK VINA RESULT:      -6.7      4.147      8.645
REMARK  7 active torsions:
REMARK  status: ('A' for Active; 'I' for Inactive)
REMARK    1  A    between atoms: O1_2  and  C2_3 
REMARK    2  A    between atoms: C8_10  and  C9_11 
REMARK    3  A    between atoms: C10_12  and  C12_14 
REMARK    4  A    between atoms: C15_18  and  O2_19 
REMARK    5  A    between atoms: O2_19  and  C16_20 
REMARK    6  A    between atoms: C16_20  and  C17_21 
REMARK    7  A    between atoms: C17_21  and  N2_22 
ROOT
HETATM    1  C2  UNL     1      23.433   5.071  51.257  1.00  0.00     0.103 A 
HETATM    2  C3  UNL     1      22.993   6.081  50.486  1.00  0.00     0.067 A 
HETATM    3  C4  UNL     1      23.676   6.304  49.214  1.00  0.00     0.043 A 
HETATM    4  N1  UNL     1      23.314   7.286  48.423  1.00  0.00    -0.293 NA
HETATM    5  C5  UNL     1      24.043   7.461  47.153  1.00  0.00     0.153 C 
HETATM    6  C6  UNL     1      25.540   7.503  47.438  1.00  0.00     0.057 C 
HETATM    7  C7  UNL     1      25.911   6.364  48.349  1.00  0.00    -0.065 C 
HETATM    8  C8  UNL     1      27.183   6.296  48.720  1.00  0.00     0.004 C 
HETATM    9  C13 UNL     1      24.817   5.456  48.718  1.00  0.00     0.091 A 
HETATM   10  C14 UNL     1      25.155   4.415  49.692  1.00  0.00     0.028 A 
HETATM   11  C15 UNL     1      24.540   4.222  50.847  1.00  0.00     0.099 A 
ENDROOT
BRANCH  11  12
HETATM   12  O2  UNL     1      24.815   3.265  51.790  1.00  0.00    -0.347 OA
BRANCH  12  13
HETATM   13  C16 UNL     1      24.888   1.885  51.527  1.00  0.00     0.195 C 
BRANCH  13  14
HETATM   14  C17 UNL     1      26.293   1.424  51.201  1.00  0.00     0.149 C 
BRANCH  14  15
HETATM   15  N2  UNL     1      26.817   0.475  52.158  1.00  0.00    -0.379 N 
HETATM   16  C18 UNL     1      27.091  -0.922  52.636  1.00  0.00     0.153 C 
HETATM   17  C19 UNL     1      28.470  -0.761  53.303  1.00  0.00     0.293 C 
HETATM   18  N3  UNL     1      28.487  -0.104  54.600  1.00  0.00     0.099 N 
HETATM   19  C20 UNL     1      29.227   1.186  54.583  1.00  0.00     0.302 C 
HETATM   20  C23 UNL     1      27.144   0.565  54.733  1.00  0.00     0.329 C 
HETATM   21  C21 UNL     1      28.377   2.010  53.606  1.00  0.00     0.029 C 
HETATM   22  C22 UNL     1      27.432   1.073  53.304  1.00  0.00     0.033 C 
ENDBRANCH  14  15
ENDBRANCH  13  14
ENDBRANCH  12  13
ENDBRANCH  11  12
BRANCH   1  23
HETATM   23  O1  UNL     1      22.679   5.005  52.419  1.00  0.00    -0.353 OA
HETATM   24  C1  UNL     1      21.507   4.241  52.457  1.00  0.00     0.210 C 
ENDBRANCH   1  23
BRANCH   8  25
HETATM   25  C9  UNL     1      28.084   7.320  48.213  1.00  0.00     0.005 C 
HETATM   26  C10 UNL     1      29.330   7.040  47.877  1.00  0.00    -0.056 C 
HETATM   27  C11 UNL     1      30.050   5.745  47.927  1.00  0.00     0.046 C 
BRANCH  26  28
HETATM   28  C12 UNL     1      30.265   8.082  47.355  1.00  0.00     0.256 C 
HETATM   29  F1  UNL     1      29.753   8.604  46.201  1.00  0.00    -0.251 F 
ENDBRANCH  26  28
ENDBRANCH   8  25
TORSDOF 7
ENDMDL
