MODEL 1
REMARK VINA RESULT:      -8.7      0.000      0.000
REMARK  4 active torsions:
REMARK  status: ('A' for Active; 'I' for Inactive)
REMARK    1  A    between atoms: N1_2  and  C2_3 
REMARK    2  A    between atoms: C9_14  and  N4_15 
REMARK    3  A    between atoms: N4_15  and  S1_16 
REMARK    4  A    between atoms: S1_16  and  P1_19 
ROOT
HETATM    1  C2  UNL     1      27.844   0.112  53.774  1.00  0.00     0.130 A 
HETATM    2  C3  UNL     1      28.887   0.944  53.956  1.00  0.00     0.160 A 
HETATM    3  N2  UNL     1      29.708  -0.074  53.662  1.00  0.00    -0.222 NA
HETATM    4  C4  UNL     1      29.186  -1.326  53.347  1.00  0.00     0.238 A 
HETATM    5  N3  UNL     1      27.877  -1.644  53.307  1.00  0.00    -0.213 NA
HETATM    6  C5  UNL     1      26.878  -0.784  53.572  1.00  0.00     0.232 A 
HETATM    7  O1  UNL     1      25.463  -0.943  53.569  1.00  0.00    -0.169 OA
HETATM    8  O2  UNL     1      24.755  -0.123  52.735  1.00  0.00    -0.190 OA
HETATM    9  C6  UNL     1      23.462   0.169  52.634  1.00  0.00     0.114 A 
HETATM   10  C7  UNL     1      22.465  -0.451  53.166  1.00  0.00     0.043 A 
HETATM   11  C8  UNL     1      21.021  -0.309  53.184  1.00  0.00     0.033 A 
HETATM   12  C9  UNL     1      20.845   0.854  52.357  1.00  0.00     0.040 A 
HETATM   13  C11 UNL     1      21.763   1.675  51.688  1.00  0.00     0.040 A 
HETATM   14  C12 UNL     1      23.026   1.252  51.889  1.00  0.00    -0.016 A 
HETATM   15  C13 UNL     1      24.086   2.133  51.207  1.00  0.00     0.068 C 
HETATM   16  C14 UNL     1      24.997   2.558  52.353  1.00  0.00    -0.022 C 
HETATM   17  C15 UNL     1      26.125   2.084  51.997  1.00  0.00    -0.002 C 
HETATM   18  C16 UNL     1      27.505   1.823  52.157  1.00  0.00     0.017 C 
HETATM   19  C17 UNL     1      27.759   2.378  53.393  1.00  0.00     0.090 C 
HETATM   20  N5  UNL     1      28.999   2.393  54.137  1.00  0.00    -0.349 N 
HETATM   21  H20 UNL     1      29.872   2.476  54.665  1.00  0.00     0.167 HD
ENDROOT
BRANCH  12  22
HETATM   22  N4  UNL     1      19.427   1.131  52.251  1.00  0.00    -0.314 N 
HETATM   23  H8  UNL     1      18.761   0.457  52.743  1.00  0.00     0.176 HD
BRANCH  22  24
HETATM   24  S1  UNL     1      18.670   2.423  51.425  1.00  0.00     0.045 S 
HETATM   25  C10 UNL     1      16.908   2.322  51.587  1.00  0.00     0.141 C 
HETATM   26  O3  UNL     1      19.109   3.765  51.962  1.00  0.00    -0.245 OA
BRANCH  24  27
HETATM   27  P1  UNL     1      19.114   2.401  49.546  1.00  0.00     0.016 P 
HETATM   28  H12 UNL     1      19.475   1.093  48.969  1.00  0.00     0.077 HD
ENDBRANCH  24  27
ENDBRANCH  22  24
ENDBRANCH  12  22
BRANCH   1  29
HETATM   29  N1  UNL     1      26.962   0.485  54.945  1.00  0.00    -0.388 N 
HETATM   30  C1  UNL     1      26.361  -0.195  56.103  1.00  0.00     0.146 C 
HETATM   31  H4  UNL     1      26.472   1.395  55.329  1.00  0.00     0.159 HD
ENDBRANCH   1  29
TORSDOF 4
ENDMDL
MODEL 2
REMARK VINA RESULT:      -8.3      6.672      8.040
REMARK  4 active torsions:
REMARK  status: ('A' for Active; 'I' for Inactive)
REMARK    1  A    between atoms: N1_2  and  C2_3 
REMARK    2  A    between atoms: C9_14  and  N4_15 
REMARK    3  A    between atoms: N4_15  and  S1_16 
REMARK    4  A    between atoms: S1_16  and  P1_19 
ROOT
HETATM    1  C2  UNL     1      31.275   6.964  47.844  1.00  0.00     0.130 A 
HETATM    2  C3  UNL     1      31.883   8.163  47.910  1.00  0.00     0.160 A 
HETATM    3  N2  UNL     1      32.721   7.755  46.945  1.00  0.00    -0.222 NA
HETATM    4  C4  UNL     1      32.592   6.481  46.400  1.00  0.00     0.238 A 
HETATM    5  N3  UNL     1      31.673   5.562  46.757  1.00  0.00    -0.213 NA
HETATM    6  C5  UNL     1      30.739   5.751  47.705  1.00  0.00     0.232 A 
HETATM    7  O1  UNL     1      29.700   4.909  48.196  1.00  0.00    -0.169 OA
HETATM    8  O2  UNL     1      28.424   5.389  48.099  1.00  0.00    -0.190 OA
HETATM    9  C6  UNL     1      27.270   5.008  48.636  1.00  0.00     0.114 A 
HETATM   10  C7  UNL     1      27.000   3.895  49.228  1.00  0.00     0.043 A 
HETATM   11  C8  UNL     1      25.844   3.291  49.866  1.00  0.00     0.033 A 
HETATM   12  C9  UNL     1      24.861   4.327  49.699  1.00  0.00     0.040 A 
HETATM   13  C11 UNL     1      24.926   5.593  49.103  1.00  0.00     0.040 A 
HETATM   14  C12 UNL     1      26.157   5.832  48.609  1.00  0.00    -0.016 A 
HETATM   15  C13 UNL     1      26.304   7.222  47.969  1.00  0.00     0.068 C 
HETATM   16  C14 UNL     1      27.464   7.852  48.731  1.00  0.00    -0.022 C 
HETATM   17  C15 UNL     1      28.313   8.071  47.808  1.00  0.00    -0.002 C 
HETATM   18  C16 UNL     1      29.555   8.513  47.297  1.00  0.00     0.017 C 
HETATM   19  C17 UNL     1      30.210   8.911  48.443  1.00  0.00     0.090 C 
HETATM   20  N5  UNL     1      31.555   9.422  48.582  1.00  0.00    -0.349 N 
HETATM   21  H20 UNL     1      32.480   9.843  48.712  1.00  0.00     0.167 HD
ENDROOT
BRANCH  12  22
HETATM   22  N4  UNL     1      23.612   3.871  50.277  1.00  0.00    -0.314 N 
HETATM   23  H8  UNL     1      22.891   3.454  49.608  1.00  0.00     0.176 HD
BRANCH  22  24
HETATM   24  S1  UNL     1      23.137   3.917  51.918  1.00  0.00     0.045 S 
HETATM   25  C10 UNL     1      23.894   2.594  52.825  1.00  0.00     0.141 C 
HETATM   26  O3  UNL     1      23.532   5.217  52.580  1.00  0.00    -0.245 OA
BRANCH  24  27
HETATM   27  P1  UNL     1      21.220   3.760  52.092  1.00  0.00     0.016 P 
HETATM   28  H12 UNL     1      20.549   4.773  52.926  1.00  0.00     0.077 HD
ENDBRANCH  24  27
ENDBRANCH  22  24
ENDBRANCH  12  22
BRANCH   1  29
HETATM   29  N1  UNL     1      31.082   6.649  49.310  1.00  0.00    -0.388 N 
HETATM   30  C1  UNL     1      31.875   6.062  50.402  1.00  0.00     0.146 C 
HETATM   31  H4  UNL     1      30.281   6.756  50.060  1.00  0.00     0.159 HD
ENDBRANCH   1  29
TORSDOF 4
ENDMDL
MODEL 3
REMARK VINA RESULT:      -8.2      7.160      8.752
REMARK  4 active torsions:
REMARK  status: ('A' for Active; 'I' for Inactive)
REMARK    1  A    between atoms: N1_2  and  C2_3 
REMARK    2  A    between atoms: C9_14  and  N4_15 
REMARK    3  A    between atoms: N4_15  and  S1_16 
REMARK    4  A    between atoms: S1_16  and  P1_19 
ROOT
HETATM    1  C2  UNL     1      30.090   8.783  47.843  1.00  0.00     0.130 A 
HETATM    2  C3  UNL     1      30.427  10.034  48.208  1.00  0.00     0.160 A 
HETATM    3  N2  UNL     1      30.963  10.210  46.992  1.00  0.00    -0.222 NA
HETATM    4  C4  UNL     1      30.924   9.181  46.055  1.00  0.00     0.238 A 
HETATM    5  N3  UNL     1      30.384   7.962  46.249  1.00  0.00    -0.213 NA
HETATM    6  C5  UNL     1      29.799   7.563  47.391  1.00  0.00     0.232 A 
HETATM    7  O1  UNL     1      29.177   6.337  47.763  1.00  0.00    -0.169 OA
HETATM    8  O2  UNL     1      27.871   6.406  48.160  1.00  0.00    -0.190 OA
HETATM    9  C6  UNL     1      27.064   5.547  48.774  1.00  0.00     0.114 A 
HETATM   10  C7  UNL     1      27.239   4.282  48.950  1.00  0.00     0.043 A 
HETATM   11  C8  UNL     1      26.509   3.191  49.570  1.00  0.00     0.033 A 
HETATM   12  C9  UNL     1      25.337   3.874  50.045  1.00  0.00     0.040 A 
HETATM   13  C11 UNL     1      24.940   5.216  49.970  1.00  0.00     0.040 A 
HETATM   14  C12 UNL     1      25.861   5.957  49.325  1.00  0.00    -0.016 A 
HETATM   15  C13 UNL     1      25.500   7.449  49.239  1.00  0.00     0.068 C 
HETATM   16  C14 UNL     1      26.692   8.149  49.881  1.00  0.00    -0.022 C 
HETATM   17  C15 UNL     1      27.124   8.883  48.934  1.00  0.00    -0.002 C 
HETATM   18  C16 UNL     1      28.008   9.817  48.346  1.00  0.00     0.017 C 
HETATM   19  C17 UNL     1      28.909  10.037  49.366  1.00  0.00     0.090 C 
HETATM   20  N5  UNL     1      30.090  10.872  49.362  1.00  0.00    -0.349 N 
HETATM   21  H20 UNL     1      30.898  11.498  49.415  1.00  0.00     0.167 HD
ENDROOT
BRANCH  12  22
HETATM   22  N4  UNL     1      24.471   2.907  50.688  1.00  0.00    -0.314 N 
HETATM   23  H8  UNL     1      23.894   2.270  50.052  1.00  0.00     0.176 HD
BRANCH  22  24
HETATM   24  S1  UNL     1      24.250   2.648  52.364  1.00  0.00     0.045 S 
HETATM   25  C10 UNL     1      25.763   2.116  53.119  1.00  0.00     0.141 C 
HETATM   26  O3  UNL     1      23.796   3.905  53.070  1.00  0.00    -0.245 OA
BRANCH  24  27
HETATM   27  P1  UNL     1      22.900   1.306  52.688  1.00  0.00     0.016 P 
HETATM   28  H12 UNL     1      22.335   0.639  51.501  1.00  0.00     0.077 HD
ENDBRANCH  24  27
ENDBRANCH  22  24
ENDBRANCH  12  22
BRANCH   1  29
HETATM   29  N1  UNL     1      30.463   8.003  49.085  1.00  0.00    -0.388 N 
HETATM   30  C1  UNL     1      31.692   7.490  49.709  1.00  0.00     0.146 C 
HETATM   31  H4  UNL     1      29.938   7.558  49.946  1.00  0.00     0.159 HD
ENDBRANCH   1  29
TORSDOF 4
ENDMDL
MODEL 4
REMARK VINA RESULT:      -8.0      5.662      8.322
REMARK  4 active torsions:
REMARK  status: ('A' for Active; 'I' for Inactive)
REMARK    1  A    between atoms: N1_2  and  C2_3 
REMARK    2  A    between atoms: C9_14  and  N4_15 
REMARK    3  A    between atoms: N4_15  and  S1_16 
REMARK    4  A    between atoms: S1_16  and  P1_19 
ROOT
HETATM    1  C2  UNL     1      22.345   2.223  51.691  1.00  0.00     0.130 A 
HETATM    2  C3  UNL     1      21.016   2.263  51.903  1.00  0.00     0.160 A 
HETATM    3  N2  UNL     1      21.178   1.365  52.885  1.00  0.00    -0.222 NA
HETATM    4  C4  UNL     1      22.449   0.884  53.190  1.00  0.00     0.238 A 
HETATM    5  N3  UNL     1      23.593   1.238  52.571  1.00  0.00    -0.213 NA
HETATM    6  C5  UNL     1      23.667   2.116  51.557  1.00  0.00     0.232 A 
HETATM    7  O1  UNL     1      24.772   2.607  50.804  1.00  0.00    -0.169 OA
HETATM    8  O2  UNL     1      24.970   3.959  50.816  1.00  0.00    -0.190 OA
HETATM    9  C6  UNL     1      25.723   4.771  50.080  1.00  0.00     0.114 A 
HETATM   10  C7  UNL     1      26.684   4.455  49.282  1.00  0.00     0.043 A 
HETATM   11  C8  UNL     1      27.609   5.158  48.411  1.00  0.00     0.033 A 
HETATM   12  C9  UNL     1      27.205   6.522  48.620  1.00  0.00     0.040 A 
HETATM   13  C11 UNL     1      26.208   7.092  49.422  1.00  0.00     0.040 A 
HETATM   14  C12 UNL     1      25.534   6.144  50.102  1.00  0.00    -0.016 A 
HETATM   15  C13 UNL     1      24.400   6.702  50.977  1.00  0.00     0.068 C 
HETATM   16  C14 UNL     1      23.162   5.962  50.484  1.00  0.00    -0.022 C 
HETATM   17  C15 UNL     1      22.771   5.353  51.532  1.00  0.00    -0.002 C 
HETATM   18  C16 UNL     1      21.920   4.492  52.264  1.00  0.00     0.017 C 
HETATM   19  C17 UNL     1      21.037   4.072  51.293  1.00  0.00     0.090 C 
HETATM   20  N5  UNL     1      19.944   3.132  51.413  1.00  0.00    -0.349 N 
HETATM   21  H20 UNL     1      19.126   2.519  51.474  1.00  0.00     0.167 HD
ENDROOT
BRANCH  12  22
HETATM   22  N4  UNL     1      28.058   7.380  47.821  1.00  0.00    -0.314 N 
HETATM   23  H8  UNL     1      27.856   7.426  46.772  1.00  0.00     0.176 HD
BRANCH  22  24
HETATM   24  S1  UNL     1      29.367   8.344  48.350  1.00  0.00     0.045 S 
HETATM   25  C10 UNL     1      29.800   9.541  47.116  1.00  0.00     0.141 C 
HETATM   26  O3  UNL     1      29.036   9.088  49.622  1.00  0.00    -0.245 OA
BRANCH  24  27
HETATM   27  P1  UNL     1      30.921   7.260  48.723  1.00  0.00     0.016 P 
HETATM   28  H12 UNL     1      32.187   7.980  48.952  1.00  0.00     0.077 HD
ENDBRANCH  24  27
ENDBRANCH  22  24
ENDBRANCH  12  22
BRANCH   1  29
HETATM   29  N1  UNL     1      22.402   2.194  50.180  1.00  0.00    -0.388 N 
HETATM   30  C1  UNL     1      21.927   1.316  49.098  1.00  0.00     0.146 C 
HETATM   31  H4  UNL     1      22.817   2.822  49.375  1.00  0.00     0.159 HD
ENDBRANCH   1  29
TORSDOF 4
ENDMDL
MODEL 5
REMARK VINA RESULT:      -7.9      3.865      8.662
REMARK  4 active torsions:
REMARK  status: ('A' for Active; 'I' for Inactive)
REMARK    1  A    between atoms: N1_2  and  C2_3 
REMARK    2  A    between atoms: C9_14  and  N4_15 
REMARK    3  A    between atoms: N4_15  and  S1_16 
REMARK    4  A    between atoms: S1_16  and  P1_19 
ROOT
HETATM    1  C2  UNL     1      19.302   3.864  49.116  1.00  0.00     0.130 A 
HETATM    2  C3  UNL     1      18.050   4.263  49.408  1.00  0.00     0.160 A 
HETATM    3  N2  UNL     1      17.688   3.935  48.159  1.00  0.00    -0.222 NA
HETATM    4  C4  UNL     1      18.626   3.409  47.275  1.00  0.00     0.238 A 
HETATM    5  N3  UNL     1      19.926   3.185  47.550  1.00  0.00    -0.213 NA
HETATM    6  C5  UNL     1      20.508   3.445  48.734  1.00  0.00     0.232 A 
HETATM    7  O1  UNL     1      21.843   3.266  49.196  1.00  0.00    -0.169 OA
HETATM    8  O2  UNL     1      22.011   2.469  50.293  1.00  0.00    -0.190 OA
HETATM    9  C6  UNL     1      23.035   2.264  51.116  1.00  0.00     0.114 A 
HETATM   10  C7  UNL     1      24.268   2.599  50.946  1.00  0.00     0.043 A 
HETATM   11  C8  UNL     1      25.508   2.475  51.690  1.00  0.00     0.033 A 
HETATM   12  C9  UNL     1      25.058   1.788  52.870  1.00  0.00     0.040 A 
HETATM   13  C11 UNL     1      23.792   1.334  53.264  1.00  0.00     0.040 A 
HETATM   14  C12 UNL     1      22.864   1.618  52.329  1.00  0.00    -0.016 A 
HETATM   15  C13 UNL     1      21.445   1.175  52.717  1.00  0.00     0.068 C 
HETATM   16  C14 UNL     1      20.627   2.458  52.633  1.00  0.00    -0.022 C 
HETATM   17  C15 UNL     1      19.756   2.172  51.749  1.00  0.00    -0.002 C 
HETATM   18  C16 UNL     1      18.649   2.449  50.913  1.00  0.00     0.017 C 
HETATM   19  C17 UNL     1      18.382   3.765  51.221  1.00  0.00     0.090 C 
HETATM   20  N5  UNL     1      17.377   4.638  50.654  1.00  0.00    -0.349 N 
HETATM   21  H20 UNL     1      16.641   5.266  50.320  1.00  0.00     0.167 HD
ENDROOT
BRANCH  12  22
HETATM   22  N4  UNL     1      26.200   1.562  53.733  1.00  0.00    -0.314 N 
HETATM   23  H8  UNL     1      26.696   2.426  54.120  1.00  0.00     0.176 HD
BRANCH  22  24
HETATM   24  S1  UNL     1      26.866   0.065  54.220  1.00  0.00     0.045 S 
HETATM   25  C10 UNL     1      28.556   0.265  54.717  1.00  0.00     0.141 C 
HETATM   26  O3  UNL     1      26.109  -0.534  55.382  1.00  0.00    -0.245 OA
BRANCH  24  27
HETATM   27  P1  UNL     1      26.800  -1.225  52.784  1.00  0.00     0.016 P 
HETATM   28  H12 UNL     1      27.077  -0.717  51.429  1.00  0.00     0.077 HD
ENDBRANCH  24  27
ENDBRANCH  22  24
ENDBRANCH  12  22
BRANCH   1  29
HETATM   29  N1  UNL     1      20.119   4.968  49.749  1.00  0.00    -0.388 N 
HETATM   30  C1  UNL     1      20.368   6.398  49.512  1.00  0.00     0.146 C 
HETATM   31  H4  UNL     1      20.803   5.075  50.607  1.00  0.00     0.159 HD
ENDBRANCH   1  29
TORSDOF 4
ENDMDL
MODEL 6
REMARK VINA RESULT:      -7.7      2.988      4.117
REMARK  4 active torsions:
REMARK  status: ('A' for Active; 'I' for Inactive)
REMARK    1  A    between atoms: N1_2  and  C2_3 
REMARK    2  A    between atoms: C9_14  and  N4_15 
REMARK    3  A    between atoms: N4_15  and  S1_16 
REMARK    4  A    between atoms: S1_16  and  P1_19 
ROOT
HETATM    1  C2  UNL     1      24.998   2.526  51.389  1.00  0.00     0.130 A 
HETATM    2  C3  UNL     1      25.692   3.592  50.950  1.00  0.00     0.160 A 
HETATM    3  N2  UNL     1      26.816   2.870  51.071  1.00  0.00    -0.222 NA
HETATM    4  C4  UNL     1      26.756   1.553  51.519  1.00  0.00     0.238 A 
HETATM    5  N3  UNL     1      25.634   0.892  51.867  1.00  0.00    -0.213 NA
HETATM    6  C5  UNL     1      24.399   1.420  51.831  1.00  0.00     0.232 A 
HETATM    7  O1  UNL     1      23.122   0.874  52.148  1.00  0.00    -0.169 OA
HETATM    8  O2  UNL     1      22.189   0.875  51.150  1.00  0.00    -0.190 OA
HETATM    9  C6  UNL     1      20.875   0.672  51.138  1.00  0.00     0.114 A 
HETATM   10  C7  UNL     1      20.143   0.164  52.069  1.00  0.00     0.043 A 
HETATM   11  C8  UNL     1      18.736  -0.141  52.258  1.00  0.00     0.033 A 
HETATM   12  C9  UNL     1      18.186   0.295  51.004  1.00  0.00     0.040 A 
HETATM   13  C11 UNL     1      18.776   0.866  49.869  1.00  0.00     0.040 A 
HETATM   14  C12 UNL     1      20.106   1.010  50.036  1.00  0.00    -0.016 A 
HETATM   15  C13 UNL     1      20.810   1.664  48.837  1.00  0.00     0.068 C 
HETATM   16  C14 UNL     1      21.507   2.877  49.442  1.00  0.00    -0.022 C 
HETATM   17  C15 UNL     1      22.733   2.647  49.186  1.00  0.00    -0.002 C 
HETATM   18  C16 UNL     1      24.118   2.932  49.217  1.00  0.00     0.017 C 
HETATM   19  C17 UNL     1      24.151   4.102  49.945  1.00  0.00     0.090 C 
HETATM   20  N5  UNL     1      25.301   4.874  50.359  1.00  0.00    -0.349 N 
HETATM   21  H20 UNL     1      26.087   5.478  50.617  1.00  0.00     0.167 HD
ENDROOT
BRANCH  12  22
HETATM   22  N4  UNL     1      16.759   0.040  51.016  1.00  0.00    -0.314 N 
HETATM   23  H8  UNL     1      16.423  -0.870  50.568  1.00  0.00     0.176 HD
BRANCH  22  24
HETATM   24  S1  UNL     1      15.523   1.027  51.666  1.00  0.00     0.045 S 
HETATM   25  C10 UNL     1      14.037   0.878  50.710  1.00  0.00     0.141 C 
HETATM   26  O3  UNL     1      15.197   0.650  53.092  1.00  0.00    -0.245 OA
BRANCH  24  27
HETATM   27  P1  UNL     1      16.055   2.883  51.685  1.00  0.00     0.016 P 
HETATM   28  H12 UNL     1      17.491   3.155  51.872  1.00  0.00     0.077 HD
ENDBRANCH  24  27
ENDBRANCH  22  24
ENDBRANCH  12  22
BRANCH   1  29
HETATM   29  N1  UNL     1      24.026   3.180  52.346  1.00  0.00    -0.388 N 
HETATM   30  C1  UNL     1      24.099   4.010  53.559  1.00  0.00     0.146 C 
HETATM   31  H4  UNL     1      22.932   3.260  52.457  1.00  0.00     0.159 HD
ENDBRANCH   1  29
TORSDOF 4
ENDMDL
MODEL 7
REMARK VINA RESULT:      -7.5     10.725     11.692
REMARK  4 active torsions:
REMARK  status: ('A' for Active; 'I' for Inactive)
REMARK    1  A    between atoms: N1_2  and  C2_3 
REMARK    2  A    between atoms: C9_14  and  N4_15 
REMARK    3  A    between atoms: N4_15  and  S1_16 
REMARK    4  A    between atoms: S1_16  and  P1_19 
ROOT
HETATM    1  C2  UNL     1      33.848   4.594  46.317  1.00  0.00     0.130 A 
HETATM    2  C3  UNL     1      34.725   3.856  47.024  1.00  0.00     0.160 A 
HETATM    3  N2  UNL     1      35.433   3.679  45.899  1.00  0.00    -0.222 NA
HETATM    4  C4  UNL     1      35.007   4.256  44.706  1.00  0.00     0.238 A 
HETATM    5  N3  UNL     1      33.900   5.008  44.548  1.00  0.00    -0.213 NA
HETATM    6  C5  UNL     1      33.040   5.309  45.536  1.00  0.00     0.232 A 
HETATM    7  O1  UNL     1      31.845   6.085  45.551  1.00  0.00    -0.169 OA
HETATM    8  O2  UNL     1      31.816   7.151  46.406  1.00  0.00    -0.190 OA
HETATM    9  C6  UNL     1      30.835   7.932  46.849  1.00  0.00     0.114 A 
HETATM   10  C7  UNL     1      29.638   8.042  46.382  1.00  0.00     0.043 A 
HETATM   11  C8  UNL     1      28.448   8.810  46.701  1.00  0.00     0.033 A 
HETATM   12  C9  UNL     1      28.902   9.571  47.832  1.00  0.00     0.040 A 
HETATM   13  C11 UNL     1      30.133   9.615  48.499  1.00  0.00     0.040 A 
HETATM   14  C12 UNL     1      31.018   8.769  47.937  1.00  0.00    -0.016 A 
HETATM   15  C13 UNL     1      32.382   8.744  48.645  1.00  0.00     0.068 C 
HETATM   16  C14 UNL     1      32.573   7.278  49.015  1.00  0.00    -0.022 C 
HETATM   17  C15 UNL     1      33.641   6.974  48.390  1.00  0.00    -0.002 C 
HETATM   18  C16 UNL     1      34.667   6.096  47.971  1.00  0.00     0.017 C 
HETATM   19  C17 UNL     1      34.280   4.908  48.554  1.00  0.00     0.090 C 
HETATM   20  N5  UNL     1      34.908   3.609  48.456  1.00  0.00    -0.349 N 
HETATM   21  H20 UNL     1      35.358   2.689  48.459  1.00  0.00     0.167 HD
ENDROOT
BRANCH  12  22
HETATM   22  N4  UNL     1      27.817  10.425  48.274  1.00  0.00    -0.314 N 
HETATM   23  H8  UNL     1      26.982   9.949  48.740  1.00  0.00     0.176 HD
BRANCH  22  24
HETATM   24  S1  UNL     1      27.702  12.126  48.144  1.00  0.00     0.045 S 
HETATM   25  C10 UNL     1      26.015  12.624  47.927  1.00  0.00     0.141 C 
HETATM   26  O3  UNL     1      28.235  12.820  49.376  1.00  0.00    -0.245 OA
BRANCH  24  27
HETATM   27  P1  UNL     1      28.731  12.780  46.646  1.00  0.00     0.016 P 
HETATM   28  H12 UNL     1      29.440  11.768  45.843  1.00  0.00     0.077 HD
ENDBRANCH  24  27
ENDBRANCH  22  24
ENDBRANCH  12  22
BRANCH   1  29
HETATM   29  N1  UNL     1      32.530   4.083  46.855  1.00  0.00    -0.388 N 
HETATM   30  C1  UNL     1      31.706   2.872  46.719  1.00  0.00     0.146 C 
HETATM   31  H4  UNL     1      31.741   4.444  47.534  1.00  0.00     0.159 HD
ENDBRANCH   1  29
TORSDOF 4
ENDMDL
MODEL 8
REMARK VINA RESULT:      -7.4      4.165      6.076
REMARK  4 active torsions:
REMARK  status: ('A' for Active; 'I' for Inactive)
REMARK    1  A    between atoms: N1_2  and  C2_3 
REMARK    2  A    between atoms: C9_14  and  N4_15 
REMARK    3  A    between atoms: N4_15  and  S1_16 
REMARK    4  A    between atoms: S1_16  and  P1_19 
ROOT
HETATM    1  C2  UNL     1      22.817   3.012  51.241  1.00  0.00     0.130 A 
HETATM    2  C3  UNL     1      24.159   2.922  51.185  1.00  0.00     0.160 A 
HETATM    3  N2  UNL     1      24.223   4.253  51.332  1.00  0.00    -0.222 NA
HETATM    4  C4  UNL     1      23.054   4.999  51.462  1.00  0.00     0.238 A 
HETATM    5  N3  UNL     1      21.801   4.503  51.450  1.00  0.00    -0.213 NA
HETATM    6  C5  UNL     1      21.500   3.202  51.308  1.00  0.00     0.232 A 
HETATM    7  O1  UNL     1      20.254   2.512  51.283  1.00  0.00    -0.169 OA
HETATM    8  O2  UNL     1      20.073   1.537  52.224  1.00  0.00    -0.190 OA
HETATM    9  C6  UNL     1      19.176   0.565  52.361  1.00  0.00     0.114 A 
HETATM   10  C7  UNL     1      18.054   0.429  51.742  1.00  0.00     0.043 A 
HETATM   11  C8  UNL     1      16.958  -0.523  51.739  1.00  0.00     0.033 A 
HETATM   12  C9  UNL     1      17.408  -1.468  52.724  1.00  0.00     0.040 A 
HETATM   13  C11 UNL     1      18.568  -1.525  53.508  1.00  0.00     0.040 A 
HETATM   14  C12 UNL     1      19.375  -0.476  53.253  1.00  0.00    -0.016 A 
HETATM   15  C13 UNL     1      20.684  -0.497  54.058  1.00  0.00     0.068 C 
HETATM   16  C14 UNL     1      21.769  -0.445  52.989  1.00  0.00    -0.022 C 
HETATM   17  C15 UNL     1      22.389   0.630  53.277  1.00  0.00    -0.002 C 
HETATM   18  C16 UNL     1      23.380   1.621  53.086  1.00  0.00     0.017 C 
HETATM   19  C17 UNL     1      24.011   1.176  51.944  1.00  0.00     0.090 C 
HETATM   20  N5  UNL     1      25.095   1.795  51.214  1.00  0.00    -0.349 N 
HETATM   21  H20 UNL     1      25.900   2.172  50.706  1.00  0.00     0.167 HD
ENDROOT
BRANCH  12  22
HETATM   22  N4  UNL     1      16.400  -2.500  52.864  1.00  0.00    -0.314 N 
HETATM   23  H8  UNL     1      16.657  -3.356  53.449  1.00  0.00     0.176 HD
BRANCH  22  24
HETATM   24  S1  UNL     1      14.824  -2.524  52.200  1.00  0.00     0.045 S 
HETATM   25  C10 UNL     1      13.950  -1.038  52.614  1.00  0.00     0.141 C 
HETATM   26  O3  UNL     1      14.852  -2.640  50.694  1.00  0.00    -0.245 OA
BRANCH  24  27
HETATM   27  P1  UNL     1      13.815  -4.032  52.859  1.00  0.00     0.016 P 
HETATM   28  H12 UNL     1      14.594  -5.153  53.416  1.00  0.00     0.077 HD
ENDBRANCH  24  27
ENDBRANCH  22  24
ENDBRANCH  12  22
BRANCH   1  29
HETATM   29  N1  UNL     1      22.412   2.066  50.133  1.00  0.00    -0.388 N 
HETATM   30  C1  UNL     1      22.393   2.071  48.661  1.00  0.00     0.146 C 
HETATM   31  H4  UNL     1      21.994   1.049  50.052  1.00  0.00     0.159 HD
ENDBRANCH   1  29
TORSDOF 4
ENDMDL
MODEL 9
REMARK VINA RESULT:      -7.4      5.483      7.938
REMARK  4 active torsions:
REMARK  status: ('A' for Active; 'I' for Inactive)
REMARK    1  A    between atoms: N1_2  and  C2_3 
REMARK    2  A    between atoms: C9_14  and  N4_15 
REMARK    3  A    between atoms: N4_15  and  S1_16 
REMARK    4  A    between atoms: S1_16  and  P1_19 
ROOT
HETATM    1  C2  UNL     1      22.233   1.838  51.142  1.00  0.00     0.130 A 
HETATM    2  C3  UNL     1      22.276   1.082  52.256  1.00  0.00     0.160 A 
HETATM    3  N2  UNL     1      21.453   0.209  51.657  1.00  0.00    -0.222 NA
HETATM    4  C4  UNL     1      21.007   0.445  50.360  1.00  0.00     0.238 A 
HETATM    5  N3  UNL     1      21.325   1.513  49.601  1.00  0.00    -0.213 NA
HETATM    6  C5  UNL     1      22.128   2.515  49.999  1.00  0.00     0.232 A 
HETATM    7  O1  UNL     1      22.572   3.696  49.338  1.00  0.00    -0.169 OA
HETATM    8  O2  UNL     1      23.923   3.854  49.205  1.00  0.00    -0.190 OA
HETATM    9  C6  UNL     1      24.685   4.889  48.868  1.00  0.00     0.114 A 
HETATM   10  C7  UNL     1      24.320   6.000  48.325  1.00  0.00     0.043 A 
HETATM   11  C8  UNL     1      24.965   7.224  47.886  1.00  0.00     0.033 A 
HETATM   12  C9  UNL     1      26.337   6.948  48.214  1.00  0.00     0.040 A 
HETATM   13  C11 UNL     1      26.956   5.834  48.798  1.00  0.00     0.040 A 
HETATM   14  C12 UNL     1      26.054   4.875  49.083  1.00  0.00    -0.016 A 
HETATM   15  C13 UNL     1      26.665   3.637  49.759  1.00  0.00     0.068 C 
HETATM   16  C14 UNL     1      25.881   3.508  51.059  1.00  0.00    -0.022 C 
HETATM   17  C15 UNL     1      25.346   2.357  50.945  1.00  0.00    -0.002 C 
HETATM   18  C16 UNL     1      24.534   1.281  51.371  1.00  0.00     0.017 C 
HETATM   19  C17 UNL     1      24.036   1.755  52.566  1.00  0.00     0.090 C 
HETATM   20  N5  UNL     1      23.098   1.122  53.467  1.00  0.00    -0.349 N 
HETATM   21  H20 UNL     1      22.485   0.681  54.157  1.00  0.00     0.167 HD
ENDROOT
BRANCH  12  22
HETATM   22  N4  UNL     1      27.142   8.086  47.816  1.00  0.00    -0.314 N 
HETATM   23  H8  UNL     1      27.216   8.286  46.769  1.00  0.00     0.176 HD
BRANCH  22  24
HETATM   24  S1  UNL     1      28.001   9.167  48.824  1.00  0.00     0.045 S 
HETATM   25  C10 UNL     1      27.234   9.278  50.418  1.00  0.00     0.141 C 
HETATM   26  O3  UNL     1      29.432   8.726  49.027  1.00  0.00    -0.245 OA
BRANCH  24  27
HETATM   27  P1  UNL     1      28.065  10.935  48.051  1.00  0.00     0.016 P 
HETATM   28  H12 UNL     1      28.706  11.054  46.729  1.00  0.00     0.077 HD
ENDBRANCH  24  27
ENDBRANCH  22  24
ENDBRANCH  12  22
BRANCH   1  29
HETATM   29  N1  UNL     1      22.093   3.224  51.730  1.00  0.00    -0.388 N 
HETATM   30  C1  UNL     1      21.019   4.052  52.299  1.00  0.00     0.146 C 
HETATM   31  H4  UNL     1      22.752   4.083  51.936  1.00  0.00     0.159 HD
ENDBRANCH   1  29
TORSDOF 4
ENDMDL
