MODEL 1
REMARK VINA RESULT:      -9.2      0.000      0.000
REMARK  1 active torsions:
REMARK  status: ('A' for Active; 'I' for Inactive)
REMARK    1  A    between atoms: C11_15  and  C12_16 
ROOT
HETATM    1  F1  UNL     1      23.354   0.089  53.954  1.00  0.00    -0.208 F 
HETATM    2  C1  UNL     1      23.314   0.873  52.859  1.00  0.00     0.124 C 
HETATM    3  C2  UNL     1      22.091   0.397  52.960  1.00  0.00     0.088 C 
HETATM    4  C3  UNL     1      20.739   0.280  52.510  1.00  0.00     0.013 C 
HETATM    5  C4  UNL     1      19.587   0.334  51.914  1.00  0.00     0.028 C 
HETATM    6  C5  UNL     1      18.554  -0.519  52.607  1.00  0.00     0.224 C 
HETATM    7  O1  UNL     1      17.555  -0.821  51.699  1.00  0.00    -0.384 OA
HETATM    8  C6  UNL     1      16.975   0.388  51.334  1.00  0.00     0.187 C 
HETATM    9  C7  UNL     1      17.832   1.110  50.299  1.00  0.00     0.149 C 
HETATM   10  N1  UNL     1      19.205   1.076  50.734  1.00  0.00    -0.380 N 
HETATM   11  C8  UNL     1      20.280   1.764  50.057  1.00  0.00     0.125 C 
HETATM   12  C9  UNL     1      21.211   0.859  49.298  1.00  0.00     0.046 C 
HETATM   13  C10 UNL     1      22.436   1.730  48.843  1.00  0.00     0.170 C 
HETATM   14  O2  UNL     1      22.791   2.319  49.990  1.00  0.00    -0.376 OA
HETATM   15  C11 UNL     1      23.979   3.107  50.060  1.00  0.00     0.199 C 
HETATM   16  C22 UNL     1      24.567   2.445  51.262  1.00  0.00     0.037 C 
HETATM   17  C23 UNL     1      24.398   1.647  52.291  1.00  0.00     0.068 C 
HETATM   18 CL1  UNL     1      25.833   1.405  53.309  1.00  0.00    -0.082 Cl
ENDROOT
BRANCH  15  19
HETATM   19  C12 UNL     1      23.502   4.476  50.398  1.00  0.00     0.084 A 
HETATM   20  N2  UNL     1      22.377   4.500  51.155  1.00  0.00    -0.242 NA
HETATM   21  C13 UNL     1      21.744   5.643  51.510  1.00  0.00     0.234 A 
HETATM   22  N3  UNL     1      22.210   6.864  51.121  1.00  0.00    -0.241 NA
HETATM   23  C14 UNL     1      23.339   6.884  50.361  1.00  0.00     0.073 A 
HETATM   24  C15 UNL     1      23.897   8.072  49.933  1.00  0.00     0.035 A 
HETATM   25  C19 UNL     1      23.967   5.710  50.012  1.00  0.00     0.057 A 
HETATM   26  C16 UNL     1      25.070   8.057  49.168  1.00  0.00     0.042 A 
HETATM   27  C17 UNL     1      25.690   6.853  48.829  1.00  0.00     0.103 A 
HETATM   28  C18 UNL     1      25.111   5.684  49.269  1.00  0.00     0.116 A 
HETATM   29  O4  UNL     1      26.861   6.781  48.072  1.00  0.00    -0.346 OA
HETATM   30  O3  UNL     1      25.820   4.573  48.871  1.00  0.00    -0.345 OA
HETATM   31  C20 UNL     1      27.250   4.511  48.888  1.00  0.00     0.202 C 
HETATM   32  C21 UNL     1      27.855   5.837  48.515  1.00  0.00     0.202 C 
ENDBRANCH  15  19
TORSDOF 1
ENDMDL
MODEL 2
REMARK VINA RESULT:      -8.9      3.201      7.691
REMARK  1 active torsions:
REMARK  status: ('A' for Active; 'I' for Inactive)
REMARK    1  A    between atoms: C11_15  and  C12_16 
ROOT
HETATM    1  F1  UNL     1      27.265   7.257  47.387  1.00  0.00    -0.208 F 
HETATM    2  C1  UNL     1      26.368   6.663  48.197  1.00  0.00     0.124 C 
HETATM    3  C2  UNL     1      25.773   7.772  47.816  1.00  0.00     0.088 C 
HETATM    4  C3  UNL     1      24.665   8.676  47.814  1.00  0.00     0.013 C 
HETATM    5  C4  UNL     1      23.551   9.324  47.972  1.00  0.00     0.028 C 
HETATM    6  C5  UNL     1      23.537  10.617  47.196  1.00  0.00     0.224 C 
HETATM    7  O1  UNL     1      22.608  11.464  47.771  1.00  0.00    -0.384 OA
HETATM    8  C6  UNL     1      21.372  10.842  47.639  1.00  0.00     0.187 C 
HETATM    9  C7  UNL     1      21.192   9.763  48.702  1.00  0.00     0.149 C 
HETATM   10  N1  UNL     1      22.393   8.968  48.758  1.00  0.00    -0.380 N 
HETATM   11  C8  UNL     1      22.533   7.783  49.572  1.00  0.00     0.125 C 
HETATM   12  C9  UNL     1      23.411   7.963  50.780  1.00  0.00     0.046 C 
HETATM   13  C10 UNL     1      23.651   6.539  51.397  1.00  0.00     0.170 C 
HETATM   14  O2  UNL     1      24.046   5.843  50.325  1.00  0.00    -0.376 OA
HETATM   15  C11 UNL     1      24.513   4.501  50.468  1.00  0.00     0.199 C 
HETATM   16  C22 UNL     1      25.788   4.671  49.710  1.00  0.00     0.037 C 
HETATM   17  C23 UNL     1      26.513   5.402  48.895  1.00  0.00     0.068 C 
HETATM   18 CL1  UNL     1      28.106   4.731  48.485  1.00  0.00    -0.082 Cl
ENDROOT
BRANCH  15  19
HETATM   19  C12 UNL     1      23.546   3.682  49.688  1.00  0.00     0.084 A 
HETATM   20  N2  UNL     1      23.281   4.167  48.449  1.00  0.00    -0.242 NA
HETATM   21  C13 UNL     1      22.377   3.608  47.609  1.00  0.00     0.234 A 
HETATM   22  N3  UNL     1      21.665   2.502  47.966  1.00  0.00    -0.241 NA
HETATM   23  C14 UNL     1      21.903   1.982  49.202  1.00  0.00     0.073 A 
HETATM   24  C15 UNL     1      21.243   0.854  49.646  1.00  0.00     0.035 A 
HETATM   25  C19 UNL     1      22.825   2.565  50.038  1.00  0.00     0.057 A 
HETATM   26  C16 UNL     1      21.525   0.335  50.915  1.00  0.00     0.042 A 
HETATM   27  C17 UNL     1      22.469   0.943  51.745  1.00  0.00     0.103 A 
HETATM   28  C18 UNL     1      23.110   2.067  51.277  1.00  0.00     0.116 A 
HETATM   29  O4  UNL     1      22.790   0.466  53.018  1.00  0.00    -0.346 OA
HETATM   30  O3  UNL     1      24.015   2.566  52.187  1.00  0.00    -0.345 OA
HETATM   31  C20 UNL     1      24.880   1.732  52.965  1.00  0.00     0.202 C 
HETATM   32  C21 UNL     1      24.189   0.457  53.366  1.00  0.00     0.202 C 
ENDBRANCH  15  19
TORSDOF 1
ENDMDL
MODEL 3
REMARK VINA RESULT:      -8.8      1.947      7.614
REMARK  1 active torsions:
REMARK  status: ('A' for Active; 'I' for Inactive)
REMARK    1  A    between atoms: C11_15  and  C12_16 
ROOT
HETATM    1  F1  UNL     1      27.114   1.780  50.877  1.00  0.00    -0.208 F 
HETATM    2  C1  UNL     1      25.868   2.232  51.118  1.00  0.00     0.124 C 
HETATM    3  C2  UNL     1      26.413   3.171  50.374  1.00  0.00     0.088 C 
HETATM    4  C3  UNL     1      26.369   4.424  49.687  1.00  0.00     0.013 C 
HETATM    5  C4  UNL     1      26.087   5.574  49.153  1.00  0.00     0.028 C 
HETATM    6  C5  UNL     1      27.253   6.137  48.381  1.00  0.00     0.224 C 
HETATM    7  O1  UNL     1      27.090   7.506  48.277  1.00  0.00    -0.384 OA
HETATM    8  C6  UNL     1      25.923   7.710  47.550  1.00  0.00     0.187 C 
HETATM    9  C7  UNL     1      24.695   7.532  48.437  1.00  0.00     0.149 C 
HETATM   10  N1  UNL     1      24.856   6.328  49.210  1.00  0.00    -0.380 N 
HETATM   11  C8  UNL     1      23.832   5.784  50.073  1.00  0.00     0.125 C 
HETATM   12  C9  UNL     1      24.110   5.952  51.542  1.00  0.00     0.046 C 
HETATM   13  C10 UNL     1      23.042   5.099  52.316  1.00  0.00     0.170 C 
HETATM   14  O2  UNL     1      23.144   3.915  51.701  1.00  0.00    -0.376 OA
HETATM   15  C11 UNL     1      22.432   2.781  52.197  1.00  0.00     0.199 C 
HETATM   16  C22 UNL     1      23.593   1.844  52.244  1.00  0.00     0.037 C 
HETATM   17  C23 UNL     1      24.831   1.582  51.893  1.00  0.00     0.068 C 
HETATM   18 CL1  UNL     1      25.478   0.036  52.479  1.00  0.00    -0.082 Cl
ENDROOT
BRANCH  15  19
HETATM   19  C12 UNL     1      21.504   2.409  51.093  1.00  0.00     0.084 A 
HETATM   20  N2  UNL     1      21.728   3.073  49.932  1.00  0.00    -0.242 NA
HETATM   21  C13 UNL     1      20.951   2.930  48.832  1.00  0.00     0.234 A 
HETATM   22  N3  UNL     1      19.876   2.092  48.826  1.00  0.00    -0.241 NA
HETATM   23  C14 UNL     1      19.618   1.405  49.972  1.00  0.00     0.073 A 
HETATM   24  C15 UNL     1      18.562   0.520  50.057  1.00  0.00     0.035 A 
HETATM   25  C19 UNL     1      20.420   1.564  51.078  1.00  0.00     0.057 A 
HETATM   26  C16 UNL     1      18.335  -0.185  51.245  1.00  0.00     0.042 A 
HETATM   27  C17 UNL     1      19.166  -0.008  52.353  1.00  0.00     0.103 A 
HETATM   28  C18 UNL     1      20.211   0.881  52.241  1.00  0.00     0.116 A 
HETATM   29  O4  UNL     1      18.988  -0.687  53.561  1.00  0.00    -0.346 OA
HETATM   30  O3  UNL     1      20.952   0.960  53.398  1.00  0.00    -0.345 OA
HETATM   31  C20 UNL     1      21.296  -0.185  54.184  1.00  0.00     0.202 C 
HETATM   32  C21 UNL     1      20.179  -1.192  54.195  1.00  0.00     0.202 C 
ENDBRANCH  15  19
TORSDOF 1
ENDMDL
MODEL 4
REMARK VINA RESULT:      -8.8      3.102      4.773
REMARK  1 active torsions:
REMARK  status: ('A' for Active; 'I' for Inactive)
REMARK    1  A    between atoms: C11_15  and  C12_16 
ROOT
HETATM    1  F1  UNL     1      20.836   2.495  47.344  1.00  0.00    -0.208 F 
HETATM    2  C1  UNL     1      21.678   3.313  48.005  1.00  0.00     0.124 C 
HETATM    3  C2  UNL     1      21.493   2.306  48.831  1.00  0.00     0.088 C 
HETATM    4  C3  UNL     1      21.724   1.627  50.068  1.00  0.00     0.013 C 
HETATM    5  C4  UNL     1      22.084   1.213  51.245  1.00  0.00     0.028 C 
HETATM    6  C5  UNL     1      21.451  -0.110  51.594  1.00  0.00     0.224 C 
HETATM    7  O1  UNL     1      21.450  -0.245  52.971  1.00  0.00    -0.384 OA
HETATM    8  C6  UNL     1      22.782  -0.261  53.366  1.00  0.00     0.187 C 
HETATM    9  C7  UNL     1      23.351   1.153  53.408  1.00  0.00     0.149 C 
HETATM   10  N1  UNL     1      22.971   1.838  52.199  1.00  0.00    -0.380 N 
HETATM   11  C8  UNL     1      23.434   3.160  51.845  1.00  0.00     0.125 C 
HETATM   12  C9  UNL     1      22.390   4.235  51.973  1.00  0.00     0.046 C 
HETATM   13  C10 UNL     1      22.981   5.536  51.321  1.00  0.00     0.170 C 
HETATM   14  O2  UNL     1      23.393   5.080  50.133  1.00  0.00    -0.376 OA
HETATM   15  C11 UNL     1      23.877   5.986  49.141  1.00  0.00     0.199 C 
HETATM   16  C22 UNL     1      23.018   5.503  48.019  1.00  0.00     0.037 C 
HETATM   17  C23 UNL     1      22.215   4.578  47.547  1.00  0.00     0.068 C 
HETATM   18 CL1  UNL     1      21.579   4.883  45.917  1.00  0.00    -0.082 Cl
ENDROOT
BRANCH  15  19
HETATM   19  C12 UNL     1      25.294   5.583  48.925  1.00  0.00     0.084 A 
HETATM   20  N2  UNL     1      25.572   4.309  49.299  1.00  0.00    -0.242 NA
HETATM   21  C13 UNL     1      26.815   3.774  49.249  1.00  0.00     0.234 A 
HETATM   22  N3  UNL     1      27.883   4.499  48.811  1.00  0.00    -0.241 NA
HETATM   23  C14 UNL     1      27.647   5.781  48.424  1.00  0.00     0.073 A 
HETATM   24  C15 UNL     1      28.662   6.588  47.950  1.00  0.00     0.035 A 
HETATM   25  C19 UNL     1      26.376   6.305  48.482  1.00  0.00     0.057 A 
HETATM   26  C16 UNL     1      28.380   7.898  47.542  1.00  0.00     0.042 A 
HETATM   27  C17 UNL     1      27.081   8.406  47.608  1.00  0.00     0.103 A 
HETATM   28  C18 UNL     1      26.089   7.580  48.086  1.00  0.00     0.116 A 
HETATM   29  O4  UNL     1      26.745   9.702  47.213  1.00  0.00    -0.346 OA
HETATM   30  O3  UNL     1      24.860   8.198  48.096  1.00  0.00    -0.345 OA
HETATM   31  C20 UNL     1      24.400   9.039  47.034  1.00  0.00     0.202 C 
HETATM   32  C21 UNL     1      25.529   9.847  46.453  1.00  0.00     0.202 C 
ENDBRANCH  15  19
TORSDOF 1
ENDMDL
MODEL 5
REMARK VINA RESULT:      -8.5      3.330      5.489
REMARK  1 active torsions:
REMARK  status: ('A' for Active; 'I' for Inactive)
REMARK    1  A    between atoms: C11_15  and  C12_16 
ROOT
HETATM    1  F1  UNL     1      21.046  -0.803  53.576  1.00  0.00    -0.208 F 
HETATM    2  C1  UNL     1      21.351   0.358  52.966  1.00  0.00     0.124 C 
HETATM    3  C2  UNL     1      22.521  -0.162  53.269  1.00  0.00     0.088 C 
HETATM    4  C3  UNL     1      23.950  -0.135  53.286  1.00  0.00     0.013 C 
HETATM    5  C4  UNL     1      25.219   0.116  53.182  1.00  0.00     0.028 C 
HETATM    6  C5  UNL     1      26.061  -0.977  53.789  1.00  0.00     0.224 C 
HETATM    7  O1  UNL     1      27.303  -0.453  54.100  1.00  0.00    -0.384 OA
HETATM    8  C6  UNL     1      27.875  -0.055  52.897  1.00  0.00     0.187 C 
HETATM    9  C7  UNL     1      27.311   1.289  52.448  1.00  0.00     0.149 C 
HETATM   10  N1  UNL     1      25.877   1.255  52.584  1.00  0.00    -0.380 N 
HETATM   11  C8  UNL     1      25.003   2.316  52.140  1.00  0.00     0.125 C 
HETATM   12  C9  UNL     1      24.406   3.131  53.255  1.00  0.00     0.046 C 
HETATM   13  C10 UNL     1      23.309   4.057  52.617  1.00  0.00     0.170 C 
HETATM   14  O2  UNL     1      22.590   3.178  51.912  1.00  0.00    -0.376 OA
HETATM   15  C11 UNL     1      21.380   3.584  51.272  1.00  0.00     0.199 C 
HETATM   16  C22 UNL     1      20.513   2.495  51.814  1.00  0.00     0.037 C 
HETATM   17  C23 UNL     1      20.429   1.335  52.423  1.00  0.00     0.068 C 
HETATM   18 CL1  UNL     1      18.779   0.731  52.683  1.00  0.00    -0.082 Cl
ENDROOT
BRANCH  15  19
HETATM   19  C12 UNL     1      21.634   3.376  49.820  1.00  0.00     0.084 A 
HETATM   20  N2  UNL     1      21.625   2.074  49.437  1.00  0.00    -0.242 NA
HETATM   21  C13 UNL     1      21.904   1.670  48.175  1.00  0.00     0.234 A 
HETATM   22  N3  UNL     1      22.217   2.564  47.195  1.00  0.00    -0.241 NA
HETATM   23  C14 UNL     1      22.234   3.881  47.538  1.00  0.00     0.073 A 
HETATM   24  C15 UNL     1      22.522   4.861  46.610  1.00  0.00     0.035 A 
HETATM   25  C19 UNL     1      21.947   4.271  48.825  1.00  0.00     0.057 A 
HETATM   26  C16 UNL     1      22.513   6.209  46.993  1.00  0.00     0.042 A 
HETATM   27  C17 UNL     1      22.215   6.579  48.306  1.00  0.00     0.103 A 
HETATM   28  C18 UNL     1      21.933   5.581  49.210  1.00  0.00     0.116 A 
HETATM   29  O4  UNL     1      22.189   7.907  48.740  1.00  0.00    -0.346 OA
HETATM   30  O3  UNL     1      21.654   6.078  50.462  1.00  0.00    -0.345 OA
HETATM   31  C20 UNL     1      20.857   7.247  50.679  1.00  0.00     0.202 C 
HETATM   32  C21 UNL     1      21.102   8.276  49.610  1.00  0.00     0.202 C 
ENDBRANCH  15  19
TORSDOF 1
ENDMDL
MODEL 6
REMARK VINA RESULT:      -8.4      4.403      7.321
REMARK  1 active torsions:
REMARK  status: ('A' for Active; 'I' for Inactive)
REMARK    1  A    between atoms: C11_15  and  C12_16 
ROOT
HETATM    1  F1  UNL     1      22.868   7.003  45.729  1.00  0.00    -0.208 F 
HETATM    2  C1  UNL     1      23.878   7.334  46.557  1.00  0.00     0.124 C 
HETATM    3  C2  UNL     1      23.060   6.632  47.311  1.00  0.00     0.088 C 
HETATM    4  C3  UNL     1      22.685   6.036  48.556  1.00  0.00     0.013 C 
HETATM    5  C4  UNL     1      22.567   5.598  49.772  1.00  0.00     0.028 C 
HETATM    6  C5  UNL     1      21.294   4.812  49.965  1.00  0.00     0.224 C 
HETATM    7  O1  UNL     1      20.979   4.812  51.312  1.00  0.00    -0.384 OA
HETATM    8  C6  UNL     1      22.020   4.157  51.960  1.00  0.00     0.187 C 
HETATM    9  C7  UNL     1      23.216   5.086  52.140  1.00  0.00     0.149 C 
HETATM   10  N1  UNL     1      23.462   5.765  50.893  1.00  0.00    -0.380 N 
HETATM   11  C8  UNL     1      24.592   6.636  50.662  1.00  0.00     0.125 C 
HETATM   12  C9  UNL     1      24.243   8.098  50.605  1.00  0.00     0.046 C 
HETATM   13  C10 UNL     1      25.523   8.861  50.107  1.00  0.00     0.170 C 
HETATM   14  O2  UNL     1      25.846   8.161  49.014  1.00  0.00    -0.376 OA
HETATM   15  C11 UNL     1      26.894   8.610  48.154  1.00  0.00     0.199 C 
HETATM   16  C22 UNL     1      26.124   8.537  46.876  1.00  0.00     0.037 C 
HETATM   17  C23 UNL     1      25.059   8.110  46.238  1.00  0.00     0.068 C 
HETATM   18 CL1  UNL     1      24.971   8.556  44.521  1.00  0.00    -0.082 Cl
ENDROOT
BRANCH  15  19
HETATM   19  C12 UNL     1      27.916   7.529  48.211  1.00  0.00     0.084 A 
HETATM   20  N2  UNL     1      27.396   6.279  48.299  1.00  0.00    -0.242 NA
HETATM   21  C13 UNL     1      28.156   5.166  48.432  1.00  0.00     0.234 A 
HETATM   22  N3  UNL     1      29.517   5.237  48.486  1.00  0.00    -0.241 NA
HETATM   23  C14 UNL     1      30.078   6.473  48.399  1.00  0.00     0.073 A 
HETATM   24  C15 UNL     1      31.447   6.645  48.427  1.00  0.00     0.035 A 
HETATM   25  C19 UNL     1      29.288   7.591  48.264  1.00  0.00     0.057 A 
HETATM   26  C16 UNL     1      31.993   7.930  48.317  1.00  0.00     0.042 A 
HETATM   27  C17 UNL     1      31.169   9.049  48.176  1.00  0.00     0.103 A 
HETATM   28  C18 UNL     1      29.808   8.848  48.153  1.00  0.00     0.116 A 
HETATM   29  O4  UNL     1      31.660  10.351  48.060  1.00  0.00    -0.346 OA
HETATM   30  O3  UNL     1      29.112  10.027  48.008  1.00  0.00    -0.345 OA
HETATM   31  C20 UNL     1      29.523  11.072  47.120  1.00  0.00     0.202 C 
HETATM   32  C21 UNL     1      31.021  11.192  47.078  1.00  0.00     0.202 C 
ENDBRANCH  15  19
TORSDOF 1
ENDMDL
MODEL 7
REMARK VINA RESULT:      -8.3      4.054      6.484
REMARK  1 active torsions:
REMARK  status: ('A' for Active; 'I' for Inactive)
REMARK    1  A    between atoms: C11_15  and  C12_16 
ROOT
HETATM    1  F1  UNL     1      22.142   5.400  46.148  1.00  0.00    -0.208 F 
HETATM    2  C1  UNL     1      22.929   6.061  47.019  1.00  0.00     0.124 C 
HETATM    3  C2  UNL     1      22.676   4.918  47.619  1.00  0.00     0.088 C 
HETATM    4  C3  UNL     1      22.803   4.011  48.717  1.00  0.00     0.013 C 
HETATM    5  C4  UNL     1      23.065   3.373  49.817  1.00  0.00     0.028 C 
HETATM    6  C5  UNL     1      22.404   2.019  49.853  1.00  0.00     0.224 C 
HETATM    7  O1  UNL     1      22.290   1.622  51.173  1.00  0.00    -0.384 OA
HETATM    8  C6  UNL     1      23.585   1.508  51.664  1.00  0.00     0.187 C 
HETATM    9  C7  UNL     1      24.151   2.879  52.022  1.00  0.00     0.149 C 
HETATM   10  N1  UNL     1      23.871   3.789  50.941  1.00  0.00    -0.380 N 
HETATM   11  C8  UNL     1      24.364   5.146  50.886  1.00  0.00     0.125 C 
HETATM   12  C9  UNL     1      23.314   6.194  51.135  1.00  0.00     0.046 C 
HETATM   13  C10 UNL     1      23.958   7.586  50.795  1.00  0.00     0.170 C 
HETATM   14  O2  UNL     1      24.466   7.359  49.578  1.00  0.00    -0.376 OA
HETATM   15  C11 UNL     1      25.031   8.429  48.821  1.00  0.00     0.199 C 
HETATM   16  C22 UNL     1      24.266   8.185  47.562  1.00  0.00     0.037 C 
HETATM   17  C23 UNL     1      23.503   7.381  46.858  1.00  0.00     0.068 C 
HETATM   18 CL1  UNL     1      23.003   8.003  45.271  1.00  0.00    -0.082 Cl
ENDROOT
BRANCH  15  19
HETATM   19  C12 UNL     1      26.460   8.051  48.646  1.00  0.00     0.084 A 
HETATM   20  N2  UNL     1      26.666   6.720  48.486  1.00  0.00    -0.242 NA
HETATM   21  C13 UNL     1      27.898   6.166  48.382  1.00  0.00     0.234 A 
HETATM   22  N3  UNL     1      29.027   6.928  48.432  1.00  0.00    -0.241 NA
HETATM   23  C14 UNL     1      28.863   8.270  48.589  1.00  0.00     0.073 A 
HETATM   24  C15 UNL     1      29.945   9.126  48.633  1.00  0.00     0.035 A 
HETATM   25  C19 UNL     1      27.603   8.813  48.692  1.00  0.00     0.057 A 
HETATM   26  C16 UNL     1      29.741  10.504  48.777  1.00  0.00     0.042 A 
HETATM   27  C17 UNL     1      28.452  11.031  48.876  1.00  0.00     0.103 A 
HETATM   28  C18 UNL     1      27.391  10.154  48.830  1.00  0.00     0.116 A 
HETATM   29  O4  UNL     1      28.191  12.395  49.018  1.00  0.00    -0.346 OA
HETATM   30  O3  UNL     1      26.180  10.799  48.935  1.00  0.00    -0.345 OA
HETATM   31  C20 UNL     1      25.893  12.034  48.271  1.00  0.00     0.202 C 
HETATM   32  C21 UNL     1      27.104  12.926  48.235  1.00  0.00     0.202 C 
ENDBRANCH  15  19
TORSDOF 1
ENDMDL
MODEL 8
REMARK VINA RESULT:      -8.2      3.699      6.511
REMARK  1 active torsions:
REMARK  status: ('A' for Active; 'I' for Inactive)
REMARK    1  A    between atoms: C11_15  and  C12_16 
ROOT
HETATM    1  F1  UNL     1      21.449  -1.254  53.418  1.00  0.00    -0.208 F 
HETATM    2  C1  UNL     1      21.488  -0.055  52.805  1.00  0.00     0.124 C 
HETATM    3  C2  UNL     1      22.742  -0.293  53.125  1.00  0.00     0.088 C 
HETATM    4  C3  UNL     1      24.127   0.060  53.159  1.00  0.00     0.013 C 
HETATM    5  C4  UNL     1      25.306   0.595  53.067  1.00  0.00     0.028 C 
HETATM    6  C5  UNL     1      26.368  -0.274  53.691  1.00  0.00     0.224 C 
HETATM    7  O1  UNL     1      27.453   0.521  54.012  1.00  0.00    -0.384 OA
HETATM    8  C6  UNL     1      27.933   1.036  52.814  1.00  0.00     0.187 C 
HETATM    9  C7  UNL     1      27.082   2.214  52.350  1.00  0.00     0.149 C 
HETATM   10  N1  UNL     1      25.693   1.852  52.469  1.00  0.00    -0.380 N 
HETATM   11  C8  UNL     1      24.605   2.684  52.009  1.00  0.00     0.125 C 
HETATM   12  C9  UNL     1      23.823   3.344  53.112  1.00  0.00     0.046 C 
HETATM   13  C10 UNL     1      22.552   3.992  52.456  1.00  0.00     0.170 C 
HETATM   14  O2  UNL     1      22.062   2.969  51.747  1.00  0.00    -0.376 OA
HETATM   15  C11 UNL     1      20.799   3.085  51.092  1.00  0.00     0.199 C 
HETATM   16  C22 UNL     1      20.198   1.829  51.630  1.00  0.00     0.037 C 
HETATM   17  C23 UNL     1      20.373   0.682  52.245  1.00  0.00     0.068 C 
HETATM   18 CL1  UNL     1      18.903  -0.283  52.490  1.00  0.00    -0.082 Cl
ENDROOT
BRANCH  15  19
HETATM   19  C12 UNL     1      21.112   2.936  49.644  1.00  0.00     0.084 A 
HETATM   20  N2  UNL     1      22.274   2.281  49.393  1.00  0.00    -0.242 NA
HETATM   21  C13 UNL     1      22.772   2.103  48.146  1.00  0.00     0.234 A 
HETATM   22  N3  UNL     1      22.123   2.581  47.047  1.00  0.00    -0.241 NA
HETATM   23  C14 UNL     1      20.952   3.243  47.255  1.00  0.00     0.073 A 
HETATM   24  C15 UNL     1      20.215   3.748  46.204  1.00  0.00     0.035 A 
HETATM   25  C19 UNL     1      20.463   3.412  48.530  1.00  0.00     0.057 A 
HETATM   26  C16 UNL     1      19.005   4.408  46.452  1.00  0.00     0.042 A 
HETATM   27  C17 UNL     1      18.528   4.564  47.756  1.00  0.00     0.103 A 
HETATM   28  C18 UNL     1      19.284   4.052  48.785  1.00  0.00     0.116 A 
HETATM   29  O4  UNL     1      17.328   5.211  48.060  1.00  0.00    -0.346 OA
HETATM   30  O3  UNL     1      18.704   4.269  50.014  1.00  0.00    -0.345 OA
HETATM   31  C20 UNL     1      17.299   4.127  50.249  1.00  0.00     0.202 C 
HETATM   32  C21 UNL     1      16.500   4.588  49.062  1.00  0.00     0.202 C 
ENDBRANCH  15  19
TORSDOF 1
ENDMDL
MODEL 9
REMARK VINA RESULT:      -8.2      3.411      8.489
REMARK  1 active torsions:
REMARK  status: ('A' for Active; 'I' for Inactive)
REMARK    1  A    between atoms: C11_15  and  C12_16 
ROOT
HETATM    1  F1  UNL     1      28.266   4.722  48.357  1.00  0.00    -0.208 F 
HETATM    2  C1  UNL     1      27.068   5.193  48.753  1.00  0.00     0.124 C 
HETATM    3  C2  UNL     1      27.626   6.212  48.137  1.00  0.00     0.088 C 
HETATM    4  C3  UNL     1      27.622   7.563  47.667  1.00  0.00     0.013 C 
HETATM    5  C4  UNL     1      27.382   8.798  47.348  1.00  0.00     0.028 C 
HETATM    6  C5  UNL     1      28.535   9.419  46.600  1.00  0.00     0.224 C 
HETATM    7  O1  UNL     1      28.453  10.793  46.732  1.00  0.00    -0.384 OA
HETATM    8  C6  UNL     1      27.261  11.177  46.129  1.00  0.00     0.187 C 
HETATM    9  C7  UNL     1      26.078  10.920  47.056  1.00  0.00     0.149 C 
HETATM   10  N1  UNL     1      26.207   9.596  47.610  1.00  0.00    -0.380 N 
HETATM   11  C8  UNL     1      25.203   8.972  48.440  1.00  0.00     0.125 C 
HETATM   12  C9  UNL     1      25.576   8.877  49.895  1.00  0.00     0.046 C 
HETATM   13  C10 UNL     1      24.503   7.965  50.590  1.00  0.00     0.170 C 
HETATM   14  O2  UNL     1      24.494   6.897  49.786  1.00  0.00    -0.376 OA
HETATM   15  C11 UNL     1      23.742   5.735  50.137  1.00  0.00     0.199 C 
HETATM   16  C22 UNL     1      24.842   4.743  49.953  1.00  0.00     0.037 C 
HETATM   17  C23 UNL     1      26.038   4.479  49.480  1.00  0.00     0.068 C 
HETATM   18 CL1  UNL     1      26.619   2.824  49.762  1.00  0.00    -0.082 Cl
ENDROOT
BRANCH  15  19
HETATM   19  C12 UNL     1      22.729   5.601  49.054  1.00  0.00     0.084 A 
HETATM   20  N2  UNL     1      23.160   6.021  47.838  1.00  0.00    -0.242 NA
HETATM   21  C13 UNL     1      22.370   6.047  46.739  1.00  0.00     0.234 A 
HETATM   22  N3  UNL     1      21.068   5.646  46.789  1.00  0.00    -0.241 NA
HETATM   23  C14 UNL     1      20.597   5.215  47.991  1.00  0.00     0.073 A 
HETATM   24  C15 UNL     1      19.298   4.772  48.138  1.00  0.00     0.035 A 
HETATM   25  C19 UNL     1      21.417   5.195  49.096  1.00  0.00     0.057 A 
HETATM   26  C16 UNL     1      18.851   4.318  49.385  1.00  0.00     0.042 A 
HETATM   27  C17 UNL     1      19.704   4.305  50.491  1.00  0.00     0.103 A 
HETATM   28  C18 UNL     1      20.994   4.753  50.316  1.00  0.00     0.116 A 
HETATM   29  O4  UNL     1      19.312   3.861  51.755  1.00  0.00    -0.346 OA
HETATM   30  O3  UNL     1      21.729   4.686  51.478  1.00  0.00    -0.345 OA
HETATM   31  C20 UNL     1      21.656   3.580  52.384  1.00  0.00     0.202 C 
HETATM   32  C21 UNL     1      20.256   3.037  52.468  1.00  0.00     0.202 C 
ENDBRANCH  15  19
TORSDOF 1
ENDMDL
