MODEL 1
REMARK VINA RESULT:      -7.3      0.000      0.000
REMARK  8 active torsions:
REMARK  status: ('A' for Active; 'I' for Inactive)
REMARK    1  A    between atoms: O1_2  and  C2_3 
REMARK    2  A    between atoms: C2_3  and  C3_4 
REMARK    3  A    between atoms: C3_4  and  C4_5 
REMARK    4  A    between atoms: C4_5  and  C5_6 
REMARK    5  A    between atoms: C5_6  and  C6_7 
REMARK    6  A    between atoms: C7_8  and  N1_9 
REMARK    7  A    between atoms: C8_10  and  C9_11 
REMARK    8  A    between atoms: C9_11  and  C10_12 
ROOT
HETATM    1  C10 UNL     1      26.700   2.339  51.414  1.00  0.00    -0.025 C 
HETATM    2  C11 UNL     1      27.303   2.343  52.622  1.00  0.00     0.124 C 
HETATM    3  N2  UNL     1      27.326   1.973  53.973  1.00  0.00    -0.275 NA
HETATM    4  C12 UNL     1      26.803   0.935  54.552  1.00  0.00     0.108 C 
HETATM    5  C13 UNL     1      26.157  -0.297  55.109  1.00  0.00     0.166 C 
HETATM    6  N3  UNL     1      25.676  -1.216  54.047  1.00  0.00    -0.385 N 
HETATM    7  C14 UNL     1      24.980  -0.217  53.269  1.00  0.00     0.030 A 
HETATM    8  C15 UNL     1      23.668   0.169  53.276  1.00  0.00     0.053 A 
HETATM    9  C16 UNL     1      23.337   1.304  52.567  1.00  0.00     0.037 A 
HETATM   10 CL1  UNL     1      21.644   1.701  52.639  1.00  0.00    -0.084 Cl
HETATM   11  C17 UNL     1      24.301   2.005  51.892  1.00  0.00     0.036 A 
HETATM   12  C18 UNL     1      25.576   1.544  51.943  1.00  0.00    -0.024 A 
HETATM   13  C19 UNL     1      26.002   0.422  52.610  1.00  0.00     0.041 A 
HETATM   14  H21 UNL     1      25.385  -1.933  53.353  1.00  0.00     0.160 HD
ENDROOT
BRANCH   1  15
HETATM   15  C9  UNL     1      26.387   2.558  50.005  1.00  0.00     0.087 C 
BRANCH  15  16
HETATM   16  C8  UNL     1      26.531   4.003  49.613  1.00  0.00     0.093 C 
HETATM   17  N1  UNL     1      27.459   4.420  48.821  1.00  0.00    -0.277 NA
BRANCH  17  18
HETATM   18  C7  UNL     1      27.629   5.764  48.428  1.00  0.00     0.112 C 
HETATM   19  C6  UNL     1      28.729   6.395  48.057  1.00  0.00    -0.007 C 
BRANCH  19  20
HETATM   20  C5  UNL     1      29.996   5.661  48.022  1.00  0.00     0.028 C 
BRANCH  20  21
HETATM   21  C4  UNL     1      31.038   6.411  48.809  1.00  0.00     0.006 C 
BRANCH  21  22
HETATM   22  C3  UNL     1      32.321   5.606  48.784  1.00  0.00     0.027 C 
BRANCH  22  23
HETATM   23  C2  UNL     1      32.186   4.613  47.659  1.00  0.00     0.167 C 
BRANCH  23  24
HETATM   24  O1  UNL     1      32.496   3.342  48.047  1.00  0.00    -0.396 OA
HETATM   25  C1  UNL     1      33.394   2.674  47.233  1.00  0.00     0.201 C 
ENDBRANCH  23  24
ENDBRANCH  22  23
ENDBRANCH  21  22
ENDBRANCH  20  21
ENDBRANCH  19  20
ENDBRANCH  17  18
ENDBRANCH  15  16
ENDBRANCH   1  15
TORSDOF 8
ENDMDL
MODEL 2
REMARK VINA RESULT:      -7.2      1.578      2.167
REMARK  8 active torsions:
REMARK  status: ('A' for Active; 'I' for Inactive)
REMARK    1  A    between atoms: O1_2  and  C2_3 
REMARK    2  A    between atoms: C2_3  and  C3_4 
REMARK    3  A    between atoms: C3_4  and  C4_5 
REMARK    4  A    between atoms: C4_5  and  C5_6 
REMARK    5  A    between atoms: C5_6  and  C6_7 
REMARK    6  A    between atoms: C7_8  and  N1_9 
REMARK    7  A    between atoms: C8_10  and  C9_11 
REMARK    8  A    between atoms: C9_11  and  C10_12 
ROOT
HETATM    1  C10 UNL     1      26.697   2.438  51.326  1.00  0.00    -0.025 C 
HETATM    2  C11 UNL     1      27.318   2.443  52.524  1.00  0.00     0.124 C 
HETATM    3  N2  UNL     1      27.374   2.051  53.868  1.00  0.00    -0.275 NA
HETATM    4  C12 UNL     1      26.897   0.986  54.437  1.00  0.00     0.108 C 
HETATM    5  C13 UNL     1      26.303  -0.278  54.982  1.00  0.00     0.166 C 
HETATM    6  N3  UNL     1      25.839  -1.195  53.911  1.00  0.00    -0.385 N 
HETATM    7  C14 UNL     1      25.096  -0.208  53.161  1.00  0.00     0.030 A 
HETATM    8  C15 UNL     1      23.772   0.130  53.193  1.00  0.00     0.053 A 
HETATM    9  C16 UNL     1      23.390   1.264  52.509  1.00  0.00     0.037 A 
HETATM   10 CL1  UNL     1      21.686   1.600  52.612  1.00  0.00    -0.084 Cl
HETATM   11  C17 UNL     1      24.319   2.010  51.832  1.00  0.00     0.036 A 
HETATM   12  C18 UNL     1      25.610   1.595  51.857  1.00  0.00    -0.024 A 
HETATM   13  C19 UNL     1      26.085   0.478  52.498  1.00  0.00     0.041 A 
HETATM   14  H21 UNL     1      25.563  -1.910  53.209  1.00  0.00     0.160 HD
ENDROOT
BRANCH   1  15
HETATM   15  C9  UNL     1      26.355   2.670  49.925  1.00  0.00     0.087 C 
BRANCH  15  16
HETATM   16  C8  UNL     1      26.597   4.096  49.513  1.00  0.00     0.093 C 
HETATM   17  N1  UNL     1      27.599   4.449  48.783  1.00  0.00    -0.277 NA
BRANCH  17  18
HETATM   18  C7  UNL     1      27.863   5.772  48.375  1.00  0.00     0.112 C 
HETATM   19  C6  UNL     1      29.001   6.318  47.984  1.00  0.00    -0.007 C 
BRANCH  19  20
HETATM   20  C5  UNL     1      30.210   5.493  47.942  1.00  0.00     0.028 C 
BRANCH  20  21
HETATM   21  C4  UNL     1      31.165   5.938  49.018  1.00  0.00     0.006 C 
BRANCH  21  22
HETATM   22  C3  UNL     1      32.210   6.833  48.382  1.00  0.00     0.027 C 
BRANCH  22  23
HETATM   23  C2  UNL     1      32.176   8.138  49.134  1.00  0.00     0.167 C 
BRANCH  23  24
HETATM   24  O1  UNL     1      31.345   9.052  48.553  1.00  0.00    -0.396 OA
HETATM   25  C1  UNL     1      30.363   9.571  49.377  1.00  0.00     0.201 C 
ENDBRANCH  23  24
ENDBRANCH  22  23
ENDBRANCH  21  22
ENDBRANCH  20  21
ENDBRANCH  19  20
ENDBRANCH  17  18
ENDBRANCH  15  16
ENDBRANCH   1  15
TORSDOF 8
ENDMDL
MODEL 3
REMARK VINA RESULT:      -7.2      1.927      2.677
REMARK  8 active torsions:
REMARK  status: ('A' for Active; 'I' for Inactive)
REMARK    1  A    between atoms: O1_2  and  C2_3 
REMARK    2  A    between atoms: C2_3  and  C3_4 
REMARK    3  A    between atoms: C3_4  and  C4_5 
REMARK    4  A    between atoms: C4_5  and  C5_6 
REMARK    5  A    between atoms: C5_6  and  C6_7 
REMARK    6  A    between atoms: C7_8  and  N1_9 
REMARK    7  A    between atoms: C8_10  and  C9_11 
REMARK    8  A    between atoms: C9_11  and  C10_12 
ROOT
HETATM    1  C10 UNL     1      24.244   2.307  51.583  1.00  0.00    -0.025 C 
HETATM    2  C11 UNL     1      25.219   2.678  52.441  1.00  0.00     0.124 C 
HETATM    3  N2  UNL     1      25.955   2.466  53.613  1.00  0.00    -0.275 NA
HETATM    4  C12 UNL     1      26.237   1.352  54.219  1.00  0.00     0.108 C 
HETATM    5  C13 UNL     1      26.497   0.008  54.829  1.00  0.00     0.166 C 
HETATM    6  N3  UNL     1      26.086  -1.108  53.942  1.00  0.00    -0.385 N 
HETATM    7  C14 UNL     1      24.769  -0.598  53.636  1.00  0.00     0.030 A 
HETATM    8  C15 UNL     1      23.556  -0.852  54.213  1.00  0.00     0.053 A 
HETATM    9  C16 UNL     1      22.497  -0.051  53.842  1.00  0.00     0.037 A 
HETATM   10 CL1  UNL     1      21.002  -0.461  54.631  1.00  0.00    -0.084 Cl
HETATM   11  C17 UNL     1      22.678   0.957  52.932  1.00  0.00     0.036 A 
HETATM   12  C18 UNL     1      23.919   1.132  52.413  1.00  0.00    -0.024 A 
HETATM   13  C19 UNL     1      25.030   0.382  52.710  1.00  0.00     0.041 A 
HETATM   14  H21 UNL     1      25.888  -1.931  53.338  1.00  0.00     0.160 HD
ENDROOT
BRANCH   1  15
HETATM   15  C9  UNL     1      23.319   2.249  50.454  1.00  0.00     0.087 C 
BRANCH  15  16
HETATM   16  C8  UNL     1      23.545   3.375  49.482  1.00  0.00     0.093 C 
HETATM   17  N1  UNL     1      23.843   4.571  49.859  1.00  0.00    -0.277 NA
BRANCH  17  18
HETATM   18  C7  UNL     1      24.063   5.653  48.982  1.00  0.00     0.112 C 
HETATM   19  C6  UNL     1      25.202   6.173  48.562  1.00  0.00    -0.007 C 
BRANCH  19  20
HETATM   20  C5  UNL     1      26.465   5.596  49.030  1.00  0.00     0.028 C 
BRANCH  20  21
HETATM   21  C4  UNL     1      27.614   6.223  48.285  1.00  0.00     0.006 C 
BRANCH  21  22
HETATM   22  C3  UNL     1      28.752   5.223  48.243  1.00  0.00     0.027 C 
BRANCH  22  23
HETATM   23  C2  UNL     1      30.028   6.018  48.341  1.00  0.00     0.167 C 
BRANCH  23  24
HETATM   24  O1  UNL     1      30.881   5.520  49.282  1.00  0.00    -0.396 OA
HETATM   25  C1  UNL     1      32.017   6.275  49.516  1.00  0.00     0.201 C 
ENDBRANCH  23  24
ENDBRANCH  22  23
ENDBRANCH  21  22
ENDBRANCH  20  21
ENDBRANCH  19  20
ENDBRANCH  17  18
ENDBRANCH  15  16
ENDBRANCH   1  15
TORSDOF 8
ENDMDL
MODEL 4
REMARK VINA RESULT:      -7.1      3.456      7.414
REMARK  8 active torsions:
REMARK  status: ('A' for Active; 'I' for Inactive)
REMARK    1  A    between atoms: O1_2  and  C2_3 
REMARK    2  A    between atoms: C2_3  and  C3_4 
REMARK    3  A    between atoms: C3_4  and  C4_5 
REMARK    4  A    between atoms: C4_5  and  C5_6 
REMARK    5  A    between atoms: C5_6  and  C6_7 
REMARK    6  A    between atoms: C7_8  and  N1_9 
REMARK    7  A    between atoms: C8_10  and  C9_11 
REMARK    8  A    between atoms: C9_11  and  C10_12 
ROOT
HETATM    1  C10 UNL     1      24.973   3.524  50.288  1.00  0.00    -0.025 C 
HETATM    2  C11 UNL     1      26.204   3.328  49.771  1.00  0.00     0.124 C 
HETATM    3  N2  UNL     1      27.272   3.757  48.973  1.00  0.00    -0.275 NA
HETATM    4  C12 UNL     1      27.653   4.965  48.684  1.00  0.00     0.108 C 
HETATM    5  C13 UNL     1      27.996   6.401  48.421  1.00  0.00     0.166 C 
HETATM    6  N3  UNL     1      27.225   7.336  49.278  1.00  0.00    -0.385 N 
HETATM    7  C14 UNL     1      25.926   6.754  49.027  1.00  0.00     0.030 A 
HETATM    8  C15 UNL     1      24.960   7.081  48.116  1.00  0.00     0.053 A 
HETATM    9  C16 UNL     1      23.905   6.206  47.969  1.00  0.00     0.037 A 
HETATM   10 CL1  UNL     1      22.734   6.719  46.789  1.00  0.00    -0.084 Cl
HETATM   11  C17 UNL     1      23.848   5.058  48.714  1.00  0.00     0.036 A 
HETATM   12  C18 UNL     1      24.854   4.820  49.594  1.00  0.00    -0.024 A 
HETATM   13  C19 UNL     1      25.937   5.632  49.820  1.00  0.00     0.041 A 
HETATM   14  H21 UNL     1      26.772   8.035  49.899  1.00  0.00     0.160 HD
ENDROOT
BRANCH   1  15
HETATM   15  C9  UNL     1      23.722   3.364  51.024  1.00  0.00     0.087 C 
BRANCH  15  16
HETATM   16  C8  UNL     1      23.484   1.936  51.431  1.00  0.00     0.093 C 
HETATM   17  N1  UNL     1      23.144   1.601  52.628  1.00  0.00    -0.277 NA
BRANCH  17  18
HETATM   18  C7  UNL     1      22.912   0.276  53.050  1.00  0.00     0.112 C 
HETATM   19  C6  UNL     1      23.740  -0.578  53.626  1.00  0.00    -0.007 C 
BRANCH  19  20
HETATM   20  C5  UNL     1      25.118  -0.161  53.899  1.00  0.00     0.028 C 
BRANCH  20  21
HETATM   21  C4  UNL     1      26.008  -0.579  52.759  1.00  0.00     0.006 C 
BRANCH  21  22
HETATM   22  C3  UNL     1      27.178   0.382  52.694  1.00  0.00     0.027 C 
BRANCH  22  23
HETATM   23  C2  UNL     1      27.907   0.263  54.008  1.00  0.00     0.167 C 
BRANCH  23  24
HETATM   24  O1  UNL     1      28.558  -0.929  54.135  1.00  0.00    -0.396 OA
HETATM   25  C1  UNL     1      29.867  -0.942  53.689  1.00  0.00     0.201 C 
ENDBRANCH  23  24
ENDBRANCH  22  23
ENDBRANCH  21  22
ENDBRANCH  20  21
ENDBRANCH  19  20
ENDBRANCH  17  18
ENDBRANCH  15  16
ENDBRANCH   1  15
TORSDOF 8
ENDMDL
MODEL 5
REMARK VINA RESULT:      -6.9      4.583      8.563
REMARK  8 active torsions:
REMARK  status: ('A' for Active; 'I' for Inactive)
REMARK    1  A    between atoms: O1_2  and  C2_3 
REMARK    2  A    between atoms: C2_3  and  C3_4 
REMARK    3  A    between atoms: C3_4  and  C4_5 
REMARK    4  A    between atoms: C4_5  and  C5_6 
REMARK    5  A    between atoms: C5_6  and  C6_7 
REMARK    6  A    between atoms: C7_8  and  N1_9 
REMARK    7  A    between atoms: C8_10  and  C9_11 
REMARK    8  A    between atoms: C9_11  and  C10_12 
ROOT
HETATM    1  C10 UNL     1      24.887   2.266  52.662  1.00  0.00    -0.025 C 
HETATM    2  C11 UNL     1      24.172   3.295  53.163  1.00  0.00     0.124 C 
HETATM    3  N2  UNL     1      23.550   4.539  52.999  1.00  0.00    -0.275 NA
HETATM    4  C12 UNL     1      23.032   5.068  51.932  1.00  0.00     0.108 C 
HETATM    5  C13 UNL     1      22.467   5.574  50.638  1.00  0.00     0.166 C 
HETATM    6  N3  UNL     1      22.429   4.527  49.587  1.00  0.00    -0.385 N 
HETATM    7  C14 UNL     1      23.791   4.076  49.755  1.00  0.00     0.030 A 
HETATM    8  C15 UNL     1      24.939   4.432  49.102  1.00  0.00     0.053 A 
HETATM    9  C16 UNL     1      26.133   3.985  49.628  1.00  0.00     0.037 A 
HETATM   10 CL1  UNL     1      27.527   4.490  48.719  1.00  0.00    -0.084 Cl
HETATM   11  C17 UNL     1      26.145   3.217  50.763  1.00  0.00     0.036 A 
HETATM   12  C18 UNL     1      24.955   2.915  51.340  1.00  0.00    -0.024 A 
HETATM   13  C19 UNL     1      23.718   3.302  50.888  1.00  0.00     0.041 A 
HETATM   14  H21 UNL     1      22.308   3.821  48.834  1.00  0.00     0.160 HD
ENDROOT
BRANCH   1  15
HETATM   15  C9  UNL     1      25.615   1.008  52.512  1.00  0.00     0.087 C 
BRANCH  15  16
HETATM   16  C8  UNL     1      24.878  -0.148  53.130  1.00  0.00     0.093 C 
HETATM   17  N1  UNL     1      23.724  -0.019  53.689  1.00  0.00    -0.277 NA
BRANCH  17  18
HETATM   18  C7  UNL     1      23.000  -1.075  54.279  1.00  0.00     0.112 C 
HETATM   19  C6  UNL     1      21.728  -1.124  54.633  1.00  0.00    -0.007 C 
BRANCH  19  20
HETATM   20  C5  UNL     1      20.881   0.051  54.414  1.00  0.00     0.028 C 
BRANCH  20  21
HETATM   21  C4  UNL     1      19.907  -0.228  53.300  1.00  0.00     0.006 C 
BRANCH  21  22
HETATM   22  C3  UNL     1      20.479   0.339  52.017  1.00  0.00     0.027 C 
BRANCH  22  23
HETATM   23  C2  UNL     1      20.606   1.826  52.221  1.00  0.00     0.167 C 
BRANCH  23  24
HETATM   24  O1  UNL     1      20.371   2.531  51.076  1.00  0.00    -0.396 OA
HETATM   25  C1  UNL     1      20.107   1.769  49.952  1.00  0.00     0.201 C 
ENDBRANCH  23  24
ENDBRANCH  22  23
ENDBRANCH  21  22
ENDBRANCH  20  21
ENDBRANCH  19  20
ENDBRANCH  17  18
ENDBRANCH  15  16
ENDBRANCH   1  15
TORSDOF 8
ENDMDL
MODEL 6
REMARK VINA RESULT:      -6.8      4.623      6.807
REMARK  8 active torsions:
REMARK  status: ('A' for Active; 'I' for Inactive)
REMARK    1  A    between atoms: O1_2  and  C2_3 
REMARK    2  A    between atoms: C2_3  and  C3_4 
REMARK    3  A    between atoms: C3_4  and  C4_5 
REMARK    4  A    between atoms: C4_5  and  C5_6 
REMARK    5  A    between atoms: C5_6  and  C6_7 
REMARK    6  A    between atoms: C7_8  and  N1_9 
REMARK    7  A    between atoms: C8_10  and  C9_11 
REMARK    8  A    between atoms: C9_11  and  C10_12 
ROOT
HETATM    1  C10 UNL     1      26.708   2.456  51.618  1.00  0.00    -0.025 C 
HETATM    2  C11 UNL     1      27.608   2.662  52.603  1.00  0.00     0.124 C 
HETATM    3  N2  UNL     1      28.252   2.239  53.773  1.00  0.00    -0.275 NA
HETATM    4  C12 UNL     1      28.496   1.034  54.190  1.00  0.00     0.108 C 
HETATM    5  C13 UNL     1      28.720  -0.399  54.567  1.00  0.00     0.166 C 
HETATM    6  N3  UNL     1      28.391  -1.336  53.464  1.00  0.00    -0.385 N 
HETATM    7  C14 UNL     1      27.098  -0.774  53.152  1.00  0.00     0.030 A 
HETATM    8  C15 UNL     1      25.845  -1.121  53.575  1.00  0.00     0.053 A 
HETATM    9  C16 UNL     1      24.811  -0.261  53.272  1.00  0.00     0.037 A 
HETATM   10 CL1  UNL     1      23.262  -0.800  53.853  1.00  0.00    -0.084 Cl
HETATM   11  C17 UNL     1      25.053   0.893  52.574  1.00  0.00     0.036 A 
HETATM   12  C18 UNL     1      26.329   1.152  52.195  1.00  0.00    -0.024 A 
HETATM   13  C19 UNL     1      27.421   0.356  52.440  1.00  0.00     0.041 A 
HETATM   14  H21 UNL     1      28.250  -2.035  52.708  1.00  0.00     0.160 HD
ENDROOT
BRANCH   1  15
HETATM   15  C9  UNL     1      25.875   2.606  50.428  1.00  0.00     0.087 C 
BRANCH  15  16
HETATM   16  C8  UNL     1      25.047   3.861  50.473  1.00  0.00     0.093 C 
HETATM   17  N1  UNL     1      24.345   4.194  51.502  1.00  0.00    -0.277 NA
BRANCH  17  18
HETATM   18  C7  UNL     1      23.556   5.360  51.586  1.00  0.00     0.112 C 
HETATM   19  C6  UNL     1      22.264   5.515  51.358  1.00  0.00    -0.007 C 
BRANCH  19  20
HETATM   20  C5  UNL     1      21.465   4.355  50.955  1.00  0.00     0.028 C 
BRANCH  20  21
HETATM   21  C4  UNL     1      20.787   3.763  52.162  1.00  0.00     0.006 C 
BRANCH  21  22
HETATM   22  C3  UNL     1      21.285   2.343  52.337  1.00  0.00     0.027 C 
BRANCH  22  23
HETATM   23  C2  UNL     1      20.065   1.478  52.526  1.00  0.00     0.167 C 
BRANCH  23  24
HETATM   24  O1  UNL     1      20.204   0.603  53.563  1.00  0.00    -0.396 OA
HETATM   25  C1  UNL     1      19.574  -0.618  53.400  1.00  0.00     0.201 C 
ENDBRANCH  23  24
ENDBRANCH  22  23
ENDBRANCH  21  22
ENDBRANCH  20  21
ENDBRANCH  19  20
ENDBRANCH  17  18
ENDBRANCH  15  16
ENDBRANCH   1  15
TORSDOF 8
ENDMDL
MODEL 7
REMARK VINA RESULT:      -6.8      4.384      7.795
REMARK  8 active torsions:
REMARK  status: ('A' for Active; 'I' for Inactive)
REMARK    1  A    between atoms: O1_2  and  C2_3 
REMARK    2  A    between atoms: C2_3  and  C3_4 
REMARK    3  A    between atoms: C3_4  and  C4_5 
REMARK    4  A    between atoms: C4_5  and  C5_6 
REMARK    5  A    between atoms: C5_6  and  C6_7 
REMARK    6  A    between atoms: C7_8  and  N1_9 
REMARK    7  A    between atoms: C8_10  and  C9_11 
REMARK    8  A    between atoms: C9_11  and  C10_12 
ROOT
HETATM    1  C10 UNL     1      25.666   4.369  49.530  1.00  0.00    -0.025 C 
HETATM    2  C11 UNL     1      25.253   5.632  49.296  1.00  0.00     0.124 C 
HETATM    3  N2  UNL     1      24.232   6.591  49.248  1.00  0.00    -0.275 NA
HETATM    4  C12 UNL     1      23.133   6.660  49.936  1.00  0.00     0.108 C 
HETATM    5  C13 UNL     1      21.900   6.634  50.787  1.00  0.00     0.166 C 
HETATM    6  N3  UNL     1      21.969   5.608  51.857  1.00  0.00    -0.385 N 
HETATM    7  C14 UNL     1      22.392   4.516  51.009  1.00  0.00     0.030 A 
HETATM    8  C15 UNL     1      21.669   3.544  50.375  1.00  0.00     0.053 A 
HETATM    9  C16 UNL     1      22.332   2.758  49.457  1.00  0.00     0.037 A 
HETATM   10 CL1  UNL     1      21.322   1.552  48.713  1.00  0.00    -0.084 Cl
HETATM   11  C17 UNL     1      23.663   2.964  49.202  1.00  0.00     0.036 A 
HETATM   12  C18 UNL     1      24.295   3.953  49.882  1.00  0.00    -0.024 A 
HETATM   13  C19 UNL     1      23.727   4.778  50.820  1.00  0.00     0.041 A 
HETATM   14  H21 UNL     1      21.987   4.960  52.669  1.00  0.00     0.160 HD
ENDROOT
BRANCH   1  15
HETATM   15  C9  UNL     1      26.483   3.167  49.676  1.00  0.00     0.087 C 
BRANCH  15  16
HETATM   16  C8  UNL     1      26.610   2.741  51.113  1.00  0.00     0.093 C 
HETATM   17  N1  UNL     1      26.791   1.513  51.461  1.00  0.00    -0.277 NA
BRANCH  17  18
HETATM   18  C7  UNL     1      26.916   1.071  52.795  1.00  0.00     0.112 C 
HETATM   19  C6  UNL     1      26.078   0.352  53.521  1.00  0.00    -0.007 C 
BRANCH  19  20
HETATM   20  C5  UNL     1      24.815  -0.089  52.925  1.00  0.00     0.028 C 
BRANCH  20  21
HETATM   21  C4  UNL     1      23.790   1.008  53.040  1.00  0.00     0.006 C 
BRANCH  21  22
HETATM   22  C3  UNL     1      22.496   0.514  52.424  1.00  0.00     0.027 C 
BRANCH  22  23
HETATM   23  C2  UNL     1      21.430   0.668  53.477  1.00  0.00     0.167 C 
BRANCH  23  24
HETATM   24  O1  UNL     1      20.700  -0.471  53.649  1.00  0.00    -0.396 OA
HETATM   25  C1  UNL     1      21.318  -1.469  54.381  1.00  0.00     0.201 C 
ENDBRANCH  23  24
ENDBRANCH  22  23
ENDBRANCH  21  22
ENDBRANCH  20  21
ENDBRANCH  19  20
ENDBRANCH  17  18
ENDBRANCH  15  16
ENDBRANCH   1  15
TORSDOF 8
ENDMDL
MODEL 8
REMARK VINA RESULT:      -6.7      3.677      8.137
REMARK  8 active torsions:
REMARK  status: ('A' for Active; 'I' for Inactive)
REMARK    1  A    between atoms: O1_2  and  C2_3 
REMARK    2  A    between atoms: C2_3  and  C3_4 
REMARK    3  A    between atoms: C3_4  and  C4_5 
REMARK    4  A    between atoms: C4_5  and  C5_6 
REMARK    5  A    between atoms: C5_6  and  C6_7 
REMARK    6  A    between atoms: C7_8  and  N1_9 
REMARK    7  A    between atoms: C8_10  and  C9_11 
REMARK    8  A    between atoms: C9_11  and  C10_12 
ROOT
HETATM    1  C10 UNL     1      25.478   5.385  49.620  1.00  0.00    -0.025 C 
HETATM    2  C11 UNL     1      25.419   6.588  50.229  1.00  0.00     0.124 C 
HETATM    3  N2  UNL     1      25.881   7.903  50.375  1.00  0.00    -0.275 NA
HETATM    4  C12 UNL     1      26.418   8.691  49.493  1.00  0.00     0.108 C 
HETATM    5  C13 UNL     1      27.025   9.507  48.393  1.00  0.00     0.166 C 
HETATM    6  N3  UNL     1      26.885   8.863  47.063  1.00  0.00    -0.385 N 
HETATM    7  C14 UNL     1      27.361   7.559  47.462  1.00  0.00     0.030 A 
HETATM    8  C15 UNL     1      28.609   7.003  47.396  1.00  0.00     0.053 A 
HETATM    9  C16 UNL     1      28.806   5.807  48.053  1.00  0.00     0.037 A 
HETATM   10 CL1  UNL     1      30.425   5.188  47.902  1.00  0.00    -0.084 Cl
HETATM   11  C17 UNL     1      27.779   5.218  48.741  1.00  0.00     0.036 A 
HETATM   12  C18 UNL     1      26.576   5.844  48.749  1.00  0.00    -0.024 A 
HETATM   13  C19 UNL     1      26.278   7.027  48.119  1.00  0.00     0.041 A 
HETATM   14  H21 UNL     1      26.753   8.500  46.098  1.00  0.00     0.160 HD
ENDROOT
BRANCH   1  15
HETATM   15  C9  UNL     1      25.230   3.999  49.230  1.00  0.00     0.087 C 
BRANCH  15  16
HETATM   16  C8  UNL     1      24.235   3.327  50.136  1.00  0.00     0.093 C 
HETATM   17  N1  UNL     1      24.448   2.172  50.667  1.00  0.00    -0.277 NA
BRANCH  17  18
HETATM   18  C7  UNL     1      23.543   1.507  51.521  1.00  0.00     0.112 C 
HETATM   19  C6  UNL     1      23.778   0.850  52.643  1.00  0.00    -0.007 C 
BRANCH  19  20
HETATM   20  C5  UNL     1      25.153   0.754  53.138  1.00  0.00     0.028 C 
BRANCH  20  21
HETATM   21  C4  UNL     1      25.597  -0.685  53.124  1.00  0.00     0.006 C 
BRANCH  21  22
HETATM   22  C3  UNL     1      27.075  -0.722  52.792  1.00  0.00     0.027 C 
BRANCH  22  23
HETATM   23  C2  UNL     1      27.780   0.057  53.872  1.00  0.00     0.167 C 
BRANCH  23  24
HETATM   24  O1  UNL     1      29.124   0.148  53.656  1.00  0.00    -0.396 OA
HETATM   25  C1  UNL     1      29.810  -1.053  53.659  1.00  0.00     0.201 C 
ENDBRANCH  23  24
ENDBRANCH  22  23
ENDBRANCH  21  22
ENDBRANCH  20  21
ENDBRANCH  19  20
ENDBRANCH  17  18
ENDBRANCH  15  16
ENDBRANCH   1  15
TORSDOF 8
ENDMDL
MODEL 9
REMARK VINA RESULT:      -6.7      3.276      4.837
REMARK  8 active torsions:
REMARK  status: ('A' for Active; 'I' for Inactive)
REMARK    1  A    between atoms: O1_2  and  C2_3 
REMARK    2  A    between atoms: C2_3  and  C3_4 
REMARK    3  A    between atoms: C3_4  and  C4_5 
REMARK    4  A    between atoms: C4_5  and  C5_6 
REMARK    5  A    between atoms: C5_6  and  C6_7 
REMARK    6  A    between atoms: C7_8  and  N1_9 
REMARK    7  A    between atoms: C8_10  and  C9_11 
REMARK    8  A    between atoms: C9_11  and  C10_12 
ROOT
HETATM    1  C10 UNL     1      23.902   2.143  51.445  1.00  0.00    -0.025 C 
HETATM    2  C11 UNL     1      24.843   2.699  52.237  1.00  0.00     0.124 C 
HETATM    3  N2  UNL     1      25.642   2.664  53.387  1.00  0.00    -0.275 NA
HETATM    4  C12 UNL     1      26.098   1.641  54.043  1.00  0.00     0.108 C 
HETATM    5  C13 UNL     1      26.566   0.386  54.718  1.00  0.00     0.166 C 
HETATM    6  N3  UNL     1      26.285  -0.830  53.915  1.00  0.00    -0.385 N 
HETATM    7  C14 UNL     1      24.900  -0.526  53.638  1.00  0.00     0.030 A 
HETATM    8  C15 UNL     1      23.754  -0.909  54.279  1.00  0.00     0.053 A 
HETATM    9  C16 UNL     1      22.581  -0.286  53.909  1.00  0.00     0.037 A 
HETATM   10 CL1  UNL     1      21.187  -0.848  54.784  1.00  0.00    -0.084 Cl
HETATM   11  C17 UNL     1      22.587   0.678  52.935  1.00  0.00     0.036 A 
HETATM   12  C18 UNL     1      23.773   0.989  52.354  1.00  0.00    -0.024 A 
HETATM   13  C19 UNL     1      24.988   0.420  52.646  1.00  0.00     0.041 A 
HETATM   14  H21 UNL     1      26.183  -1.708  53.368  1.00  0.00     0.160 HD
ENDROOT
BRANCH   1  15
HETATM   15  C9  UNL     1      22.955   1.888  50.362  1.00  0.00     0.087 C 
BRANCH  15  16
HETATM   16  C8  UNL     1      22.589   3.146  49.624  1.00  0.00     0.093 C 
HETATM   17  N1  UNL     1      21.663   3.946  50.030  1.00  0.00    -0.277 NA
BRANCH  17  18
HETATM   18  C7  UNL     1      21.289   5.134  49.369  1.00  0.00     0.112 C 
HETATM   19  C6  UNL     1      21.469   6.390  49.737  1.00  0.00    -0.007 C 
BRANCH  19  20
HETATM   20  C5  UNL     1      22.149   6.672  51.004  1.00  0.00     0.028 C 
BRANCH  20  21
HETATM   21  C4  UNL     1      23.482   7.317  50.731  1.00  0.00     0.006 C 
BRANCH  21  22
HETATM   22  C3  UNL     1      24.565   6.282  50.958  1.00  0.00     0.027 C 
BRANCH  22  23
HETATM   23  C2  UNL     1      25.135   5.950  49.603  1.00  0.00     0.167 C 
BRANCH  23  24
HETATM   24  O1  UNL     1      25.790   4.753  49.594  1.00  0.00    -0.396 OA
HETATM   25  C1  UNL     1      27.010   4.748  48.941  1.00  0.00     0.201 C 
ENDBRANCH  23  24
ENDBRANCH  22  23
ENDBRANCH  21  22
ENDBRANCH  20  21
ENDBRANCH  19  20
ENDBRANCH  17  18
ENDBRANCH  15  16
ENDBRANCH   1  15
TORSDOF 8
ENDMDL
