MODEL 1
REMARK VINA RESULT:      -8.5      0.000      0.000
REMARK  4 active torsions:
REMARK  status: ('A' for Active; 'I' for Inactive)
REMARK    1  A    between atoms: O1_2  and  C1_3 
REMARK    2  A    between atoms: C1_3  and  O2_4 
REMARK    3  A    between atoms: O2_4  and  C2_5 
REMARK    4  A    between atoms: N1_11  and  C8_12 
ROOT
HETATM    1  C2  UNL     1      22.485   1.525  50.702  1.00  0.00     0.074 A 
HETATM    2  C3  UNL     1      21.155   1.146  50.717  1.00  0.00     0.039 A 
HETATM    3  C4  UNL     1      20.701   0.324  51.728  1.00  0.00     0.035 A 
HETATM    4  C5  UNL     1      21.548  -0.118  52.714  1.00  0.00     0.062 A 
HETATM    5  C6  UNL     1      22.861   0.271  52.677  1.00  0.00     0.090 A 
HETATM    6  C7  UNL     1      23.348   1.090  51.683  1.00  0.00     0.071 A 
HETATM    7  N1  UNL     1      23.819  -0.119  53.647  1.00  0.00    -0.211 N 
HETATM    8  N4  UNL     1      23.346  -0.943  54.678  1.00  0.00    -0.161 NA
HETATM    9  C16 UNL     1      22.133  -1.311  54.726  1.00  0.00     0.230 A 
HETATM   10  N5  UNL     1      21.138  -0.951  53.781  1.00  0.00    -0.348 N 
HETATM   11  H10 UNL     1      20.143  -1.269  53.844  1.00  0.00     0.167 HD
ENDROOT
BRANCH   7  12
HETATM   12  C8  UNL     1      25.207   0.161  53.719  1.00  0.00     0.169 A 
HETATM   13  C9  UNL     1      25.828   1.319  54.133  1.00  0.00     0.169 A 
HETATM   14  N2  UNL     1      27.159   1.482  54.189  1.00  0.00    -0.255 NA
HETATM   15  C10 UNL     1      27.948   0.457  53.822  1.00  0.00     0.086 A 
HETATM   16  C11 UNL     1      27.330  -0.703  53.407  1.00  0.00     0.088 A 
HETATM   17  C15 UNL     1      29.399   0.543  53.851  1.00  0.00     0.047 C 
HETATM   18  N3  UNL     1      26.018  -0.874  53.348  1.00  0.00    -0.226 NA
HETATM   19  C12 UNL     1      28.276  -1.771  53.024  1.00  0.00     0.047 C 
HETATM   20  C13 UNL     1      29.567  -1.638  53.248  1.00  0.00    -0.011 C 
HETATM   21  C14 UNL     1      30.051  -0.576  53.721  1.00  0.00    -0.011 C 
ENDBRANCH   7  12
BRANCH   1  22
HETATM   22  O2  UNL     1      22.969   2.359  49.685  1.00  0.00    -0.325 OA
BRANCH  22  23
HETATM   23  C1  UNL     1      23.772   3.473  49.951  1.00  0.00     0.360 C 
BRANCH  23  24
HETATM   24  O1  UNL     1      25.004   3.324  49.303  1.00  0.00    -0.286 OA
HETATM   25 BR1  UNL     1      26.325   3.059  50.559  1.00  0.00     0.101 Br
ENDBRANCH  23  24
ENDBRANCH  22  23
ENDBRANCH   1  22
TORSDOF 4
ENDMDL
MODEL 2
REMARK VINA RESULT:      -8.3      3.576      5.834
REMARK  4 active torsions:
REMARK  status: ('A' for Active; 'I' for Inactive)
REMARK    1  A    between atoms: O1_2  and  C1_3 
REMARK    2  A    between atoms: C1_3  and  O2_4 
REMARK    3  A    between atoms: O2_4  and  C2_5 
REMARK    4  A    between atoms: N1_11  and  C8_12 
ROOT
HETATM    1  C2  UNL     1      26.440   0.993  54.105  1.00  0.00     0.074 A 
HETATM    2  C3  UNL     1      25.880  -0.160  54.625  1.00  0.00     0.039 A 
HETATM    3  C4  UNL     1      24.638  -0.564  54.179  1.00  0.00     0.035 A 
HETATM    4  C5  UNL     1      23.957   0.160  53.232  1.00  0.00     0.062 A 
HETATM    5  C6  UNL     1      24.533   1.297  52.733  1.00  0.00     0.090 A 
HETATM    6  C7  UNL     1      25.770   1.730  53.155  1.00  0.00     0.071 A 
HETATM    7  N1  UNL     1      23.922   2.115  51.747  1.00  0.00    -0.211 N 
HETATM    8  N4  UNL     1      22.667   1.689  51.291  1.00  0.00    -0.161 NA
HETATM    9  C16 UNL     1      22.121   0.637  51.742  1.00  0.00     0.230 A 
HETATM   10  N5  UNL     1      22.688  -0.211  52.728  1.00  0.00    -0.348 N 
HETATM   11  H10 UNL     1      22.216  -1.075  53.084  1.00  0.00     0.167 HD
ENDROOT
BRANCH   7  12
HETATM   12  C8  UNL     1      24.367   3.332  51.172  1.00  0.00     0.169 A 
HETATM   13  C9  UNL     1      23.858   4.600  51.349  1.00  0.00     0.169 A 
HETATM   14  N2  UNL     1      24.365   5.703  50.776  1.00  0.00    -0.255 NA
HETATM   15  C10 UNL     1      25.440   5.575  49.977  1.00  0.00     0.086 A 
HETATM   16  C11 UNL     1      25.952   4.307  49.799  1.00  0.00     0.088 A 
HETATM   17  C15 UNL     1      26.058   6.714  49.316  1.00  0.00     0.047 C 
HETATM   18  N3  UNL     1      25.458   3.214  50.359  1.00  0.00    -0.226 NA
HETATM   19  C12 UNL     1      27.129   4.268  48.907  1.00  0.00     0.047 C 
HETATM   20  C13 UNL     1      27.701   5.381  48.497  1.00  0.00    -0.011 C 
HETATM   21  C14 UNL     1      27.227   6.513  48.781  1.00  0.00    -0.011 C 
ENDBRANCH   7  12
BRANCH   1  22
HETATM   22  O2  UNL     1      27.700   1.423  54.543  1.00  0.00    -0.325 OA
BRANCH  22  23
HETATM   23  C1  UNL     1      28.716   0.526  54.892  1.00  0.00     0.360 C 
BRANCH  23  24
HETATM   24  O1  UNL     1      29.523   0.281  53.775  1.00  0.00    -0.286 OA
HETATM   25 BR1  UNL     1      29.437  -1.507  53.342  1.00  0.00     0.101 Br
ENDBRANCH  23  24
ENDBRANCH  22  23
ENDBRANCH   1  22
TORSDOF 4
ENDMDL
MODEL 3
REMARK VINA RESULT:      -7.9      2.915      3.880
REMARK  4 active torsions:
REMARK  status: ('A' for Active; 'I' for Inactive)
REMARK    1  A    between atoms: O1_2  and  C1_3 
REMARK    2  A    between atoms: C1_3  and  O2_4 
REMARK    3  A    between atoms: O2_4  and  C2_5 
REMARK    4  A    between atoms: N1_11  and  C8_12 
ROOT
HETATM    1  C2  UNL     1      21.172  -0.047  52.637  1.00  0.00     0.074 A 
HETATM    2  C3  UNL     1      20.177   0.214  51.711  1.00  0.00     0.039 A 
HETATM    3  C4  UNL     1      20.456   1.035  50.638  1.00  0.00     0.035 A 
HETATM    4  C5  UNL     1      21.701   1.593  50.480  1.00  0.00     0.062 A 
HETATM    5  C6  UNL     1      22.668   1.320  51.409  1.00  0.00     0.090 A 
HETATM    6  C7  UNL     1      22.425   0.505  52.492  1.00  0.00     0.071 A 
HETATM    7  N1  UNL     1      23.988   1.835  51.339  1.00  0.00    -0.211 N 
HETATM    8  N4  UNL     1      24.266   2.658  50.238  1.00  0.00    -0.161 NA
HETATM    9  C16 UNL     1      23.381   2.919  49.368  1.00  0.00     0.230 A 
HETATM   10  N5  UNL     1      22.049   2.432  49.395  1.00  0.00    -0.348 N 
HETATM   11  H10 UNL     1      21.337   2.663  48.664  1.00  0.00     0.167 HD
ENDROOT
BRANCH   7  12
HETATM   12  C8  UNL     1      25.074   1.681  52.237  1.00  0.00     0.169 A 
HETATM   13  C9  UNL     1      25.402   2.458  53.326  1.00  0.00     0.169 A 
HETATM   14  N2  UNL     1      26.443   2.218  54.138  1.00  0.00    -0.255 NA
HETATM   15  C10 UNL     1      27.224   1.152  53.883  1.00  0.00     0.086 A 
HETATM   16  C11 UNL     1      26.898   0.373  52.794  1.00  0.00     0.088 A 
HETATM   17  C15 UNL     1      28.372   0.814  54.708  1.00  0.00     0.047 C 
HETATM   18  N3  UNL     1      25.873   0.602  51.988  1.00  0.00    -0.226 NA
HETATM   19  C12 UNL     1      27.811  -0.771  52.594  1.00  0.00     0.047 C 
HETATM   20  C13 UNL     1      28.718  -1.075  53.500  1.00  0.00    -0.011 C 
HETATM   21  C14 UNL     1      28.895  -0.363  54.524  1.00  0.00    -0.011 C 
ENDBRANCH   7  12
BRANCH   1  22
HETATM   22  O2  UNL     1      20.912  -0.878  53.735  1.00  0.00    -0.325 OA
BRANCH  22  23
HETATM   23  C1  UNL     1      21.538  -0.698  54.973  1.00  0.00     0.360 C 
BRANCH  23  24
HETATM   24  O1  UNL     1      22.379  -1.787  55.232  1.00  0.00    -0.286 OA
HETATM   25 BR1  UNL     1      24.118  -1.195  55.368  1.00  0.00     0.101 Br
ENDBRANCH  23  24
ENDBRANCH  22  23
ENDBRANCH   1  22
TORSDOF 4
ENDMDL
MODEL 4
REMARK VINA RESULT:      -7.8      3.126      4.576
REMARK  4 active torsions:
REMARK  status: ('A' for Active; 'I' for Inactive)
REMARK    1  A    between atoms: O1_2  and  C1_3 
REMARK    2  A    between atoms: C1_3  and  O2_4 
REMARK    3  A    between atoms: O2_4  and  C2_5 
REMARK    4  A    between atoms: N1_11  and  C8_12 
ROOT
HETATM    1  C2  UNL     1      26.785   4.566  49.226  1.00  0.00     0.074 A 
HETATM    2  C3  UNL     1      25.942   5.629  48.955  1.00  0.00     0.039 A 
HETATM    3  C4  UNL     1      24.774   5.761  49.678  1.00  0.00     0.035 A 
HETATM    4  C5  UNL     1      24.441   4.856  50.654  1.00  0.00     0.062 A 
HETATM    5  C6  UNL     1      25.291   3.812  50.902  1.00  0.00     0.090 A 
HETATM    6  C7  UNL     1      26.465   3.649  50.201  1.00  0.00     0.071 A 
HETATM    7  N1  UNL     1      25.050   2.825  51.893  1.00  0.00    -0.211 N 
HETATM    8  N4  UNL     1      23.866   2.975  52.631  1.00  0.00    -0.161 NA
HETATM    9  C16 UNL     1      23.069   3.938  52.413  1.00  0.00     0.230 A 
HETATM   10  N5  UNL     1      23.264   4.947  51.435  1.00  0.00    -0.348 N 
HETATM   11  H10 UNL     1      22.590   5.731  51.275  1.00  0.00     0.167 HD
ENDROOT
BRANCH   7  12
HETATM   12  C8  UNL     1      25.803   1.674  52.232  1.00  0.00     0.169 A 
HETATM   13  C9  UNL     1      25.445   0.349  52.112  1.00  0.00     0.169 A 
HETATM   14  N2  UNL     1      26.242  -0.680  52.440  1.00  0.00    -0.255 NA
HETATM   15  C10 UNL     1      27.472  -0.414  52.917  1.00  0.00     0.086 A 
HETATM   16  C11 UNL     1      27.832   0.911  53.039  1.00  0.00     0.088 A 
HETATM   17  C15 UNL     1      28.403  -1.464  53.297  1.00  0.00     0.047 C 
HETATM   18  N3  UNL     1      27.053   1.932  52.718  1.00  0.00    -0.226 NA
HETATM   19  C12 UNL     1      29.197   1.103  53.570  1.00  0.00     0.047 C 
HETATM   20  C13 UNL     1      30.010   0.079  53.724  1.00  0.00    -0.011 C 
HETATM   21  C14 UNL     1      29.636  -1.103  53.501  1.00  0.00    -0.011 C 
ENDBRANCH   7  12
BRANCH   1  22
HETATM   22  O2  UNL     1      27.977   4.411  48.504  1.00  0.00    -0.325 OA
BRANCH  22  23
HETATM   23  C1  UNL     1      28.842   5.482  48.253  1.00  0.00     0.360 C 
BRANCH  23  24
HETATM   24  O1  UNL     1      30.140   4.995  48.059  1.00  0.00    -0.286 OA
HETATM   25 BR1  UNL     1      31.340   6.384  48.203  1.00  0.00     0.101 Br
ENDBRANCH  23  24
ENDBRANCH  22  23
ENDBRANCH   1  22
TORSDOF 4
ENDMDL
MODEL 5
REMARK VINA RESULT:      -7.8      3.086      5.880
REMARK  4 active torsions:
REMARK  status: ('A' for Active; 'I' for Inactive)
REMARK    1  A    between atoms: O1_2  and  C1_3 
REMARK    2  A    between atoms: C1_3  and  O2_4 
REMARK    3  A    between atoms: O2_4  and  C2_5 
REMARK    4  A    between atoms: N1_11  and  C8_12 
ROOT
HETATM    1  C2  UNL     1      24.942  -0.636  54.309  1.00  0.00     0.074 A 
HETATM    2  C3  UNL     1      24.367  -1.421  55.292  1.00  0.00     0.039 A 
HETATM    3  C4  UNL     1      22.995  -1.419  55.436  1.00  0.00     0.035 A 
HETATM    4  C5  UNL     1      22.199  -0.653  54.621  1.00  0.00     0.062 A 
HETATM    5  C6  UNL     1      22.793   0.115  53.655  1.00  0.00     0.090 A 
HETATM    6  C7  UNL     1      24.159   0.138  53.483  1.00  0.00     0.071 A 
HETATM    7  N1  UNL     1      22.067   0.937  52.754  1.00  0.00    -0.211 N 
HETATM    8  N4  UNL     1      20.673   0.922  52.900  1.00  0.00    -0.161 NA
HETATM    9  C16 UNL     1      20.108   0.215  53.789  1.00  0.00     0.230 A 
HETATM   10  N5  UNL     1      20.788  -0.620  54.714  1.00  0.00    -0.348 N 
HETATM   11  H10 UNL     1      20.298  -1.193  55.438  1.00  0.00     0.167 HD
ENDROOT
BRANCH   7  12
HETATM   12  C8  UNL     1      22.536   1.813  51.744  1.00  0.00     0.169 A 
HETATM   13  C9  UNL     1      22.671   1.572  50.394  1.00  0.00     0.169 A 
HETATM   14  N2  UNL     1      23.105   2.479  49.505  1.00  0.00    -0.255 NA
HETATM   15  C10 UNL     1      23.429   3.707  49.947  1.00  0.00     0.086 A 
HETATM   16  C11 UNL     1      23.295   3.952  51.298  1.00  0.00     0.088 A 
HETATM   17  C15 UNL     1      23.907   4.754  49.058  1.00  0.00     0.047 C 
HETATM   18  N3  UNL     1      22.868   3.063  52.181  1.00  0.00    -0.226 NA
HETATM   19  C12 UNL     1      23.675   5.325  51.688  1.00  0.00     0.047 C 
HETATM   20  C13 UNL     1      23.934   6.237  50.774  1.00  0.00    -0.011 C 
HETATM   21  C14 UNL     1      23.946   5.959  49.545  1.00  0.00    -0.011 C 
ENDBRANCH   7  12
BRANCH   1  22
HETATM   22  O2  UNL     1      26.334  -0.622  54.144  1.00  0.00    -0.325 OA
BRANCH  22  23
HETATM   23  C1  UNL     1      27.153   0.312  54.788  1.00  0.00     0.360 C 
BRANCH  23  24
HETATM   24  O1  UNL     1      28.393  -0.273  55.071  1.00  0.00    -0.286 OA
HETATM   25 BR1  UNL     1      29.130  -0.920  53.512  1.00  0.00     0.101 Br
ENDBRANCH  23  24
ENDBRANCH  22  23
ENDBRANCH   1  22
TORSDOF 4
ENDMDL
MODEL 6
REMARK VINA RESULT:      -7.7      3.224      5.411
REMARK  4 active torsions:
REMARK  status: ('A' for Active; 'I' for Inactive)
REMARK    1  A    between atoms: O1_2  and  C1_3 
REMARK    2  A    between atoms: C1_3  and  O2_4 
REMARK    3  A    between atoms: O2_4  and  C2_5 
REMARK    4  A    between atoms: N1_11  and  C8_12 
ROOT
HETATM    1  C2  UNL     1      24.629  -0.587  54.602  1.00  0.00     0.074 A 
HETATM    2  C3  UNL     1      23.507  -1.247  55.071  1.00  0.00     0.039 A 
HETATM    3  C4  UNL     1      22.302  -1.066  54.423  1.00  0.00     0.035 A 
HETATM    4  C5  UNL     1      22.204  -0.244  53.328  1.00  0.00     0.062 A 
HETATM    5  C6  UNL     1      23.329   0.398  52.884  1.00  0.00     0.090 A 
HETATM    6  C7  UNL     1      24.548   0.240  53.505  1.00  0.00     0.071 A 
HETATM    7  N1  UNL     1      23.344   1.261  51.758  1.00  0.00    -0.211 N 
HETATM    8  N4  UNL     1      22.118   1.428  51.099  1.00  0.00    -0.161 NA
HETATM    9  C16 UNL     1      21.067   0.839  51.498  1.00  0.00     0.230 A 
HETATM   10  N5  UNL     1      21.000  -0.030  52.617  1.00  0.00    -0.348 N 
HETATM   11  H10 UNL     1      20.119  -0.503  52.925  1.00  0.00     0.167 HD
ENDROOT
BRANCH   7  12
HETATM   12  C8  UNL     1      24.406   2.023  51.211  1.00  0.00     0.169 A 
HETATM   13  C9  UNL     1      25.751   1.730  51.191  1.00  0.00     0.169 A 
HETATM   14  N2  UNL     1      26.686   2.509  50.623  1.00  0.00    -0.255 NA
HETATM   15  C10 UNL     1      26.296   3.652  50.031  1.00  0.00     0.086 A 
HETATM   16  C11 UNL     1      24.949   3.949  50.050  1.00  0.00     0.088 A 
HETATM   17  C15 UNL     1      27.236   4.557  49.391  1.00  0.00     0.047 C 
HETATM   18  N3  UNL     1      24.021   3.187  50.607  1.00  0.00    -0.226 NA
HETATM   19  C12 UNL     1      24.618   5.222  49.377  1.00  0.00     0.047 C 
HETATM   20  C13 UNL     1      25.529   5.877  48.688  1.00  0.00    -0.011 C 
HETATM   21  C14 UNL     1      26.727   5.490  48.640  1.00  0.00    -0.011 C 
ENDBRANCH   7  12
BRANCH   1  22
HETATM   22  O2  UNL     1      25.864  -0.756  55.244  1.00  0.00    -0.325 OA
BRANCH  22  23
HETATM   23  C1  UNL     1      27.007  -0.043  54.863  1.00  0.00     0.360 C 
BRANCH  23  24
HETATM   24  O1  UNL     1      27.879  -0.897  54.176  1.00  0.00    -0.286 OA
HETATM   25 BR1  UNL     1      29.434   0.008  53.784  1.00  0.00     0.101 Br
ENDBRANCH  23  24
ENDBRANCH  22  23
ENDBRANCH   1  22
TORSDOF 4
ENDMDL
MODEL 7
REMARK VINA RESULT:      -7.6      3.388      5.264
REMARK  4 active torsions:
REMARK  status: ('A' for Active; 'I' for Inactive)
REMARK    1  A    between atoms: O1_2  and  C1_3 
REMARK    2  A    between atoms: C1_3  and  O2_4 
REMARK    3  A    between atoms: O2_4  and  C2_5 
REMARK    4  A    between atoms: N1_11  and  C8_12 
ROOT
HETATM    1  C2  UNL     1      21.280  -0.197  53.316  1.00  0.00     0.074 A 
HETATM    2  C3  UNL     1      21.420  -1.298  54.141  1.00  0.00     0.039 A 
HETATM    3  C4  UNL     1      22.656  -1.574  54.689  1.00  0.00     0.035 A 
HETATM    4  C5  UNL     1      23.741  -0.775  54.426  1.00  0.00     0.062 A 
HETATM    5  C6  UNL     1      23.576   0.309  53.606  1.00  0.00     0.090 A 
HETATM    6  C7  UNL     1      22.358   0.614  53.042  1.00  0.00     0.071 A 
HETATM    7  N1  UNL     1      24.625   1.206  53.274  1.00  0.00    -0.211 N 
HETATM    8  N4  UNL     1      25.874   0.924  53.846  1.00  0.00    -0.161 NA
HETATM    9  C16 UNL     1      26.041  -0.075  54.609  1.00  0.00     0.230 A 
HETATM   10  N5  UNL     1      25.028  -1.001  54.968  1.00  0.00    -0.348 N 
HETATM   11  H10 UNL     1      25.193  -1.818  55.600  1.00  0.00     0.167 HD
ENDROOT
BRANCH   7  12
HETATM   12  C8  UNL     1      24.621   2.331  52.413  1.00  0.00     0.169 A 
HETATM   13  C9  UNL     1      23.760   3.405  52.410  1.00  0.00     0.169 A 
HETATM   14  N2  UNL     1      23.851   4.444  51.564  1.00  0.00    -0.255 NA
HETATM   15  C10 UNL     1      24.845   4.448  50.657  1.00  0.00     0.086 A 
HETATM   16  C11 UNL     1      25.709   3.373  50.658  1.00  0.00     0.088 A 
HETATM   17  C15 UNL     1      25.022   5.529  49.702  1.00  0.00     0.047 C 
HETATM   18  N3  UNL     1      25.626   2.345  51.488  1.00  0.00    -0.226 NA
HETATM   19  C12 UNL     1      26.764   3.466  49.629  1.00  0.00     0.047 C 
HETATM   20  C13 UNL     1      26.927   4.570  48.929  1.00  0.00    -0.011 C 
HETATM   21  C14 UNL     1      26.149   5.553  49.052  1.00  0.00    -0.011 C 
ENDBRANCH   7  12
BRANCH   1  22
HETATM   22  O2  UNL     1      20.034   0.103  52.748  1.00  0.00    -0.325 OA
BRANCH  22  23
HETATM   23  C1  UNL     1      19.873   0.325  51.375  1.00  0.00     0.360 C 
BRANCH  23  24
HETATM   24  O1  UNL     1      18.531   0.128  51.027  1.00  0.00    -0.286 OA
HETATM   25 BR1  UNL     1      17.674  -0.768  52.388  1.00  0.00     0.101 Br
ENDBRANCH  23  24
ENDBRANCH  22  23
ENDBRANCH   1  22
TORSDOF 4
ENDMDL
MODEL 8
REMARK VINA RESULT:      -7.3      3.234      6.171
REMARK  4 active torsions:
REMARK  status: ('A' for Active; 'I' for Inactive)
REMARK    1  A    between atoms: O1_2  and  C1_3 
REMARK    2  A    between atoms: C1_3  and  O2_4 
REMARK    3  A    between atoms: O2_4  and  C2_5 
REMARK    4  A    between atoms: N1_11  and  C8_12 
ROOT
HETATM    1  C2  UNL     1      24.321  -0.232  54.047  1.00  0.00     0.074 A 
HETATM    2  C3  UNL     1      24.006  -1.222  54.961  1.00  0.00     0.039 A 
HETATM    3  C4  UNL     1      22.690  -1.616  55.096  1.00  0.00     0.035 A 
HETATM    4  C5  UNL     1      21.698  -1.042  54.340  1.00  0.00     0.062 A 
HETATM    5  C6  UNL     1      22.037  -0.066  53.443  1.00  0.00     0.090 A 
HETATM    6  C7  UNL     1      23.339   0.353  53.281  1.00  0.00     0.071 A 
HETATM    7  N1  UNL     1      21.095   0.587  52.605  1.00  0.00    -0.211 N 
HETATM    8  N4  UNL     1      19.763   0.170  52.741  1.00  0.00    -0.161 NA
HETATM    9  C16 UNL     1      19.435  -0.734  53.568  1.00  0.00     0.230 A 
HETATM   10  N5  UNL     1      20.336  -1.414  54.427  1.00  0.00    -0.348 N 
HETATM   11  H10 UNL     1      20.039  -2.157  55.100  1.00  0.00     0.167 HD
ENDROOT
BRANCH   7  12
HETATM   12  C8  UNL     1      21.283   1.636  51.671  1.00  0.00     0.169 A 
HETATM   13  C9  UNL     1      21.286   2.995  51.896  1.00  0.00     0.169 A 
HETATM   14  N2  UNL     1      21.497   3.917  50.944  1.00  0.00    -0.255 NA
HETATM   15  C10 UNL     1      21.723   3.501  49.685  1.00  0.00     0.086 A 
HETATM   16  C11 UNL     1      21.720   2.141  49.456  1.00  0.00     0.088 A 
HETATM   17  C15 UNL     1      21.962   4.427  48.590  1.00  0.00     0.047 C 
HETATM   18  N3  UNL     1      21.512   1.224  50.389  1.00  0.00    -0.226 NA
HETATM   19  C12 UNL     1      21.975   1.780  48.047  1.00  0.00     0.047 C 
HETATM   20  C13 UNL     1      22.343   2.695  47.174  1.00  0.00    -0.011 C 
HETATM   21  C14 UNL     1      22.415   3.914  47.483  1.00  0.00    -0.011 C 
ENDBRANCH   7  12
BRANCH   1  22
HETATM   22  O2  UNL     1      25.651   0.185  53.891  1.00  0.00    -0.325 OA
BRANCH  22  23
HETATM   23  C1  UNL     1      26.487   0.437  54.985  1.00  0.00     0.360 C 
BRANCH  23  24
HETATM   24  O1  UNL     1      27.614  -0.390  54.908  1.00  0.00    -0.286 OA
HETATM   25 BR1  UNL     1      27.985  -0.750  53.141  1.00  0.00     0.101 Br
ENDBRANCH  23  24
ENDBRANCH  22  23
ENDBRANCH   1  22
TORSDOF 4
ENDMDL
MODEL 9
REMARK VINA RESULT:      -7.2      2.075      5.836
REMARK  4 active torsions:
REMARK  status: ('A' for Active; 'I' for Inactive)
REMARK    1  A    between atoms: O1_2  and  C1_3 
REMARK    2  A    between atoms: C1_3  and  O2_4 
REMARK    3  A    between atoms: O2_4  and  C2_5 
REMARK    4  A    between atoms: N1_11  and  C8_12 
ROOT
HETATM    1  C2  UNL     1      25.141   2.350  51.150  1.00  0.00     0.074 A 
HETATM    2  C3  UNL     1      26.477   2.698  51.251  1.00  0.00     0.039 A 
HETATM    3  C4  UNL     1      27.244   2.137  52.251  1.00  0.00     0.035 A 
HETATM    4  C5  UNL     1      26.701   1.244  53.141  1.00  0.00     0.062 A 
HETATM    5  C6  UNL     1      25.377   0.916  53.021  1.00  0.00     0.090 A 
HETATM    6  C7  UNL     1      24.582   1.457  52.035  1.00  0.00     0.071 A 
HETATM    7  N1  UNL     1      24.717  -0.001  53.880  1.00  0.00    -0.211 N 
HETATM    8  N4  UNL     1      25.508  -0.575  54.885  1.00  0.00    -0.161 NA
HETATM    9  C16 UNL     1      26.736  -0.282  55.008  1.00  0.00     0.230 A 
HETATM   10  N5  UNL     1      27.440   0.628  54.178  1.00  0.00    -0.348 N 
HETATM   11  H10 UNL     1      28.454   0.852  54.302  1.00  0.00     0.167 HD
ENDROOT
BRANCH   7  12
HETATM   12  C8  UNL     1      23.358  -0.402  53.910  1.00  0.00     0.169 A 
HETATM   13  C9  UNL     1      22.713  -1.174  54.850  1.00  0.00     0.169 A 
HETATM   14  N2  UNL     1      21.408  -1.483  54.805  1.00  0.00    -0.255 NA
HETATM   15  C10 UNL     1      20.671  -1.015  53.782  1.00  0.00     0.086 A 
HETATM   16  C11 UNL     1      21.315  -0.242  52.838  1.00  0.00     0.088 A 
HETATM   17  C15 UNL     1      19.251  -1.298  53.651  1.00  0.00     0.047 C 
HETATM   18  N3  UNL     1      22.601   0.068  52.875  1.00  0.00    -0.226 NA
HETATM   19  C12 UNL     1      20.426   0.225  51.755  1.00  0.00     0.047 C 
HETATM   20  C13 UNL     1      19.124   0.046  51.827  1.00  0.00    -0.011 C 
HETATM   21  C14 UNL     1      18.595  -0.594  52.775  1.00  0.00    -0.011 C 
ENDBRANCH   7  12
BRANCH   1  22
HETATM   22  O2  UNL     1      24.342   2.908  50.142  1.00  0.00    -0.325 OA
BRANCH  22  23
HETATM   23  C1  UNL     1      23.566   4.053  50.352  1.00  0.00     0.360 C 
BRANCH  23  24
HETATM   24  O1  UNL     1      22.211   3.702  50.350  1.00  0.00    -0.286 OA
HETATM   25 BR1  UNL     1      21.542   3.848  52.060  1.00  0.00     0.101 Br
ENDBRANCH  23  24
ENDBRANCH  22  23
ENDBRANCH   1  22
TORSDOF 4
ENDMDL
