MODEL 1
REMARK VINA RESULT:      -7.9      0.000      0.000
REMARK  3 active torsions:
REMARK  status: ('A' for Active; 'I' for Inactive)
REMARK    1  A    between atoms: C7_8  and  N1_9 
REMARK    2  A    between atoms: N1_9  and  C8_10 
REMARK       I    between atoms: N4_17  and  C13_18 
REMARK    3  A    between atoms: C13_18  and  C14_20 
ROOT
HETATM    1  C14 UNL     1      28.294   5.411  48.116  1.00  0.00     0.226 C 
HETATM    2  C15 UNL     1      29.115   6.636  48.232  1.00  0.00     0.068 C 
HETATM    3  N5  UNL     1      29.770   7.586  48.324  1.00  0.00    -0.197 NA
ENDROOT
BRANCH   1   4
HETATM    4  C13 UNL     1      27.021   5.642  48.789  1.00  0.00     0.233 C 
HETATM    5  N4  UNL     1      26.318   4.867  49.745  1.00  0.00    -0.345 N 
HETATM    6  C12 UNL     1      26.637   3.542  50.415  1.00  0.00     0.168 C 
HETATM    7  C16 UNL     1      24.998   5.406  50.208  1.00  0.00     0.156 C 
HETATM    8  C11 UNL     1      25.193   3.124  50.644  1.00  0.00     0.006 C 
HETATM    9  C8  UNL     1      24.550   2.906  51.965  1.00  0.00     0.155 C 
HETATM   10  C10 UNL     1      24.447   3.154  49.504  1.00  0.00     0.014 C 
HETATM   11  N2  UNL     1      23.331   2.841  51.458  1.00  0.00    -0.160 NA
HETATM   12  N3  UNL     1      22.947   4.168  50.929  1.00  0.00    -0.302 N 
HETATM   13  C9  UNL     1      23.853   4.514  49.798  1.00  0.00     0.143 C 
HETATM   14  H8  UNL     1      22.264   4.980  51.043  1.00  0.00     0.183 HD
HETATM   15  O1  UNL     1      26.579   6.759  48.350  1.00  0.00    -0.272 OA
BRANCH   9  16
HETATM   16  N1  UNL     1      25.420   2.834  53.116  1.00  0.00    -0.339 N 
HETATM   17  H7  UNL     1      25.587   3.698  53.658  1.00  0.00     0.167 HD
BRANCH  16  18
HETATM   18  C7  UNL     1      25.815   1.460  53.130  1.00  0.00     0.041 A 
HETATM   19  C2  UNL     1      27.163   1.291  53.325  1.00  0.00    -0.018 A 
HETATM   20  C1  UNL     1      28.177   2.348  53.533  1.00  0.00     0.052 C 
HETATM   21  C3  UNL     1      27.718   0.008  53.347  1.00  0.00     0.019 A 
HETATM   22 BR1  UNL     1      29.571  -0.361  53.612  1.00  0.00    -0.051 Br
HETATM   23  C4  UNL     1      26.890  -1.086  53.172  1.00  0.00     0.020 A 
HETATM   24  C5  UNL     1      25.522  -0.889  52.976  1.00  0.00     0.004 A 
HETATM   25  C6  UNL     1      24.975   0.381  52.953  1.00  0.00     0.030 A 
ENDBRANCH  16  18
ENDBRANCH   9  16
ENDBRANCH   1   4
TORSDOF 3
ENDMDL
MODEL 2
REMARK VINA RESULT:      -7.9      3.469      6.400
REMARK  3 active torsions:
REMARK  status: ('A' for Active; 'I' for Inactive)
REMARK    1  A    between atoms: C7_8  and  N1_9 
REMARK    2  A    between atoms: N1_9  and  C8_10 
REMARK       I    between atoms: N4_17  and  C13_18 
REMARK    3  A    between atoms: C13_18  and  C14_20 
ROOT
HETATM    1  C14 UNL     1      28.115  -0.536  53.187  1.00  0.00     0.226 C 
HETATM    2  C15 UNL     1      28.578   0.455  54.184  1.00  0.00     0.068 C 
HETATM    3  N5  UNL     1      28.949   1.220  54.969  1.00  0.00    -0.197 NA
ENDROOT
BRANCH   1   4
HETATM    4  C13 UNL     1      26.685  -0.347  52.978  1.00  0.00     0.233 C 
HETATM    5  N4  UNL     1      25.966   0.691  52.333  1.00  0.00    -0.345 N 
HETATM    6  C12 UNL     1      26.420   1.956  51.625  1.00  0.00     0.168 C 
HETATM    7  C16 UNL     1      24.471   0.574  52.329  1.00  0.00     0.156 C 
HETATM    8  C11 UNL     1      25.160   2.760  51.907  1.00  0.00     0.006 C 
HETATM    9  C8  UNL     1      24.222   3.291  50.884  1.00  0.00     0.155 C 
HETATM   10  C10 UNL     1      24.838   2.793  53.229  1.00  0.00     0.014 C 
HETATM   11  N2  UNL     1      23.299   3.612  51.774  1.00  0.00    -0.160 NA
HETATM   12  N3  UNL     1      22.741   2.379  52.371  1.00  0.00    -0.302 N 
HETATM   13  C9  UNL     1      23.820   1.679  53.122  1.00  0.00     0.143 C 
HETATM   14  H8  UNL     1      21.855   1.793  52.475  1.00  0.00     0.183 HD
HETATM   15  O1  UNL     1      26.105  -1.352  53.514  1.00  0.00    -0.272 OA
BRANCH   9  16
HETATM   16  N1  UNL     1      24.664   3.268  49.509  1.00  0.00    -0.339 N 
HETATM   17  H7  UNL     1      24.868   2.353  49.076  1.00  0.00     0.167 HD
BRANCH  16  18
HETATM   18  C7  UNL     1      24.691   4.654  49.161  1.00  0.00     0.041 A 
HETATM   19  C2  UNL     1      25.961   5.129  48.943  1.00  0.00    -0.018 A 
HETATM   20  C1  UNL     1      27.226   4.365  49.011  1.00  0.00     0.052 C 
HETATM   21  C3  UNL     1      26.164   6.471  48.610  1.00  0.00     0.019 A 
HETATM   22 BR1  UNL     1      27.874   7.252  48.279  1.00  0.00    -0.051 Br
HETATM   23  C4  UNL     1      25.071   7.312  48.503  1.00  0.00     0.020 A 
HETATM   24  C5  UNL     1      23.790   6.806  48.729  1.00  0.00     0.004 A 
HETATM   25  C6  UNL     1      23.590   5.478  49.059  1.00  0.00     0.030 A 
ENDBRANCH  16  18
ENDBRANCH   9  16
ENDBRANCH   1   4
TORSDOF 3
ENDMDL
MODEL 3
REMARK VINA RESULT:      -7.3      5.839      8.363
REMARK  3 active torsions:
REMARK  status: ('A' for Active; 'I' for Inactive)
REMARK    1  A    between atoms: C7_8  and  N1_9 
REMARK    2  A    between atoms: N1_9  and  C8_10 
REMARK       I    between atoms: N4_17  and  C13_18 
REMARK    3  A    between atoms: C13_18  and  C14_20 
ROOT
HETATM    1  C14 UNL     1      35.012   4.253  45.347  1.00  0.00     0.226 C 
HETATM    2  C15 UNL     1      34.151   4.455  44.161  1.00  0.00     0.068 C 
HETATM    3  N5  UNL     1      33.488   4.622  43.227  1.00  0.00    -0.197 NA
ENDROOT
BRANCH   1   4
HETATM    4  C13 UNL     1      34.173   4.277  46.538  1.00  0.00     0.233 C 
HETATM    5  N4  UNL     1      33.145   5.168  46.936  1.00  0.00    -0.345 N 
HETATM    6  C12 UNL     1      32.546   6.395  46.269  1.00  0.00     0.168 C 
HETATM    7  C16 UNL     1      32.501   4.903  48.264  1.00  0.00     0.156 C 
HETATM    8  C11 UNL     1      32.134   7.094  47.556  1.00  0.00     0.006 C 
HETATM    9  C8  UNL     1      30.743   7.423  47.958  1.00  0.00     0.155 C 
HETATM   10  C10 UNL     1      33.164   7.227  48.437  1.00  0.00     0.014 C 
HETATM   11  N2  UNL     1      31.085   7.739  49.195  1.00  0.00    -0.160 NA
HETATM   12  N3  UNL     1      31.536   6.524  49.907  1.00  0.00    -0.302 N 
HETATM   13  C9  UNL     1      32.770   6.013  49.249  1.00  0.00     0.143 C 
HETATM   14  H8  UNL     1      31.317   5.866  50.719  1.00  0.00     0.183 HD
HETATM   15  O1  UNL     1      34.530   3.278  47.252  1.00  0.00    -0.272 OA
BRANCH   9  16
HETATM   16  N1  UNL     1      29.719   7.307  46.946  1.00  0.00    -0.339 N 
HETATM   17  H7  UNL     1      29.907   7.707  46.012  1.00  0.00     0.167 HD
BRANCH  16  18
HETATM   18  C7  UNL     1      28.671   6.618  47.631  1.00  0.00     0.041 A 
HETATM   19  C2  UNL     1      27.535   7.376  47.776  1.00  0.00    -0.018 A 
HETATM   20  C1  UNL     1      27.312   8.755  47.288  1.00  0.00     0.052 C 
HETATM   21  C3  UNL     1      26.421   6.857  48.441  1.00  0.00     0.019 A 
HETATM   22 BR1  UNL     1      24.785   7.804  48.704  1.00  0.00    -0.051 Br
HETATM   23  C4  UNL     1      26.478   5.572  48.949  1.00  0.00     0.020 A 
HETATM   24  C5  UNL     1      27.644   4.821  48.790  1.00  0.00     0.004 A 
HETATM   25  C6  UNL     1      28.746   5.335  48.132  1.00  0.00     0.030 A 
ENDBRANCH  16  18
ENDBRANCH   9  16
ENDBRANCH   1   4
TORSDOF 3
ENDMDL
MODEL 4
REMARK VINA RESULT:      -7.2      4.112      7.368
REMARK  3 active torsions:
REMARK  status: ('A' for Active; 'I' for Inactive)
REMARK    1  A    between atoms: C7_8  and  N1_9 
REMARK    2  A    between atoms: N1_9  and  C8_10 
REMARK       I    between atoms: N4_17  and  C13_18 
REMARK    3  A    between atoms: C13_18  and  C14_20 
ROOT
HETATM    1  C14 UNL     1      24.452  -1.644  55.102  1.00  0.00     0.226 C 
HETATM    2  C15 UNL     1      23.025  -1.261  55.176  1.00  0.00     0.068 C 
HETATM    3  N5  UNL     1      21.905  -0.974  55.226  1.00  0.00    -0.197 NA
ENDROOT
BRANCH   1   4
HETATM    4  C13 UNL     1      25.240  -0.444  54.847  1.00  0.00     0.233 C 
HETATM    5  N4  UNL     1      25.162   0.519  53.811  1.00  0.00    -0.345 N 
HETATM    6  C12 UNL     1      24.234   0.656  52.616  1.00  0.00     0.168 C 
HETATM    7  C16 UNL     1      26.170   1.629  53.845  1.00  0.00     0.156 C 
HETATM    8  C11 UNL     1      25.221   1.399  51.728  1.00  0.00     0.006 C 
HETATM    9  C8  UNL     1      25.052   2.780  51.207  1.00  0.00     0.155 C 
HETATM   10  C10 UNL     1      26.410   0.748  51.601  1.00  0.00     0.014 C 
HETATM   11  N2  UNL     1      26.301   2.865  50.784  1.00  0.00    -0.160 NA
HETATM   12  N3  UNL     1      27.215   2.879  51.947  1.00  0.00    -0.302 N 
HETATM   13  C9  UNL     1      27.102   1.577  52.661  1.00  0.00     0.143 C 
HETATM   14  H8  UNL     1      27.932   3.466  52.476  1.00  0.00     0.183 HD
HETATM   15  O1  UNL     1      26.105  -0.374  55.786  1.00  0.00    -0.272 OA
BRANCH   9  16
HETATM   16  N1  UNL     1      23.742   3.376  51.335  1.00  0.00    -0.339 N 
HETATM   17  H7  UNL     1      23.452   3.726  52.263  1.00  0.00     0.167 HD
BRANCH  16  18
HETATM   18  C7  UNL     1      23.215   3.272  50.011  1.00  0.00     0.041 A 
HETATM   19  C2  UNL     1      23.202   4.471  49.341  1.00  0.00    -0.018 A 
HETATM   20  C1  UNL     1      23.684   5.778  49.838  1.00  0.00     0.052 C 
HETATM   21  C3  UNL     1      22.701   4.546  48.038  1.00  0.00     0.019 A 
HETATM   22 BR1  UNL     1      22.631   6.147  47.001  1.00  0.00    -0.051 Br
HETATM   23  C4  UNL     1      22.218   3.399  47.435  1.00  0.00     0.020 A 
HETATM   24  C5  UNL     1      22.241   2.192  48.136  1.00  0.00     0.004 A 
HETATM   25  C6  UNL     1      22.737   2.118  49.424  1.00  0.00     0.030 A 
ENDBRANCH  16  18
ENDBRANCH   9  16
ENDBRANCH   1   4
TORSDOF 3
ENDMDL
MODEL 5
REMARK VINA RESULT:      -7.2      3.874      6.818
REMARK  3 active torsions:
REMARK  status: ('A' for Active; 'I' for Inactive)
REMARK    1  A    between atoms: C7_8  and  N1_9 
REMARK    2  A    between atoms: N1_9  and  C8_10 
REMARK       I    between atoms: N4_17  and  C13_18 
REMARK    3  A    between atoms: C13_18  and  C14_20 
ROOT
HETATM    1  C14 UNL     1      27.196   0.625  54.044  1.00  0.00     0.226 C 
HETATM    2  C15 UNL     1      26.309  -0.154  54.935  1.00  0.00     0.068 C 
HETATM    3  N5  UNL     1      25.627  -0.772  55.637  1.00  0.00    -0.197 NA
ENDROOT
BRANCH   1   4
HETATM    4  C13 UNL     1      26.460   0.949  52.827  1.00  0.00     0.233 C 
HETATM    5  N4  UNL     1      25.499   1.955  52.559  1.00  0.00    -0.345 N 
HETATM    6  C12 UNL     1      24.907   3.054  53.424  1.00  0.00     0.168 C 
HETATM    7  C16 UNL     1      24.916   1.978  51.178  1.00  0.00     0.156 C 
HETATM    8  C11 UNL     1      23.576   3.137  52.693  1.00  0.00     0.006 C 
HETATM    9  C8  UNL     1      23.060   4.320  51.957  1.00  0.00     0.155 C 
HETATM   10  C10 UNL     1      22.951   1.931  52.595  1.00  0.00     0.014 C 
HETATM   11  N2  UNL     1      22.072   3.647  51.394  1.00  0.00    -0.160 NA
HETATM   12  N3  UNL     1      22.628   2.667  50.436  1.00  0.00    -0.302 N 
HETATM   13  C9  UNL     1      23.440   1.669  51.186  1.00  0.00     0.143 C 
HETATM   14  H8  UNL     1      22.671   2.394  49.405  1.00  0.00     0.183 HD
HETATM   15  O1  UNL     1      26.840   0.108  51.941  1.00  0.00    -0.272 OA
BRANCH   9  16
HETATM   16  N1  UNL     1      23.749   5.573  52.161  1.00  0.00    -0.339 N 
HETATM   17  H7  UNL     1      23.781   5.964  53.117  1.00  0.00     0.167 HD
BRANCH  16  18
HETATM   18  C7  UNL     1      24.200   5.906  50.846  1.00  0.00     0.041 A 
HETATM   19  C2  UNL     1      23.388   6.815  50.214  1.00  0.00    -0.018 A 
HETATM   20  C1  UNL     1      22.172   7.459  50.758  1.00  0.00     0.052 C 
HETATM   21  C3  UNL     1      23.677   7.235  48.912  1.00  0.00     0.019 A 
HETATM   22 BR1  UNL     1      22.633   8.493  47.928  1.00  0.00    -0.051 Br
HETATM   23  C4  UNL     1      24.791   6.722  48.272  1.00  0.00     0.020 A 
HETATM   24  C5  UNL     1      25.601   5.799  48.935  1.00  0.00     0.004 A 
HETATM   25  C6  UNL     1      25.314   5.384  50.222  1.00  0.00     0.030 A 
ENDBRANCH  16  18
ENDBRANCH   9  16
ENDBRANCH   1   4
TORSDOF 3
ENDMDL
MODEL 6
REMARK VINA RESULT:      -7.2      5.133      7.949
REMARK  3 active torsions:
REMARK  status: ('A' for Active; 'I' for Inactive)
REMARK    1  A    between atoms: C7_8  and  N1_9 
REMARK    2  A    between atoms: N1_9  and  C8_10 
REMARK       I    between atoms: N4_17  and  C13_18 
REMARK    3  A    between atoms: C13_18  and  C14_20 
ROOT
HETATM    1  C14 UNL     1      17.678  -0.498  51.558  1.00  0.00     0.226 C 
HETATM    2  C15 UNL     1      16.494   0.333  51.865  1.00  0.00     0.068 C 
HETATM    3  N5  UNL     1      15.568   0.990  52.092  1.00  0.00    -0.197 NA
ENDROOT
BRANCH   1   4
HETATM    4  C13 UNL     1      18.506  -0.585  52.755  1.00  0.00     0.233 C 
HETATM    5  N4  UNL     1      19.865  -0.250  52.975  1.00  0.00    -0.345 N 
HETATM    6  C12 UNL     1      20.933   0.325  52.060  1.00  0.00     0.168 C 
HETATM    7  C16 UNL     1      20.407  -0.501  54.351  1.00  0.00     0.156 C 
HETATM    8  C11 UNL     1      22.118  -0.303  52.780  1.00  0.00     0.006 C 
HETATM    9  C8  UNL     1      23.211   0.437  53.461  1.00  0.00     0.155 C 
HETATM   10  C10 UNL     1      21.993  -1.651  52.926  1.00  0.00     0.014 C 
HETATM   11  N2  UNL     1      23.693  -0.645  54.047  1.00  0.00    -0.160 NA
HETATM   12  N3  UNL     1      22.723  -1.136  55.049  1.00  0.00    -0.302 N 
HETATM   13  C9  UNL     1      21.480  -1.560  54.346  1.00  0.00     0.143 C 
HETATM   14  H8  UNL     1      22.568  -1.308  56.091  1.00  0.00     0.183 HD
HETATM   15  O1  UNL     1      17.757  -1.056  53.678  1.00  0.00    -0.272 OA
BRANCH   9  16
HETATM   16  N1  UNL     1      23.303   1.856  53.208  1.00  0.00    -0.339 N 
HETATM   17  H7  UNL     1      22.443   2.424  53.285  1.00  0.00     0.167 HD
BRANCH  16  18
HETATM   18  C7  UNL     1      24.685   2.034  52.893  1.00  0.00     0.041 A 
HETATM   19  C2  UNL     1      24.889   2.534  51.631  1.00  0.00    -0.018 A 
HETATM   20  C1  UNL     1      23.856   2.906  50.639  1.00  0.00     0.052 C 
HETATM   21  C3  UNL     1      26.186   2.751  51.158  1.00  0.00     0.019 A 
HETATM   22 BR1  UNL     1      26.602   3.444  49.429  1.00  0.00    -0.051 Br
HETATM   23  C4  UNL     1      27.260   2.455  51.978  1.00  0.00     0.020 A 
HETATM   24  C5  UNL     1      27.028   1.947  53.258  1.00  0.00     0.004 A 
HETATM   25  C6  UNL     1      25.744   1.733  53.725  1.00  0.00     0.030 A 
ENDBRANCH  16  18
ENDBRANCH   9  16
ENDBRANCH   1   4
TORSDOF 3
ENDMDL
MODEL 7
REMARK VINA RESULT:      -7.2      4.291      6.230
REMARK  3 active torsions:
REMARK  status: ('A' for Active; 'I' for Inactive)
REMARK    1  A    between atoms: C7_8  and  N1_9 
REMARK    2  A    between atoms: N1_9  and  C8_10 
REMARK       I    between atoms: N4_17  and  C13_18 
REMARK    3  A    between atoms: C13_18  and  C14_20 
ROOT
HETATM    1  C14 UNL     1      27.846   1.281  53.031  1.00  0.00     0.226 C 
HETATM    2  C15 UNL     1      27.885  -0.180  53.260  1.00  0.00     0.068 C 
HETATM    3  N5  UNL     1      27.924  -1.324  53.428  1.00  0.00    -0.197 NA
ENDROOT
BRANCH   1   4
HETATM    4  C13 UNL     1      26.512   1.766  53.363  1.00  0.00     0.233 C 
HETATM    5  N4  UNL     1      25.353   1.929  52.563  1.00  0.00    -0.345 N 
HETATM    6  C12 UNL     1      25.083   1.650  51.095  1.00  0.00     0.168 C 
HETATM    7  C16 UNL     1      24.140   2.491  53.242  1.00  0.00     0.156 C 
HETATM    8  C11 UNL     1      24.004   2.710  50.925  1.00  0.00     0.006 C 
HETATM    9  C8  UNL     1      22.583   2.455  50.576  1.00  0.00     0.155 C 
HETATM   10  C10 UNL     1      24.411   3.946  51.324  1.00  0.00     0.014 C 
HETATM   11  N2  UNL     1      22.205   3.691  50.848  1.00  0.00    -0.160 NA
HETATM   12  N3  UNL     1      22.325   3.934  52.302  1.00  0.00    -0.302 N 
HETATM   13  C9  UNL     1      23.761   3.841  52.686  1.00  0.00     0.143 C 
HETATM   14  H8  UNL     1      21.776   4.154  53.190  1.00  0.00     0.183 HD
HETATM   15  O1  UNL     1      26.533   2.056  54.609  1.00  0.00    -0.272 OA
BRANCH   9  16
HETATM   16  N1  UNL     1      22.247   1.129  50.110  1.00  0.00    -0.339 N 
HETATM   17  H7  UNL     1      22.590   0.836  49.180  1.00  0.00     0.167 HD
BRANCH  16  18
HETATM   18  C7  UNL     1      21.465   0.603  51.183  1.00  0.00     0.041 A 
HETATM   19  C2  UNL     1      20.113   0.690  50.956  1.00  0.00    -0.018 A 
HETATM   20  C1  UNL     1      19.441   1.229  49.753  1.00  0.00     0.052 C 
HETATM   21  C3  UNL     1      19.205   0.236  51.917  1.00  0.00     0.019 A 
HETATM   22 BR1  UNL     1      17.308   0.297  51.721  1.00  0.00    -0.051 Br
HETATM   23  C4  UNL     1      19.686  -0.302  53.097  1.00  0.00     0.020 A 
HETATM   24  C5  UNL     1      21.064  -0.380  53.305  1.00  0.00     0.004 A 
HETATM   25  C6  UNL     1      21.962   0.070  52.354  1.00  0.00     0.030 A 
ENDBRANCH  16  18
ENDBRANCH   9  16
ENDBRANCH   1   4
TORSDOF 3
ENDMDL
MODEL 8
REMARK VINA RESULT:      -7.1      3.520      4.953
REMARK  3 active torsions:
REMARK  status: ('A' for Active; 'I' for Inactive)
REMARK    1  A    between atoms: C7_8  and  N1_9 
REMARK    2  A    between atoms: N1_9  and  C8_10 
REMARK       I    between atoms: N4_17  and  C13_18 
REMARK    3  A    between atoms: C13_18  and  C14_20 
ROOT
HETATM    1  C14 UNL     1      25.237   4.926  49.349  1.00  0.00     0.226 C 
HETATM    2  C15 UNL     1      25.691   6.257  49.807  1.00  0.00     0.068 C 
HETATM    3  N5  UNL     1      26.044   7.304  50.152  1.00  0.00    -0.197 NA
ENDROOT
BRANCH   1   4
HETATM    4  C13 UNL     1      26.042   3.909  50.014  1.00  0.00     0.233 C 
HETATM    5  N4  UNL     1      25.675   2.847  50.878  1.00  0.00    -0.345 N 
HETATM    6  C12 UNL     1      24.328   2.384  51.406  1.00  0.00     0.168 C 
HETATM    7  C16 UNL     1      26.789   1.996  51.411  1.00  0.00     0.156 C 
HETATM    8  C11 UNL     1      24.859   1.786  52.701  1.00  0.00     0.006 C 
HETATM    9  C8  UNL     1      24.785   0.355  53.091  1.00  0.00     0.155 C 
HETATM   10  C10 UNL     1      25.611   2.665  53.419  1.00  0.00     0.014 C 
HETATM   11  N2  UNL     1      25.612   0.502  54.112  1.00  0.00    -0.160 NA
HETATM   12  N3  UNL     1      26.967   0.812  53.607  1.00  0.00    -0.302 N 
HETATM   13  C9  UNL     1      26.929   2.126  52.906  1.00  0.00     0.143 C 
HETATM   14  H8  UNL     1      27.972   0.457  53.552  1.00  0.00     0.183 HD
HETATM   15  O1  UNL     1      27.255   4.130  49.675  1.00  0.00    -0.272 OA
BRANCH   9  16
HETATM   16  N1  UNL     1      23.921  -0.497  52.308  1.00  0.00    -0.339 N 
HETATM   17  H7  UNL     1      24.309  -0.940  51.459  1.00  0.00     0.167 HD
BRANCH  16  18
HETATM   18  C7  UNL     1      22.685  -0.440  53.023  1.00  0.00     0.041 A 
HETATM   19  C2  UNL     1      21.623  -0.078  52.231  1.00  0.00    -0.018 A 
HETATM   20  C1  UNL     1      21.647   0.217  50.782  1.00  0.00     0.052 C 
HETATM   21  C3  UNL     1      20.343   0.043  52.780  1.00  0.00     0.019 A 
HETATM   22 BR1  UNL     1      18.787   0.534  51.789  1.00  0.00    -0.051 Br
HETATM   23  C4  UNL     1      20.161  -0.207  54.128  1.00  0.00     0.020 A 
HETATM   24  C5  UNL     1      21.256  -0.574  54.913  1.00  0.00     0.004 A 
HETATM   25  C6  UNL     1      22.522  -0.693  54.369  1.00  0.00     0.030 A 
ENDBRANCH  16  18
ENDBRANCH   9  16
ENDBRANCH   1   4
TORSDOF 3
ENDMDL
MODEL 9
REMARK VINA RESULT:      -7.1      2.927      3.913
REMARK  3 active torsions:
REMARK  status: ('A' for Active; 'I' for Inactive)
REMARK    1  A    between atoms: C7_8  and  N1_9 
REMARK    2  A    between atoms: N1_9  and  C8_10 
REMARK       I    between atoms: N4_17  and  C13_18 
REMARK    3  A    between atoms: C13_18  and  C14_20 
ROOT
HETATM    1  C14 UNL     1      21.116   5.314  46.896  1.00  0.00     0.226 C 
HETATM    2  C15 UNL     1      21.610   4.410  45.834  1.00  0.00     0.068 C 
HETATM    3  N5  UNL     1      21.982   3.697  45.002  1.00  0.00    -0.197 NA
ENDROOT
BRANCH   1   4
HETATM    4  C13 UNL     1      22.183   5.506  47.872  1.00  0.00     0.233 C 
HETATM    5  N4  UNL     1      22.594   4.712  48.971  1.00  0.00    -0.345 N 
HETATM    6  C12 UNL     1      22.089   3.387  49.516  1.00  0.00     0.168 C 
HETATM    7  C16 UNL     1      23.732   5.239  49.794  1.00  0.00     0.156 C 
HETATM    8  C11 UNL     1      22.503   3.636  50.958  1.00  0.00     0.006 C 
HETATM    9  C8  UNL     1      23.496   2.843  51.727  1.00  0.00     0.155 C 
HETATM   10  C10 UNL     1      22.018   4.809  51.451  1.00  0.00     0.014 C 
HETATM   11  N2  UNL     1      23.552   3.714  52.719  1.00  0.00    -0.160 NA
HETATM   12  N3  UNL     1      24.177   4.966  52.240  1.00  0.00    -0.302 N 
HETATM   13  C9  UNL     1      23.301   5.572  51.200  1.00  0.00     0.143 C 
HETATM   14  H8  UNL     1      25.020   5.610  52.355  1.00  0.00     0.183 HD
HETATM   15  O1  UNL     1      22.757   6.607  47.567  1.00  0.00    -0.272 OA
BRANCH   9  16
HETATM   16  N1  UNL     1      23.917   1.584  51.157  1.00  0.00    -0.339 N 
HETATM   17  H7  UNL     1      23.876   1.474  50.130  1.00  0.00     0.167 HD
BRANCH  16  18
HETATM   18  C7  UNL     1      24.278   0.818  52.308  1.00  0.00     0.041 A 
HETATM   19  C2  UNL     1      25.635   0.761  52.510  1.00  0.00    -0.018 A 
HETATM   20  C1  UNL     1      26.689   1.408  51.698  1.00  0.00     0.052 C 
HETATM   21  C3  UNL     1      26.158   0.036  53.585  1.00  0.00     0.019 A 
HETATM   22 BR1  UNL     1      28.020  -0.119  53.977  1.00  0.00    -0.051 Br
HETATM   23  C4  UNL     1      25.292  -0.622  54.439  1.00  0.00     0.020 A 
HETATM   24  C5  UNL     1      23.916  -0.549  54.213  1.00  0.00     0.004 A 
HETATM   25  C6  UNL     1      23.400   0.168  53.149  1.00  0.00     0.030 A 
ENDBRANCH  16  18
ENDBRANCH   9  16
ENDBRANCH   1   4
TORSDOF 3
ENDMDL
