MODEL 1
REMARK VINA RESULT:      -8.2      0.000      0.000
REMARK  5 active torsions:
REMARK  status: ('A' for Active; 'I' for Inactive)
REMARK    1  A    between atoms: C2_2  and  C17_20 
REMARK    2  A    between atoms: C3_3  and  C4_4 
REMARK    3  A    between atoms: C5_5  and  C6_6 
REMARK    4  A    between atoms: N2_10  and  C9_11 
REMARK    5  A    between atoms: C17_20  and  O1_21 
ROOT
HETATM    1  C6  UNL     1      23.518   0.428  52.731  1.00  0.00    -0.045 C 
HETATM    2  C7  UNL     1      24.593   0.253  53.490  1.00  0.00    -0.008 A 
HETATM    3  C8  UNL     1      24.657  -0.764  54.535  1.00  0.00     0.148 A 
HETATM    4  N1  UNL     1      25.838  -0.779  55.080  1.00  0.00    -0.187 NA
HETATM    5  N2  UNL     1      26.643   0.194  54.470  1.00  0.00    -0.278 N 
HETATM    6  C12 UNL     1      25.907   0.971  53.494  1.00  0.00     0.144 A 
HETATM    7  C13 UNL     1      25.774   2.409  53.849  1.00  0.00     0.058 C 
HETATM    8  C14 UNL     1      24.567   3.032  53.240  1.00  0.00    -0.028 C 
HETATM    9  C15 UNL     1      23.577   2.805  52.386  1.00  0.00    -0.026 C 
HETATM   10  C16 UNL     1      23.488   1.471  51.680  1.00  0.00     0.066 C 
ENDROOT
BRANCH   1  11
HETATM   11  C5  UNL     1      22.378  -0.438  52.971  1.00  0.00     0.008 C 
HETATM   12  C4  UNL     1      21.224  -0.083  53.508  1.00  0.00     0.001 C 
BRANCH  12  13
HETATM   13  C3  UNL     1      20.083  -0.946  53.750  1.00  0.00     0.004 C 
HETATM   14  C2  UNL     1      18.947  -0.870  53.093  1.00  0.00    -0.061 C 
HETATM   15  C1  UNL     1      18.766   0.145  52.026  1.00  0.00     0.045 C 
BRANCH  14  16
HETATM   16  C17 UNL     1      17.856  -1.807  53.432  1.00  0.00     0.198 C 
BRANCH  16  17
HETATM   17  O1  UNL     1      16.667  -1.075  53.576  1.00  0.00    -0.397 OA
HETATM   18  H20 UNL     1      16.465  -1.095  54.546  1.00  0.00     0.209 HD
ENDBRANCH  16  17
ENDBRANCH  14  16
ENDBRANCH  12  13
ENDBRANCH   1  11
BRANCH   5  19
HETATM   19  C9  UNL     1      28.062   0.463  54.727  1.00  0.00     0.194 A 
HETATM   20  C10 UNL     1      28.943  -0.649  54.351  1.00  0.00     0.018 A 
HETATM   21  C11 UNL     1      29.544  -0.051  53.349  1.00  0.00     0.046 A 
HETATM   22  S1  UNL     1      28.707   1.514  53.428  1.00  0.00    -0.111 SA
ENDBRANCH   5  19
TORSDOF 5
ENDMDL
MODEL 2
REMARK VINA RESULT:      -8.1      2.685      4.032
REMARK  5 active torsions:
REMARK  status: ('A' for Active; 'I' for Inactive)
REMARK    1  A    between atoms: C2_2  and  C17_20 
REMARK    2  A    between atoms: C3_3  and  C4_4 
REMARK    3  A    between atoms: C5_5  and  C6_6 
REMARK    4  A    between atoms: N2_10  and  C9_11 
REMARK    5  A    between atoms: C17_20  and  O1_21 
ROOT
HETATM    1  C6  UNL     1      24.062  -0.120  53.258  1.00  0.00    -0.045 C 
HETATM    2  C7  UNL     1      24.148   0.903  52.417  1.00  0.00    -0.008 A 
HETATM    3  C8  UNL     1      23.056   1.278  51.525  1.00  0.00     0.148 A 
HETATM    4  N1  UNL     1      23.364   2.352  50.859  1.00  0.00    -0.187 NA
HETATM    5  N2  UNL     1      24.647   2.777  51.232  1.00  0.00    -0.278 N 
HETATM    6  C12 UNL     1      25.271   1.861  52.165  1.00  0.00     0.144 A 
HETATM    7  C13 UNL     1      26.487   1.194  51.628  1.00  0.00     0.058 C 
HETATM    8  C14 UNL     1      26.740  -0.123  52.274  1.00  0.00    -0.028 C 
HETATM    9  C15 UNL     1      26.329  -0.916  53.256  1.00  0.00    -0.026 C 
HETATM   10  C16 UNL     1      25.192  -0.473  54.148  1.00  0.00     0.066 C 
ENDROOT
BRANCH   1  11
HETATM   11  C5  UNL     1      22.822  -0.876  53.271  1.00  0.00     0.008 C 
HETATM   12  C4  UNL     1      21.821  -0.724  54.120  1.00  0.00     0.001 C 
BRANCH  12  13
HETATM   13  C3  UNL     1      20.582  -1.478  54.136  1.00  0.00     0.004 C 
HETATM   14  C2  UNL     1      19.496  -1.128  53.484  1.00  0.00    -0.061 C 
HETATM   15  C1  UNL     1      19.481   0.108  52.662  1.00  0.00     0.045 C 
BRANCH  14  16
HETATM   16  C17 UNL     1      18.292  -1.981  53.579  1.00  0.00     0.198 C 
BRANCH  16  17
HETATM   17  O1  UNL     1      17.203  -1.176  53.949  1.00  0.00    -0.397 OA
HETATM   18  H20 UNL     1      16.847  -0.815  53.099  1.00  0.00     0.209 HD
ENDBRANCH  16  17
ENDBRANCH  14  16
ENDBRANCH  12  13
ENDBRANCH   1  11
BRANCH   5  19
HETATM   19  C9  UNL     1      25.350   3.985  50.784  1.00  0.00     0.194 A 
HETATM   20  C10 UNL     1      25.560   4.030  49.332  1.00  0.00     0.018 A 
HETATM   21  C11 UNL     1      24.753   5.033  49.079  1.00  0.00     0.046 A 
HETATM   22  S1  UNL     1      24.198   5.354  50.736  1.00  0.00    -0.111 SA
ENDBRANCH   5  19
TORSDOF 5
ENDMDL
MODEL 3
REMARK VINA RESULT:      -7.9      4.096      7.346
REMARK  5 active torsions:
REMARK  status: ('A' for Active; 'I' for Inactive)
REMARK    1  A    between atoms: C2_2  and  C17_20 
REMARK    2  A    between atoms: C3_3  and  C4_4 
REMARK    3  A    between atoms: C5_5  and  C6_6 
REMARK    4  A    between atoms: N2_10  and  C9_11 
REMARK    5  A    between atoms: C17_20  and  O1_21 
ROOT
HETATM    1  C6  UNL     1      24.326   1.047  53.119  1.00  0.00    -0.045 C 
HETATM    2  C7  UNL     1      23.074   0.667  52.896  1.00  0.00    -0.008 A 
HETATM    3  C8  UNL     1      22.670  -0.735  52.892  1.00  0.00     0.148 A 
HETATM    4  N1  UNL     1      21.384  -0.835  52.723  1.00  0.00    -0.187 NA
HETATM    5  N2  UNL     1      20.831   0.448  52.602  1.00  0.00    -0.278 N 
HETATM    6  C12 UNL     1      21.849   1.479  52.613  1.00  0.00     0.144 A 
HETATM    7  C13 UNL     1      21.945   2.239  51.338  1.00  0.00     0.058 C 
HETATM    8  C14 UNL     1      23.303   2.809  51.121  1.00  0.00    -0.028 C 
HETATM    9  C15 UNL     1      24.482   2.984  51.706  1.00  0.00    -0.026 C 
HETATM   10  C16 UNL     1      24.701   2.479  53.114  1.00  0.00     0.066 C 
ENDROOT
BRANCH   1  11
HETATM   11  C5  UNL     1      25.310   0.007  53.365  1.00  0.00     0.008 C 
HETATM   12  C4  UNL     1      26.307  -0.333  52.568  1.00  0.00     0.001 C 
BRANCH  12  13
HETATM   13  C3  UNL     1      27.291  -1.370  52.811  1.00  0.00     0.004 C 
HETATM   14  C2  UNL     1      28.517  -1.143  53.227  1.00  0.00    -0.061 C 
HETATM   15  C1  UNL     1      28.976   0.244  53.482  1.00  0.00     0.045 C 
BRANCH  14  16
HETATM   16  C17 UNL     1      29.428  -2.287  53.439  1.00  0.00     0.198 C 
BRANCH  16  17
HETATM   17  O1  UNL     1      28.674  -3.471  53.411  1.00  0.00    -0.397 OA
HETATM   18  H20 UNL     1      28.542  -3.718  54.361  1.00  0.00     0.209 HD
ENDBRANCH  16  17
ENDBRANCH  14  16
ENDBRANCH  12  13
ENDBRANCH   1  11
BRANCH   5  19
HETATM   19  C9  UNL     1      19.411   0.797  52.475  1.00  0.00     0.194 A 
HETATM   20  C10 UNL     1      18.929   0.775  51.089  1.00  0.00     0.018 A 
HETATM   21  C11 UNL     1      18.130  -0.260  51.210  1.00  0.00     0.046 A 
HETATM   22  S1  UNL     1      18.414  -0.620  52.926  1.00  0.00    -0.111 SA
ENDBRANCH   5  19
TORSDOF 5
ENDMDL
MODEL 4
REMARK VINA RESULT:      -7.8      4.394      7.456
REMARK  5 active torsions:
REMARK  status: ('A' for Active; 'I' for Inactive)
REMARK    1  A    between atoms: C2_2  and  C17_20 
REMARK    2  A    between atoms: C3_3  and  C4_4 
REMARK    3  A    between atoms: C5_5  and  C6_6 
REMARK    4  A    between atoms: N2_10  and  C9_11 
REMARK    5  A    between atoms: C17_20  and  O1_21 
ROOT
HETATM    1  C6  UNL     1      23.691   0.240  53.221  1.00  0.00    -0.045 C 
HETATM    2  C7  UNL     1      23.082   1.366  52.870  1.00  0.00    -0.008 A 
HETATM    3  C8  UNL     1      23.778   2.648  52.814  1.00  0.00     0.148 A 
HETATM    4  N1  UNL     1      22.981   3.577  52.375  1.00  0.00    -0.187 NA
HETATM    5  N2  UNL     1      21.722   3.019  52.107  1.00  0.00    -0.278 N 
HETATM    6  C12 UNL     1      21.661   1.620  52.476  1.00  0.00     0.144 A 
HETATM    7  C13 UNL     1      20.700   1.331  53.574  1.00  0.00     0.058 C 
HETATM    8  C14 UNL     1      21.071   0.112  54.343  1.00  0.00    -0.028 C 
HETATM    9  C15 UNL     1      21.916  -0.911  54.360  1.00  0.00    -0.026 C 
HETATM   10  C16 UNL     1      22.953  -1.043  53.268  1.00  0.00     0.066 C 
ENDROOT
BRANCH   1  11
HETATM   11  C5  UNL     1      25.102   0.315  53.556  1.00  0.00     0.008 C 
HETATM   12  C4  UNL     1      26.107  -0.106  52.810  1.00  0.00     0.001 C 
BRANCH  12  13
HETATM   13  C3  UNL     1      27.518  -0.033  53.141  1.00  0.00     0.004 C 
HETATM   14  C2  UNL     1      28.328  -1.068  53.157  1.00  0.00    -0.061 C 
HETATM   15  C1  UNL     1      27.820  -2.421  52.822  1.00  0.00     0.045 C 
BRANCH  14  16
HETATM   16  C17 UNL     1      29.749  -0.864  53.510  1.00  0.00     0.198 C 
BRANCH  16  17
HETATM   17  O1  UNL     1      30.024   0.512  53.478  1.00  0.00    -0.397 OA
HETATM   18  H20 UNL     1      30.982   0.591  53.716  1.00  0.00     0.209 HD
ENDBRANCH  16  17
ENDBRANCH  14  16
ENDBRANCH  12  13
ENDBRANCH   1  11
BRANCH   5  19
HETATM   19  C9  UNL     1      20.555   3.694  51.527  1.00  0.00     0.194 A 
HETATM   20  C10 UNL     1      20.883   4.966  50.874  1.00  0.00     0.018 A 
HETATM   21  C11 UNL     1      20.628   4.590  49.642  1.00  0.00     0.046 A 
HETATM   22  S1  UNL     1      20.137   2.914  49.970  1.00  0.00    -0.111 SA
ENDBRANCH   5  19
TORSDOF 5
ENDMDL
MODEL 5
REMARK VINA RESULT:      -7.7      4.598      7.219
REMARK  5 active torsions:
REMARK  status: ('A' for Active; 'I' for Inactive)
REMARK    1  A    between atoms: C2_2  and  C17_20 
REMARK    2  A    between atoms: C3_3  and  C4_4 
REMARK    3  A    between atoms: C5_5  and  C6_6 
REMARK    4  A    between atoms: N2_10  and  C9_11 
REMARK    5  A    between atoms: C17_20  and  O1_21 
ROOT
HETATM    1  C6  UNL     1      26.200   1.313  51.826  1.00  0.00    -0.045 C 
HETATM    2  C7  UNL     1      24.946   1.157  52.233  1.00  0.00    -0.008 A 
HETATM    3  C8  UNL     1      23.958   2.226  52.151  1.00  0.00     0.148 A 
HETATM    4  N1  UNL     1      22.794   1.799  52.544  1.00  0.00    -0.187 NA
HETATM    5  N2  UNL     1      22.897   0.449  52.913  1.00  0.00    -0.278 N 
HETATM    6  C12 UNL     1      24.260  -0.032  52.832  1.00  0.00     0.144 A 
HETATM    7  C13 UNL     1      24.836  -0.427  54.145  1.00  0.00     0.058 C 
HETATM    8  C14 UNL     1      26.320  -0.312  54.169  1.00  0.00    -0.028 C 
HETATM    9  C15 UNL     1      27.375  -0.073  53.398  1.00  0.00    -0.026 C 
HETATM   10  C16 UNL     1      27.178   0.205  51.926  1.00  0.00     0.066 C 
ENDROOT
BRANCH   1  11
HETATM   11  C5  UNL     1      26.574   2.606  51.283  1.00  0.00     0.008 C 
HETATM   12  C4  UNL     1      26.495   2.976  50.017  1.00  0.00     0.001 C 
BRANCH  12  13
HETATM   13  C3  UNL     1      26.867   4.267  49.470  1.00  0.00     0.004 C 
HETATM   14  C2  UNL     1      26.007   5.168  49.051  1.00  0.00    -0.061 C 
HETATM   15  C1  UNL     1      24.549   4.900  49.118  1.00  0.00     0.045 C 
BRANCH  14  16
HETATM   16  C17 UNL     1      26.511   6.449  48.513  1.00  0.00     0.198 C 
BRANCH  16  17
HETATM   17  O1  UNL     1      27.297   7.068  49.498  1.00  0.00    -0.397 OA
HETATM   18  H20 UNL     1      28.228   6.798  49.295  1.00  0.00     0.209 HD
ENDBRANCH  16  17
ENDBRANCH  14  16
ENDBRANCH  12  13
ENDBRANCH   1  11
BRANCH   5  19
HETATM   19  C9  UNL     1      21.812  -0.441  53.342  1.00  0.00     0.194 A 
HETATM   20  C10 UNL     1      21.420  -0.248  54.743  1.00  0.00     0.018 A 
HETATM   21  C11 UNL     1      20.225   0.246  54.514  1.00  0.00     0.046 A 
HETATM   22  S1  UNL     1      20.252   0.198  52.738  1.00  0.00    -0.111 SA
ENDBRANCH   5  19
TORSDOF 5
ENDMDL
MODEL 6
REMARK VINA RESULT:      -7.3      3.404      4.810
REMARK  5 active torsions:
REMARK  status: ('A' for Active; 'I' for Inactive)
REMARK    1  A    between atoms: C2_2  and  C17_20 
REMARK    2  A    between atoms: C3_3  and  C4_4 
REMARK    3  A    between atoms: C5_5  and  C6_6 
REMARK    4  A    between atoms: N2_10  and  C9_11 
REMARK    5  A    between atoms: C17_20  and  O1_21 
ROOT
HETATM    1  C6  UNL     1      23.648   2.095  52.038  1.00  0.00    -0.045 C 
HETATM    2  C7  UNL     1      24.873   1.662  52.309  1.00  0.00    -0.008 A 
HETATM    3  C8  UNL     1      26.018   1.969  51.459  1.00  0.00     0.148 A 
HETATM    4  N1  UNL     1      27.110   1.492  51.980  1.00  0.00    -0.187 NA
HETATM    5  N2  UNL     1      26.803   0.844  53.186  1.00  0.00    -0.278 N 
HETATM    6  C12 UNL     1      25.377   0.823  53.441  1.00  0.00     0.144 A 
HETATM    7  C13 UNL     1      24.790  -0.544  53.450  1.00  0.00     0.058 C 
HETATM    8  C14 UNL     1      23.346  -0.540  53.090  1.00  0.00    -0.028 C 
HETATM    9  C15 UNL     1      22.318   0.265  52.848  1.00  0.00    -0.026 C 
HETATM   10  C16 UNL     1      22.508   1.763  52.923  1.00  0.00     0.066 C 
ENDROOT
BRANCH   1  11
HETATM   11  C5  UNL     1      23.470   2.902  50.844  1.00  0.00     0.008 C 
HETATM   12  C4  UNL     1      22.372   2.988  50.113  1.00  0.00     0.001 C 
BRANCH  12  13
HETATM   13  C3  UNL     1      22.191   3.794  48.920  1.00  0.00     0.004 C 
HETATM   14  C2  UNL     1      22.223   3.319  47.696  1.00  0.00    -0.061 C 
HETATM   15  C1  UNL     1      22.456   1.872  47.460  1.00  0.00     0.045 C 
BRANCH  14  16
HETATM   16  C17 UNL     1      22.023   4.243  46.559  1.00  0.00     0.198 C 
BRANCH  16  17
HETATM   17  O1  UNL     1      22.149   3.515  45.365  1.00  0.00    -0.397 OA
HETATM   18  H20 UNL     1      23.043   3.092  45.412  1.00  0.00     0.209 HD
ENDBRANCH  16  17
ENDBRANCH  14  16
ENDBRANCH  12  13
ENDBRANCH   1  11
BRANCH   5  19
HETATM   19  C9  UNL     1      27.744   0.233  54.133  1.00  0.00     0.194 A 
HETATM   20  C10 UNL     1      28.549  -0.842  53.541  1.00  0.00     0.018 A 
HETATM   21  C11 UNL     1      29.707  -0.226  53.588  1.00  0.00     0.046 A 
HETATM   22  S1  UNL     1      29.169   1.302  54.319  1.00  0.00    -0.111 SA
ENDBRANCH   5  19
TORSDOF 5
ENDMDL
MODEL 7
REMARK VINA RESULT:      -7.3      3.336      4.783
REMARK  5 active torsions:
REMARK  status: ('A' for Active; 'I' for Inactive)
REMARK    1  A    between atoms: C2_2  and  C17_20 
REMARK    2  A    between atoms: C3_3  and  C4_4 
REMARK    3  A    between atoms: C5_5  and  C6_6 
REMARK    4  A    between atoms: N2_10  and  C9_11 
REMARK    5  A    between atoms: C17_20  and  O1_21 
ROOT
HETATM    1  C6  UNL     1      20.373   0.144  53.002  1.00  0.00    -0.045 C 
HETATM    2  C7  UNL     1      21.228   0.649  52.121  1.00  0.00    -0.008 A 
HETATM    3  C8  UNL     1      20.960   0.659  50.687  1.00  0.00     0.148 A 
HETATM    4  N1  UNL     1      21.916   1.271  50.052  1.00  0.00    -0.187 NA
HETATM    5  N2  UNL     1      22.878   1.711  50.974  1.00  0.00    -0.278 N 
HETATM    6  C12 UNL     1      22.569   1.282  52.323  1.00  0.00     0.144 A 
HETATM    7  C13 UNL     1      23.569   0.342  52.897  1.00  0.00     0.058 C 
HETATM    8  C14 UNL     1      22.979  -0.542  53.939  1.00  0.00    -0.028 C 
HETATM    9  C15 UNL     1      21.876  -0.750  54.649  1.00  0.00    -0.026 C 
HETATM   10  C16 UNL     1      20.678   0.150  54.451  1.00  0.00     0.066 C 
ENDROOT
BRANCH   1  11
HETATM   11  C5  UNL     1      19.132  -0.412  52.492  1.00  0.00     0.008 C 
HETATM   12  C4  UNL     1      18.150  -0.925  53.211  1.00  0.00     0.001 C 
BRANCH  12  13
HETATM   13  C3  UNL     1      16.909  -1.481  52.704  1.00  0.00     0.004 C 
HETATM   14  C2  UNL     1      16.525  -2.723  52.893  1.00  0.00    -0.061 C 
HETATM   15  C1  UNL     1      17.376  -3.661  53.667  1.00  0.00     0.045 C 
BRANCH  14  16
HETATM   16  C17 UNL     1      15.236  -3.172  52.326  1.00  0.00     0.198 C 
BRANCH  16  17
HETATM   17  O1  UNL     1      14.295  -3.253  53.365  1.00  0.00    -0.397 OA
HETATM   18  H20 UNL     1      13.967  -4.187  53.347  1.00  0.00     0.209 HD
ENDBRANCH  16  17
ENDBRANCH  14  16
ENDBRANCH  12  13
ENDBRANCH   1  11
BRANCH   5  19
HETATM   19  C9  UNL     1      24.078   2.508  50.696  1.00  0.00     0.194 A 
HETATM   20  C10 UNL     1      24.047   3.169  49.386  1.00  0.00     0.018 A 
HETATM   21  C11 UNL     1      23.960   4.402  49.826  1.00  0.00     0.046 A 
HETATM   22  S1  UNL     1      23.965   4.067  51.570  1.00  0.00    -0.111 SA
ENDBRANCH   5  19
TORSDOF 5
ENDMDL
MODEL 8
REMARK VINA RESULT:      -7.1      6.775      9.875
REMARK  5 active torsions:
REMARK  status: ('A' for Active; 'I' for Inactive)
REMARK    1  A    between atoms: C2_2  and  C17_20 
REMARK    2  A    between atoms: C3_3  and  C4_4 
REMARK    3  A    between atoms: C5_5  and  C6_6 
REMARK    4  A    between atoms: N2_10  and  C9_11 
REMARK    5  A    between atoms: C17_20  and  O1_21 
ROOT
HETATM    1  C6  UNL     1      27.010   5.678  48.856  1.00  0.00    -0.045 C 
HETATM    2  C7  UNL     1      26.219   4.794  49.452  1.00  0.00    -0.008 A 
HETATM    3  C8  UNL     1      26.572   3.384  49.573  1.00  0.00     0.148 A 
HETATM    4  N1  UNL     1      25.668   2.747  50.258  1.00  0.00    -0.187 NA
HETATM    5  N2  UNL     1      24.661   3.645  50.643  1.00  0.00    -0.278 N 
HETATM    6  C12 UNL     1      24.880   4.969  50.098  1.00  0.00     0.144 A 
HETATM    7  C13 UNL     1      23.831   5.403  49.137  1.00  0.00     0.058 C 
HETATM    8  C14 UNL     1      24.340   6.401  48.157  1.00  0.00    -0.028 C 
HETATM    9  C15 UNL     1      25.394   7.154  47.865  1.00  0.00    -0.026 C 
HETATM   10  C16 UNL     1      26.618   7.102  48.750  1.00  0.00     0.066 C 
ENDROOT
BRANCH   1  11
HETATM   11  C5  UNL     1      28.268   5.196  48.315  1.00  0.00     0.008 C 
HETATM   12  C4  UNL     1      29.425   5.833  48.337  1.00  0.00     0.001 C 
BRANCH  12  13
HETATM   13  C3  UNL     1      30.684   5.354  47.798  1.00  0.00     0.004 C 
HETATM   14  C2  UNL     1      31.835   5.432  48.428  1.00  0.00    -0.061 C 
HETATM   15  C1  UNL     1      31.909   6.038  49.780  1.00  0.00     0.045 C 
BRANCH  14  16
HETATM   16  C17 UNL     1      33.052   4.908  47.772  1.00  0.00     0.198 C 
BRANCH  16  17
HETATM   17  O1  UNL     1      33.286   3.606  48.242  1.00  0.00    -0.397 OA
HETATM   18  H20 UNL     1      32.487   3.375  48.778  1.00  0.00     0.209 HD
ENDBRANCH  16  17
ENDBRANCH  14  16
ENDBRANCH  12  13
ENDBRANCH   1  11
BRANCH   5  19
HETATM   19  C9  UNL     1      23.494   3.366  51.488  1.00  0.00     0.194 A 
HETATM   20  C10 UNL     1      22.682   2.243  51.006  1.00  0.00     0.018 A 
HETATM   21  C11 UNL     1      22.945   1.414  51.990  1.00  0.00     0.046 A 
HETATM   22  S1  UNL     1      24.023   2.460  52.939  1.00  0.00    -0.111 SA
ENDBRANCH   5  19
TORSDOF 5
ENDMDL
MODEL 9
REMARK VINA RESULT:      -7.0      4.459      7.622
REMARK  5 active torsions:
REMARK  status: ('A' for Active; 'I' for Inactive)
REMARK    1  A    between atoms: C2_2  and  C17_20 
REMARK    2  A    between atoms: C3_3  and  C4_4 
REMARK    3  A    between atoms: C5_5  and  C6_6 
REMARK    4  A    between atoms: N2_10  and  C9_11 
REMARK    5  A    between atoms: C17_20  and  O1_21 
ROOT
HETATM    1  C6  UNL     1      23.432   2.510  51.838  1.00  0.00    -0.045 C 
HETATM    2  C7  UNL     1      22.359   1.754  51.641  1.00  0.00    -0.008 A 
HETATM    3  C8  UNL     1      22.108   0.536  52.403  1.00  0.00     0.148 A 
HETATM    4  N1  UNL     1      20.960   0.023  52.071  1.00  0.00    -0.187 NA
HETATM    5  N2  UNL     1      20.361   0.824  51.088  1.00  0.00    -0.278 N 
HETATM    6  C12 UNL     1      21.222   1.915  50.680  1.00  0.00     0.144 A 
HETATM    7  C13 UNL     1      21.655   1.838  49.259  1.00  0.00     0.058 C 
HETATM    8  C14 UNL     1      22.952   2.529  49.025  1.00  0.00    -0.028 C 
HETATM    9  C15 UNL     1      23.858   3.303  49.611  1.00  0.00    -0.026 C 
HETATM   10  C16 UNL     1      23.656   3.740  51.044  1.00  0.00     0.066 C 
ENDROOT
BRANCH   1  11
HETATM   11  C5  UNL     1      24.375   2.085  52.858  1.00  0.00     0.008 C 
HETATM   12  C4  UNL     1      25.690   2.047  52.742  1.00  0.00     0.001 C 
BRANCH  12  13
HETATM   13  C3  UNL     1      26.634   1.624  53.759  1.00  0.00     0.004 C 
HETATM   14  C2  UNL     1      27.310   0.497  53.717  1.00  0.00    -0.061 C 
HETATM   15  C1  UNL     1      27.135  -0.439  52.579  1.00  0.00     0.045 C 
BRANCH  14  16
HETATM   16  C17 UNL     1      28.245   0.177  54.816  1.00  0.00     0.198 C 
BRANCH  16  17
HETATM   17  O1  UNL     1      29.045   1.304  55.064  1.00  0.00    -0.397 OA
HETATM   18  H20 UNL     1      28.457   2.082  54.895  1.00  0.00     0.209 HD
ENDBRANCH  16  17
ENDBRANCH  14  16
ENDBRANCH  12  13
ENDBRANCH   1  11
BRANCH   5  19
HETATM   19  C9  UNL     1      19.032   0.653  50.488  1.00  0.00     0.194 A 
HETATM   20  C10 UNL     1      18.123  -0.155  51.310  1.00  0.00     0.018 A 
HETATM   21  C11 UNL     1      17.287   0.807  51.625  1.00  0.00     0.046 A 
HETATM   22  S1  UNL     1      18.071   2.141  50.751  1.00  0.00    -0.111 SA
ENDBRANCH   5  19
TORSDOF 5
ENDMDL
