MODEL 1
REMARK VINA RESULT:      -8.4      0.000      0.000
REMARK  1 active torsions:
REMARK  status: ('A' for Active; 'I' for Inactive)
REMARK    1  A    between atoms: C11_13  and  N2_14 
ROOT
HETATM    1  C1  UNL     1      20.847   1.840  52.262  1.00  0.00     0.052 C 
HETATM    2  C2  UNL     1      21.757   0.781  52.830  1.00  0.00    -0.013 A 
HETATM    3  C3  UNL     1      21.189  -0.338  53.407  1.00  0.00     0.042 A 
HETATM    4 CL1  UNL     1      19.449  -0.506  53.466  1.00  0.00    -0.084 Cl
HETATM    5  C4  UNL     1      21.972  -1.333  53.939  1.00  0.00     0.025 A 
HETATM    6  C5  UNL     1      23.333  -1.177  53.881  1.00  0.00     0.016 A 
HETATM    7  C6  UNL     1      23.904  -0.046  53.298  1.00  0.00     0.001 A 
HETATM    8  C7  UNL     1      25.237   0.325  53.125  1.00  0.00    -0.003 A 
HETATM    9  C8  UNL     1      25.226   1.528  52.496  1.00  0.00     0.044 A 
HETATM   10  N1  UNL     1      23.933   1.906  52.277  1.00  0.00    -0.351 N 
HETATM   11  C9  UNL     1      23.510   3.147  51.621  1.00  0.00     0.156 C 
HETATM   12  C10 UNL     1      23.125   0.957  52.760  1.00  0.00     0.053 A 
HETATM   13  C11 UNL     1      26.332   2.386  52.064  1.00  0.00     0.158 C 
HETATM   14  C12 UNL     1      27.631   2.152  52.759  1.00  0.00     0.248 C 
HETATM   15  C13 UNL     1      28.159   0.753  52.587  1.00  0.00     0.046 C 
HETATM   16  C14 UNL     1      27.635   0.094  53.828  1.00  0.00     0.038 C 
HETATM   17  C15 UNL     1      27.624   1.179  54.870  1.00  0.00     0.276 C 
HETATM   18  N3  UNL     1      27.467   2.408  54.162  1.00  0.00     0.090 N 
HETATM   19  C16 UNL     1      26.319  -0.532  53.591  1.00  0.00     0.134 C 
HETATM   20  C17 UNL     1      26.541  -1.688  52.690  1.00  0.00     0.069 C 
HETATM   21  N4  UNL     1      26.721  -2.588  51.971  1.00  0.00    -0.197 NA
HETATM   22  H18 UNL     1      26.574   2.862  54.410  1.00  0.00     0.316 HD
ENDROOT
BRANCH  13  23
HETATM   23  N2  UNL     1      26.435   2.418  50.624  1.00  0.00    -0.419 N 
HETATM   24  H10 UNL     1      27.240   2.939  50.257  1.00  0.00     0.150 HD
HETATM   25  H11 UNL     1      26.200   1.529  50.156  1.00  0.00     0.150 HD
ENDBRANCH  13  23
TORSDOF 1
ENDMDL
MODEL 2
REMARK VINA RESULT:      -8.4      4.538      6.951
REMARK  1 active torsions:
REMARK  status: ('A' for Active; 'I' for Inactive)
REMARK    1  A    between atoms: C11_13  and  N2_14 
ROOT
HETATM    1  C1  UNL     1      26.091   8.553  49.030  1.00  0.00     0.052 C 
HETATM    2  C2  UNL     1      26.478   7.097  49.021  1.00  0.00    -0.013 A 
HETATM    3  C3  UNL     1      27.546   6.702  48.239  1.00  0.00     0.042 A 
HETATM    4 CL1  UNL     1      28.420   7.881  47.288  1.00  0.00    -0.084 Cl
HETATM    5  C4  UNL     1      27.941   5.386  48.195  1.00  0.00     0.025 A 
HETATM    6  C5  UNL     1      27.239   4.482  48.949  1.00  0.00     0.016 A 
HETATM    7  C6  UNL     1      26.160   4.883  49.737  1.00  0.00     0.001 A 
HETATM    8  C7  UNL     1      25.313   4.157  50.573  1.00  0.00    -0.003 A 
HETATM    9  C8  UNL     1      24.432   5.047  51.100  1.00  0.00     0.044 A 
HETATM   10  N1  UNL     1      24.711   6.293  50.614  1.00  0.00    -0.351 N 
HETATM   11  C9  UNL     1      23.981   7.519  50.950  1.00  0.00     0.156 C 
HETATM   12  C10 UNL     1      25.758   6.202  49.788  1.00  0.00     0.053 A 
HETATM   13  C11 UNL     1      23.324   4.849  52.037  1.00  0.00     0.158 C 
HETATM   14  C12 UNL     1      22.797   3.456  52.116  1.00  0.00     0.248 C 
HETATM   15  C13 UNL     1      23.829   2.448  52.545  1.00  0.00     0.046 C 
HETATM   16  C14 UNL     1      24.311   1.948  51.215  1.00  0.00     0.038 C 
HETATM   17  C15 UNL     1      23.110   2.024  50.312  1.00  0.00     0.276 C 
HETATM   18  N3  UNL     1      22.289   3.071  50.829  1.00  0.00     0.090 N 
HETATM   19  C16 UNL     1      25.476   2.720  50.740  1.00  0.00     0.134 C 
HETATM   20  C17 UNL     1      26.613   2.389  51.632  1.00  0.00     0.069 C 
HETATM   21  N4  UNL     1      27.500   2.134  52.346  1.00  0.00    -0.197 NA
HETATM   22  H18 UNL     1      22.214   3.846  50.153  1.00  0.00     0.316 HD
ENDROOT
BRANCH  13  23
HETATM   23  N2  UNL     1      23.618   5.440  53.322  1.00  0.00    -0.419 N 
HETATM   24  H10 UNL     1      22.884   5.321  54.031  1.00  0.00     0.150 HD
HETATM   25  H11 UNL     1      24.594   5.327  53.634  1.00  0.00     0.150 HD
ENDBRANCH  13  23
TORSDOF 1
ENDMDL
MODEL 3
REMARK VINA RESULT:      -7.9      2.888      5.715
REMARK  1 active torsions:
REMARK  status: ('A' for Active; 'I' for Inactive)
REMARK    1  A    between atoms: C11_13  and  N2_14 
ROOT
HETATM    1  C1  UNL     1      27.487   1.910  52.603  1.00  0.00     0.052 C 
HETATM    2  C2  UNL     1      26.065   1.423  52.702  1.00  0.00    -0.013 A 
HETATM    3  C3  UNL     1      25.747   0.507  53.685  1.00  0.00     0.042 A 
HETATM    4 CL1  UNL     1      26.982  -0.062  54.786  1.00  0.00    -0.084 Cl
HETATM    5  C4  UNL     1      24.465   0.030  53.820  1.00  0.00     0.025 A 
HETATM    6  C5  UNL     1      23.516   0.491  52.945  1.00  0.00     0.016 A 
HETATM    7  C6  UNL     1      23.839   1.416  51.952  1.00  0.00     0.001 A 
HETATM    8  C7  UNL     1      23.058   2.018  50.967  1.00  0.00    -0.003 A 
HETATM    9  C8  UNL     1      23.881   2.839  50.267  1.00  0.00     0.044 A 
HETATM   10  N1  UNL     1      25.140   2.761  50.789  1.00  0.00    -0.351 N 
HETATM   11  C9  UNL     1      26.309   3.501  50.304  1.00  0.00     0.156 C 
HETATM   12  C10 UNL     1      25.124   1.899  51.811  1.00  0.00     0.053 A 
HETATM   13  C11 UNL     1      23.606   3.717  49.126  1.00  0.00     0.158 C 
HETATM   14  C12 UNL     1      22.386   3.376  48.339  1.00  0.00     0.248 C 
HETATM   15  C13 UNL     1      21.118   3.414  49.151  1.00  0.00     0.046 C 
HETATM   16  C14 UNL     1      20.989   1.974  49.548  1.00  0.00     0.038 C 
HETATM   17  C15 UNL     1      21.573   1.199  48.398  1.00  0.00     0.276 C 
HETATM   18  N3  UNL     1      22.534   2.059  47.787  1.00  0.00     0.090 N 
HETATM   19  C16 UNL     1      21.639   1.713  50.848  1.00  0.00     0.134 C 
HETATM   20  C17 UNL     1      20.832   2.400  51.884  1.00  0.00     0.069 C 
HETATM   21  N4  UNL     1      20.201   2.954  52.694  1.00  0.00    -0.197 NA
HETATM   22  H18 UNL     1      23.485   1.666  47.873  1.00  0.00     0.316 HD
ENDROOT
BRANCH  13  23
HETATM   23  N2  UNL     1      23.689   5.107  49.508  1.00  0.00    -0.419 N 
HETATM   24  H10 UNL     1      23.480   5.300  50.495  1.00  0.00     0.150 HD
HETATM   25  H11 UNL     1      24.477   5.623  49.087  1.00  0.00     0.150 HD
ENDBRANCH  13  23
TORSDOF 1
ENDMDL
MODEL 4
REMARK VINA RESULT:      -7.6      2.303      3.487
REMARK  1 active torsions:
REMARK  status: ('A' for Active; 'I' for Inactive)
REMARK    1  A    between atoms: C11_13  and  N2_14 
ROOT
HETATM    1  C1  UNL     1      18.286  -0.142  51.263  1.00  0.00     0.052 C 
HETATM    2  C2  UNL     1      19.465  -0.130  52.201  1.00  0.00    -0.013 A 
HETATM    3  C3  UNL     1      19.429  -0.939  53.320  1.00  0.00     0.042 A 
HETATM    4 CL1  UNL     1      18.035  -1.952  53.624  1.00  0.00    -0.084 Cl
HETATM    5  C4  UNL     1      20.477  -0.967  54.207  1.00  0.00     0.025 A 
HETATM    6  C5  UNL     1      21.557  -0.163  53.946  1.00  0.00     0.016 A 
HETATM    7  C6  UNL     1      21.592   0.654  52.817  1.00  0.00     0.001 A 
HETATM    8  C7  UNL     1      22.564   1.538  52.352  1.00  0.00    -0.003 A 
HETATM    9  C8  UNL     1      22.081   2.075  51.201  1.00  0.00     0.044 A 
HETATM   10  N1  UNL     1      20.848   1.549  50.946  1.00  0.00    -0.351 N 
HETATM   11  C9  UNL     1      20.005   1.880  49.793  1.00  0.00     0.156 C 
HETATM   12  C10 UNL     1      20.543   0.686  51.921  1.00  0.00     0.053 A 
HETATM   13  C11 UNL     1      22.672   3.056  50.288  1.00  0.00     0.158 C 
HETATM   14  C12 UNL     1      23.741   3.913  50.877  1.00  0.00     0.248 C 
HETATM   15  C13 UNL     1      24.920   3.132  51.392  1.00  0.00     0.046 C 
HETATM   16  C14 UNL     1      24.556   2.985  52.839  1.00  0.00     0.038 C 
HETATM   17  C15 UNL     1      23.793   4.236  53.178  1.00  0.00     0.276 C 
HETATM   18  N3  UNL     1      23.189   4.676  51.961  1.00  0.00     0.090 N 
HETATM   19  C16 UNL     1      23.808   1.735  53.082  1.00  0.00     0.134 C 
HETATM   20  C17 UNL     1      24.755   0.613  52.881  1.00  0.00     0.069 C 
HETATM   21  N4  UNL     1      25.503  -0.265  52.707  1.00  0.00    -0.197 NA
HETATM   22  H18 UNL     1      22.161   4.638  52.027  1.00  0.00     0.316 HD
ENDROOT
BRANCH  13  23
HETATM   23  N2  UNL     1      23.035   2.445  49.031  1.00  0.00    -0.419 N 
HETATM   24  H10 UNL     1      23.221   1.436  49.077  1.00  0.00     0.150 HD
HETATM   25  H11 UNL     1      22.502   2.787  48.217  1.00  0.00     0.150 HD
ENDBRANCH  13  23
TORSDOF 1
ENDMDL
MODEL 5
REMARK VINA RESULT:      -7.5      2.649      5.203
REMARK  1 active torsions:
REMARK  status: ('A' for Active; 'I' for Inactive)
REMARK    1  A    between atoms: C11_13  and  N2_14 
ROOT
HETATM    1  C1  UNL     1      22.717  -0.915  53.054  1.00  0.00     0.052 C 
HETATM    2  C2  UNL     1      23.701   0.222  52.948  1.00  0.00    -0.013 A 
HETATM    3  C3  UNL     1      24.769   0.255  53.823  1.00  0.00     0.042 A 
HETATM    4 CL1  UNL     1      24.961  -1.006  55.020  1.00  0.00    -0.084 Cl
HETATM    5  C4  UNL     1      25.696   1.268  53.770  1.00  0.00     0.025 A 
HETATM    6  C5  UNL     1      25.522   2.244  52.822  1.00  0.00     0.016 A 
HETATM    7  C6  UNL     1      24.443   2.209  51.940  1.00  0.00     0.001 A 
HETATM    8  C7  UNL     1      24.067   3.074  50.913  1.00  0.00    -0.003 A 
HETATM    9  C8  UNL     1      22.930   2.564  50.374  1.00  0.00     0.044 A 
HETATM   10  N1  UNL     1      22.596   1.417  51.035  1.00  0.00    -0.351 N 
HETATM   11  C9  UNL     1      21.432   0.576  50.744  1.00  0.00     0.156 C 
HETATM   12  C10 UNL     1      23.509   1.195  51.987  1.00  0.00     0.053 A 
HETATM   13  C11 UNL     1      22.098   3.051  49.271  1.00  0.00     0.158 C 
HETATM   14  C12 UNL     1      22.242   4.501  48.955  1.00  0.00     0.248 C 
HETATM   15  C13 UNL     1      23.642   4.894  48.564  1.00  0.00     0.046 C 
HETATM   16  C14 UNL     1      24.188   5.358  49.881  1.00  0.00     0.038 C 
HETATM   17  C15 UNL     1      23.009   5.947  50.606  1.00  0.00     0.276 C 
HETATM   18  N3  UNL     1      21.856   5.274  50.102  1.00  0.00     0.090 N 
HETATM   19  C16 UNL     1      24.856   4.258  50.605  1.00  0.00     0.134 C 
HETATM   20  C17 UNL     1      26.089   3.925  49.853  1.00  0.00     0.069 C 
HETATM   21  N4  UNL     1      27.051   3.660  49.248  1.00  0.00    -0.197 NA
HETATM   22  H18 UNL     1      21.395   4.728  50.847  1.00  0.00     0.316 HD
ENDROOT
BRANCH  13  23
HETATM   23  N2  UNL     1      22.203   2.186  48.119  1.00  0.00    -0.419 N 
HETATM   24  H10 UNL     1      22.547   2.641  47.265  1.00  0.00     0.150 HD
HETATM   25  H11 UNL     1      22.559   1.240  48.322  1.00  0.00     0.150 HD
ENDBRANCH  13  23
TORSDOF 1
ENDMDL
MODEL 6
REMARK VINA RESULT:      -7.4      2.906      6.057
REMARK  1 active torsions:
REMARK  status: ('A' for Active; 'I' for Inactive)
REMARK    1  A    between atoms: C11_13  and  N2_14 
ROOT
HETATM    1  C1  UNL     1      25.383  -0.681  54.127  1.00  0.00     0.052 C 
HETATM    2  C2  UNL     1      25.348   0.332  53.012  1.00  0.00    -0.013 A 
HETATM    3  C3  UNL     1      26.545   0.761  52.472  1.00  0.00     0.042 A 
HETATM    4 CL1  UNL     1      28.059   0.128  53.081  1.00  0.00    -0.084 Cl
HETATM    5  C4  UNL     1      26.571   1.683  51.453  1.00  0.00     0.025 A 
HETATM    6  C5  UNL     1      25.371   2.163  50.995  1.00  0.00     0.016 A 
HETATM    7  C6  UNL     1      24.164   1.729  51.542  1.00  0.00     0.001 A 
HETATM    8  C7  UNL     1      22.845   2.068  51.245  1.00  0.00    -0.003 A 
HETATM    9  C8  UNL     1      22.060   1.347  52.085  1.00  0.00     0.044 A 
HETATM   10  N1  UNL     1      22.853   0.577  52.887  1.00  0.00    -0.351 N 
HETATM   11  C9  UNL     1      22.375  -0.340  53.926  1.00  0.00     0.156 C 
HETATM   12  C10 UNL     1      24.131   0.803  52.565  1.00  0.00     0.053 A 
HETATM   13  C11 UNL     1      20.602   1.300  52.220  1.00  0.00     0.158 C 
HETATM   14  C12 UNL     1      19.873   2.485  51.684  1.00  0.00     0.248 C 
HETATM   15  C13 UNL     1      20.101   2.715  50.214  1.00  0.00     0.046 C 
HETATM   16  C14 UNL     1      21.225   3.707  50.250  1.00  0.00     0.038 C 
HETATM   17  C15 UNL     1      20.994   4.513  51.498  1.00  0.00     0.276 C 
HETATM   18  N3  UNL     1      20.291   3.658  52.400  1.00  0.00     0.090 N 
HETATM   19  C16 UNL     1      22.539   3.034  50.198  1.00  0.00     0.134 C 
HETATM   20  C17 UNL     1      22.677   2.450  48.844  1.00  0.00     0.069 C 
HETATM   21  N4  UNL     1      22.774   1.981  47.780  1.00  0.00    -0.197 NA
HETATM   22  H18 UNL     1      20.858   3.465  53.239  1.00  0.00     0.316 HD
ENDROOT
BRANCH  13  23
HETATM   23  N2  UNL     1      20.078   0.033  51.766  1.00  0.00    -0.419 N 
HETATM   24  H10 UNL     1      20.787  -0.680  51.558  1.00  0.00     0.150 HD
HETATM   25  H11 UNL     1      19.227  -0.281  52.256  1.00  0.00     0.150 HD
ENDBRANCH  13  23
TORSDOF 1
ENDMDL
MODEL 7
REMARK VINA RESULT:      -7.3      4.344      7.153
REMARK  1 active torsions:
REMARK  status: ('A' for Active; 'I' for Inactive)
REMARK    1  A    between atoms: C11_13  and  N2_14 
ROOT
HETATM    1  C1  UNL     1      25.224   7.253  48.159  1.00  0.00     0.052 C 
HETATM    2  C2  UNL     1      25.391   5.853  48.692  1.00  0.00    -0.013 A 
HETATM    3  C3  UNL     1      26.669   5.353  48.847  1.00  0.00     0.042 A 
HETATM    4 CL1  UNL     1      28.053   6.339  48.429  1.00  0.00    -0.084 Cl
HETATM    5  C4  UNL     1      26.878   4.084  49.330  1.00  0.00     0.025 A 
HETATM    6  C5  UNL     1      25.777   3.332  49.649  1.00  0.00     0.016 A 
HETATM    7  C6  UNL     1      24.488   3.838  49.491  1.00  0.00     0.001 A 
HETATM    8  C7  UNL     1      23.240   3.271  49.745  1.00  0.00    -0.003 A 
HETATM    9  C8  UNL     1      22.313   4.206  49.412  1.00  0.00     0.044 A 
HETATM   10  N1  UNL     1      22.951   5.327  48.963  1.00  0.00    -0.351 N 
HETATM   11  C9  UNL     1      22.292   6.555  48.510  1.00  0.00     0.156 C 
HETATM   12  C10 UNL     1      24.270   5.112  49.008  1.00  0.00     0.053 A 
HETATM   13  C11 UNL     1      20.851   4.160  49.471  1.00  0.00     0.158 C 
HETATM   14  C12 UNL     1      20.255   2.793  49.490  1.00  0.00     0.248 C 
HETATM   15  C13 UNL     1      20.700   1.961  50.663  1.00  0.00     0.046 C 
HETATM   16  C14 UNL     1      21.848   1.207  50.061  1.00  0.00     0.038 C 
HETATM   17  C15 UNL     1      21.474   1.017  48.616  1.00  0.00     0.276 C 
HETATM   18  N3  UNL     1      20.615   2.106  48.281  1.00  0.00     0.090 N 
HETATM   19  C16 UNL     1      23.126   1.917  50.268  1.00  0.00     0.134 C 
HETATM   20  C17 UNL     1      23.432   1.852  51.717  1.00  0.00     0.069 C 
HETATM   21  N4  UNL     1      23.659   1.809  52.860  1.00  0.00    -0.197 NA
HETATM   22  H18 UNL     1      21.048   2.707  47.563  1.00  0.00     0.316 HD
ENDROOT
BRANCH  13  23
HETATM   23  N2  UNL     1      20.344   5.035  50.503  1.00  0.00    -0.419 N 
HETATM   24  H10 UNL     1      20.699   5.998  50.468  1.00  0.00     0.150 HD
HETATM   25  H11 UNL     1      19.343   4.912  50.718  1.00  0.00     0.150 HD
ENDBRANCH  13  23
TORSDOF 1
ENDMDL
MODEL 8
REMARK VINA RESULT:      -7.0      3.111      5.305
REMARK  1 active torsions:
REMARK  status: ('A' for Active; 'I' for Inactive)
REMARK    1  A    between atoms: C11_13  and  N2_14 
ROOT
HETATM    1  C1  UNL     1      20.900   0.386  51.102  1.00  0.00     0.052 C 
HETATM    2  C2  UNL     1      22.233   1.021  51.404  1.00  0.00    -0.013 A 
HETATM    3  C3  UNL     1      23.077   0.392  52.298  1.00  0.00     0.042 A 
HETATM    4 CL1  UNL     1      22.593  -1.112  53.051  1.00  0.00    -0.084 Cl
HETATM    5  C4  UNL     1      24.303   0.927  52.609  1.00  0.00     0.025 A 
HETATM    6  C5  UNL     1      24.658   2.106  52.006  1.00  0.00     0.016 A 
HETATM    7  C6  UNL     1      23.804   2.740  51.104  1.00  0.00     0.001 A 
HETATM    8  C7  UNL     1      23.946   3.923  50.380  1.00  0.00    -0.003 A 
HETATM    9  C8  UNL     1      22.808   4.071  49.652  1.00  0.00     0.044 A 
HETATM   10  N1  UNL     1      21.975   3.020  49.907  1.00  0.00    -0.351 N 
HETATM   11  C9  UNL     1      20.651   2.822  49.311  1.00  0.00     0.156 C 
HETATM   12  C10 UNL     1      22.571   2.208  50.786  1.00  0.00     0.053 A 
HETATM   13  C11 UNL     1      22.408   5.124  48.717  1.00  0.00     0.158 C 
HETATM   14  C12 UNL     1      23.121   6.425  48.876  1.00  0.00     0.248 C 
HETATM   15  C13 UNL     1      24.611   6.317  48.696  1.00  0.00     0.046 C 
HETATM   16  C14 UNL     1      25.060   6.156  50.118  1.00  0.00     0.038 C 
HETATM   17  C15 UNL     1      24.073   6.948  50.931  1.00  0.00     0.276 C 
HETATM   18  N3  UNL     1      22.855   6.950  50.186  1.00  0.00     0.090 N 
HETATM   19  C16 UNL     1      25.151   4.731  50.496  1.00  0.00     0.134 C 
HETATM   20  C17 UNL     1      26.286   4.151  49.739  1.00  0.00     0.069 C 
HETATM   21  N4  UNL     1      27.172   3.697  49.131  1.00  0.00    -0.197 NA
HETATM   22  H18 UNL     1      22.110   6.454  50.699  1.00  0.00     0.316 HD
ENDROOT
BRANCH  13  23
HETATM   23  N2  UNL     1      22.382   4.631  47.359  1.00  0.00    -0.419 N 
HETATM   24  H10 UNL     1      22.602   3.633  47.255  1.00  0.00     0.150 HD
HETATM   25  H11 UNL     1      21.614   5.005  46.780  1.00  0.00     0.150 HD
ENDBRANCH  13  23
TORSDOF 1
ENDMDL
MODEL 9
REMARK VINA RESULT:      -6.7      7.990     10.103
REMARK  1 active torsions:
REMARK  status: ('A' for Active; 'I' for Inactive)
REMARK    1  A    between atoms: C11_13  and  N2_14 
ROOT
HETATM    1  C1  UNL     1      24.708   6.296  49.375  1.00  0.00     0.052 C 
HETATM    2  C2  UNL     1      26.155   6.233  48.957  1.00  0.00    -0.013 A 
HETATM    3  C3  UNL     1      26.778   5.001  48.919  1.00  0.00     0.042 A 
HETATM    4 CL1  UNL     1      25.890   3.555  49.348  1.00  0.00    -0.084 Cl
HETATM    5  C4  UNL     1      28.095   4.886  48.545  1.00  0.00     0.025 A 
HETATM    6  C5  UNL     1      28.768   6.034  48.214  1.00  0.00     0.016 A 
HETATM    7  C6  UNL     1      28.137   7.277  48.254  1.00  0.00     0.001 A 
HETATM    8  C7  UNL     1      28.609   8.557  47.966  1.00  0.00    -0.003 A 
HETATM    9  C8  UNL     1      27.570   9.408  48.171  1.00  0.00     0.044 A 
HETATM   10  N1  UNL     1      26.480   8.693  48.575  1.00  0.00    -0.351 N 
HETATM   11  C9  UNL     1      25.165   9.257  48.895  1.00  0.00     0.156 C 
HETATM   12  C10 UNL     1      26.815   7.400  48.628  1.00  0.00     0.053 A 
HETATM   13  C11 UNL     1      27.490  10.863  48.024  1.00  0.00     0.158 C 
HETATM   14  C12 UNL     1      28.795  11.583  48.069  1.00  0.00     0.248 C 
HETATM   15  C13 UNL     1      29.753  11.154  46.990  1.00  0.00     0.046 C 
HETATM   16  C14 UNL     1      30.558  10.118  47.716  1.00  0.00     0.038 C 
HETATM   17  C15 UNL     1      30.599  10.586  49.144  1.00  0.00     0.276 C 
HETATM   18  N3  UNL     1      29.414  11.356  49.345  1.00  0.00     0.090 N 
HETATM   19  C16 UNL     1      29.984   8.769  47.537  1.00  0.00     0.134 C 
HETATM   20  C17 UNL     1      30.190   8.391  46.118  1.00  0.00     0.069 C 
HETATM   21  N4  UNL     1      30.343   8.106  44.998  1.00  0.00    -0.197 NA
HETATM   22  H18 UNL     1      28.799  10.908  50.042  1.00  0.00     0.316 HD
ENDROOT
BRANCH  13  23
HETATM   23  N2  UNL     1      26.657  11.227  46.902  1.00  0.00    -0.419 N 
HETATM   24  H10 UNL     1      25.664  10.985  47.001  1.00  0.00     0.150 HD
HETATM   25  H11 UNL     1      26.876  12.144  46.483  1.00  0.00     0.150 HD
ENDBRANCH  13  23
TORSDOF 1
ENDMDL
