MODEL 1
REMARK VINA RESULT:      -9.0      0.000      0.000
REMARK  7 active torsions:
REMARK  status: ('A' for Active; 'I' for Inactive)
REMARK    1  A    between atoms: C1_2  and  C2_3 
REMARK       I    between atoms: C1_2  and  N2_12 
REMARK    2  A    between atoms: C2_3  and  C3_4 
REMARK    3  A    between atoms: C3_4  and  C4_5 
REMARK    4  A    between atoms: C4_5  and  N1_6 
REMARK    5  A    between atoms: N2_12  and  C10_13 
REMARK    6  A    between atoms: C15_20  and  N5_21 
REMARK    7  A    between atoms: N5_21  and  C16_22 
ROOT
HETATM    1  C10 UNL     1      21.319   1.845  52.216  1.00  0.00     0.035 A 
HETATM    2  C11 UNL     1      20.240   1.462  52.980  1.00  0.00     0.032 A 
HETATM    3  C12 UNL     1      20.435   0.517  53.958  1.00  0.00     0.035 A 
HETATM    4  C13 UNL     1      21.694  -0.005  54.131  1.00  0.00     0.072 A 
HETATM    5  N3  UNL     1      21.811  -0.934  55.113  1.00  0.00    -0.241 NA
HETATM    6  C14 UNL     1      23.039  -1.476  55.318  1.00  0.00     0.236 A 
HETATM    7  N4  UNL     1      24.108  -1.133  54.601  1.00  0.00    -0.224 NA
HETATM    8  C15 UNL     1      24.049  -0.225  53.623  1.00  0.00     0.142 A 
HETATM    9  C22 UNL     1      22.813   0.336  53.401  1.00  0.00     0.041 A 
HETATM   10  C23 UNL     1      22.551   1.286  52.439  1.00  0.00     0.047 A 
ENDROOT
BRANCH   1  11
HETATM   11  N2  UNL     1      21.027   2.828  51.232  1.00  0.00    -0.327 N 
HETATM   12  C1  UNL     1      21.280   4.220  51.316  1.00  0.00     0.222 C 
HETATM   13  O1  UNL     1      21.819   4.451  52.428  1.00  0.00    -0.273 OA
HETATM   14  H17 UNL     1      20.587   2.252  50.460  1.00  0.00     0.169 HD
BRANCH  12  15
HETATM   15  C2  UNL     1      20.803   4.867  50.042  1.00  0.00     0.105 C 
BRANCH  15  16
HETATM   16  C3  UNL     1      21.792   4.603  48.919  1.00  0.00     0.039 C 
BRANCH  16  17
HETATM   17  C4  UNL     1      23.076   5.281  49.291  1.00  0.00     0.273 C 
BRANCH  17  18
HETATM   18  N1  UNL     1      24.265   4.602  48.896  1.00  0.00     0.088 N 
HETATM   19  C5  UNL     1      25.482   5.235  49.293  1.00  0.00     0.272 C 
HETATM   20  C6  UNL     1      26.647   4.250  49.249  1.00  0.00     0.030 C 
HETATM   21  C7  UNL     1      26.507   3.199  50.314  1.00  0.00     0.003 C 
HETATM   22  C8  UNL     1      25.033   3.014  50.599  1.00  0.00     0.030 C 
HETATM   23  C9  UNL     1      24.220   3.233  49.339  1.00  0.00     0.272 C 
ENDBRANCH  17  18
ENDBRANCH  16  17
ENDBRANCH  15  16
ENDBRANCH  12  15
ENDBRANCH   1  11
BRANCH   8  24
HETATM   24  N5  UNL     1      25.134   0.173  52.842  1.00  0.00    -0.340 N 
HETATM   25  H21 UNL     1      25.018   0.677  51.940  1.00  0.00     0.167 HD
BRANCH  24  26
HETATM   26  C16 UNL     1      26.513  -0.015  53.096  1.00  0.00     0.035 A 
HETATM   27  C17 UNL     1      27.171  -1.190  52.837  1.00  0.00     0.032 A 
HETATM   28  C18 UNL     1      28.501  -1.409  53.079  1.00  0.00     0.046 A 
HETATM   29  C19 UNL     1      29.286  -0.429  53.615  1.00  0.00     0.138 A 
HETATM   30  F1  UNL     1      30.590  -0.562  53.883  1.00  0.00    -0.204 F 
HETATM   31  C20 UNL     1      28.686   0.770  53.897  1.00  0.00     0.074 A 
HETATM   32 CL1  UNL     1      29.619   2.080  54.586  1.00  0.00    -0.081 Cl
HETATM   33  C21 UNL     1      27.348   0.938  53.634  1.00  0.00     0.056 A 
ENDBRANCH  24  26
ENDBRANCH   8  24
TORSDOF 7
ENDMDL
MODEL 2
REMARK VINA RESULT:      -8.6      3.030      5.328
REMARK  7 active torsions:
REMARK  status: ('A' for Active; 'I' for Inactive)
REMARK    1  A    between atoms: C1_2  and  C2_3 
REMARK       I    between atoms: C1_2  and  N2_12 
REMARK    2  A    between atoms: C2_3  and  C3_4 
REMARK    3  A    between atoms: C3_4  and  C4_5 
REMARK    4  A    between atoms: C4_5  and  N1_6 
REMARK    5  A    between atoms: N2_12  and  C10_13 
REMARK    6  A    between atoms: C15_20  and  N5_21 
REMARK    7  A    between atoms: N5_21  and  C16_22 
ROOT
HETATM    1  C10 UNL     1      22.581  -0.768  53.810  1.00  0.00     0.035 A 
HETATM    2  C11 UNL     1      22.885  -1.397  54.996  1.00  0.00     0.032 A 
HETATM    3  C12 UNL     1      24.165  -1.289  55.484  1.00  0.00     0.035 A 
HETATM    4  C13 UNL     1      25.085  -0.559  54.769  1.00  0.00     0.072 A 
HETATM    5  N3  UNL     1      26.327  -0.498  55.310  1.00  0.00    -0.241 NA
HETATM    6  C14 UNL     1      27.267   0.213  54.637  1.00  0.00     0.236 A 
HETATM    7  N4  UNL     1      27.016   0.837  53.487  1.00  0.00    -0.224 NA
HETATM    8  C15 UNL     1      25.810   0.808  52.911  1.00  0.00     0.142 A 
HETATM    9  C22 UNL     1      24.844   0.093  53.579  1.00  0.00     0.041 A 
HETATM   10  C23 UNL     1      23.545  -0.054  53.145  1.00  0.00     0.047 A 
ENDROOT
BRANCH   1  11
HETATM   11  N2  UNL     1      21.235  -0.930  53.383  1.00  0.00    -0.327 N 
HETATM   12  C1  UNL     1      20.115  -0.159  53.782  1.00  0.00     0.222 C 
HETATM   13  O1  UNL     1      20.513   0.714  54.593  1.00  0.00    -0.273 OA
HETATM   14  H17 UNL     1      21.306  -1.750  52.717  1.00  0.00     0.169 HD
BRANCH  12  15
HETATM   15  C2  UNL     1      18.896  -0.692  53.075  1.00  0.00     0.105 C 
BRANCH  15  16
HETATM   16  C3  UNL     1      18.805  -0.108  51.676  1.00  0.00     0.039 C 
BRANCH  16  17
HETATM   17  C4  UNL     1      19.020   1.371  51.798  1.00  0.00     0.273 C 
BRANCH  17  18
HETATM   18  N1  UNL     1      19.520   2.017  50.631  1.00  0.00     0.088 N 
HETATM   19  C5  UNL     1      20.425   3.095  50.877  1.00  0.00     0.272 C 
HETATM   20  C6  UNL     1      21.245   3.412  49.631  1.00  0.00     0.030 C 
HETATM   21  C7  UNL     1      22.202   2.297  49.315  1.00  0.00     0.003 C 
HETATM   22  C8  UNL     1      21.608   1.007  49.836  1.00  0.00     0.030 C 
HETATM   23  C9  UNL     1      20.095   1.045  49.739  1.00  0.00     0.272 C 
ENDBRANCH  17  18
ENDBRANCH  16  17
ENDBRANCH  15  16
ENDBRANCH  12  15
ENDBRANCH   1  11
BRANCH   8  24
HETATM   24  N5  UNL     1      25.489   1.442  51.711  1.00  0.00    -0.340 N 
HETATM   25  H21 UNL     1      25.562   0.964  50.790  1.00  0.00     0.167 HD
BRANCH  24  26
HETATM   26  C16 UNL     1      25.033   2.766  51.512  1.00  0.00     0.035 A 
HETATM   27  C17 UNL     1      24.134   3.384  52.344  1.00  0.00     0.032 A 
HETATM   28  C18 UNL     1      23.664   4.659  52.176  1.00  0.00     0.046 A 
HETATM   29  C19 UNL     1      24.080   5.426  51.126  1.00  0.00     0.138 A 
HETATM   30  F1  UNL     1      23.670   6.678  50.890  1.00  0.00    -0.204 F 
HETATM   31  C20 UNL     1      24.979   4.864  50.257  1.00  0.00     0.074 A 
HETATM   32 CL1  UNL     1      25.564   5.778  48.884  1.00  0.00    -0.081 Cl
HETATM   33  C21 UNL     1      25.419   3.581  50.472  1.00  0.00     0.056 A 
ENDBRANCH  24  26
ENDBRANCH   8  24
TORSDOF 7
ENDMDL
MODEL 3
REMARK VINA RESULT:      -8.6      1.469      1.807
REMARK  7 active torsions:
REMARK  status: ('A' for Active; 'I' for Inactive)
REMARK    1  A    between atoms: C1_2  and  C2_3 
REMARK       I    between atoms: C1_2  and  N2_12 
REMARK    2  A    between atoms: C2_3  and  C3_4 
REMARK    3  A    between atoms: C3_4  and  C4_5 
REMARK    4  A    between atoms: C4_5  and  N1_6 
REMARK    5  A    between atoms: N2_12  and  C10_13 
REMARK    6  A    between atoms: C15_20  and  N5_21 
REMARK    7  A    between atoms: N5_21  and  C16_22 
ROOT
HETATM    1  C10 UNL     1      20.843   0.939  51.746  1.00  0.00     0.035 A 
HETATM    2  C11 UNL     1      19.794   0.359  52.422  1.00  0.00     0.032 A 
HETATM    3  C12 UNL     1      20.074  -0.418  53.520  1.00  0.00     0.035 A 
HETATM    4  C13 UNL     1      21.385  -0.584  53.895  1.00  0.00     0.072 A 
HETATM    5  N3  UNL     1      21.585  -1.365  54.986  1.00  0.00    -0.241 NA
HETATM    6  C14 UNL     1      22.867  -1.555  55.392  1.00  0.00     0.236 A 
HETATM    7  N4  UNL     1      23.911  -1.013  54.767  1.00  0.00    -0.224 NA
HETATM    8  C15 UNL     1      23.770  -0.236  53.688  1.00  0.00     0.142 A 
HETATM    9  C22 UNL     1      22.478  -0.032  53.262  1.00  0.00     0.041 A 
HETATM   10  C23 UNL     1      22.131   0.735  52.172  1.00  0.00     0.047 A 
ENDROOT
BRANCH   1  11
HETATM   11  N2  UNL     1      20.462   1.728  50.627  1.00  0.00    -0.327 N 
HETATM   12  C1  UNL     1      20.785   1.492  49.267  1.00  0.00     0.222 C 
HETATM   13  O1  UNL     1      21.479   0.446  49.209  1.00  0.00    -0.273 OA
HETATM   14  H17 UNL     1      19.898   2.503  51.078  1.00  0.00     0.169 HD
BRANCH  12  15
HETATM   15  C2  UNL     1      20.169   2.587  48.436  1.00  0.00     0.105 C 
BRANCH  15  16
HETATM   16  C3  UNL     1      20.396   3.936  49.098  1.00  0.00     0.039 C 
BRANCH  16  17
HETATM   17  C4  UNL     1      21.633   4.525  48.489  1.00  0.00     0.273 C 
BRANCH  17  18
HETATM   18  N1  UNL     1      22.639   4.928  49.415  1.00  0.00     0.088 N 
HETATM   19  C5  UNL     1      22.286   4.785  50.791  1.00  0.00     0.272 C 
HETATM   20  C6  UNL     1      23.529   4.789  51.675  1.00  0.00     0.030 C 
HETATM   21  C7  UNL     1      24.352   3.550  51.458  1.00  0.00     0.003 C 
HETATM   22  C8  UNL     1      24.116   3.074  50.041  1.00  0.00     0.030 C 
HETATM   23  C9  UNL     1      23.876   4.253  49.120  1.00  0.00     0.272 C 
ENDBRANCH  17  18
ENDBRANCH  16  17
ENDBRANCH  15  16
ENDBRANCH  12  15
ENDBRANCH   1  11
BRANCH   8  24
HETATM   24  N5  UNL     1      24.824   0.357  52.995  1.00  0.00    -0.340 N 
HETATM   25  H21 UNL     1      24.673   1.058  52.242  1.00  0.00     0.167 HD
BRANCH  24  26
HETATM   26  C16 UNL     1      26.213   0.144  53.159  1.00  0.00     0.035 A 
HETATM   27  C17 UNL     1      26.830  -1.046  52.870  1.00  0.00     0.032 A 
HETATM   28  C18 UNL     1      28.168  -1.290  53.027  1.00  0.00     0.046 A 
HETATM   29  C19 UNL     1      29.006  -0.321  53.500  1.00  0.00     0.138 A 
HETATM   30  F1  UNL     1      30.322  -0.478  53.683  1.00  0.00    -0.204 F 
HETATM   31  C20 UNL     1      28.448   0.893  53.808  1.00  0.00     0.074 A 
HETATM   32 CL1  UNL     1      29.451   2.190  54.420  1.00  0.00    -0.081 Cl
HETATM   33  C21 UNL     1      27.100   1.085  53.631  1.00  0.00     0.056 A 
ENDBRANCH  24  26
ENDBRANCH   8  24
TORSDOF 7
ENDMDL
MODEL 4
REMARK VINA RESULT:      -8.6      3.740      5.611
REMARK  7 active torsions:
REMARK  status: ('A' for Active; 'I' for Inactive)
REMARK    1  A    between atoms: C1_2  and  C2_3 
REMARK       I    between atoms: C1_2  and  N2_12 
REMARK    2  A    between atoms: C2_3  and  C3_4 
REMARK    3  A    between atoms: C3_4  and  C4_5 
REMARK    4  A    between atoms: C4_5  and  N1_6 
REMARK    5  A    between atoms: N2_12  and  C10_13 
REMARK    6  A    between atoms: C15_20  and  N5_21 
REMARK    7  A    between atoms: N5_21  and  C16_22 
ROOT
HETATM    1  C10 UNL     1      25.803   4.229  49.581  1.00  0.00     0.035 A 
HETATM    2  C11 UNL     1      24.604   4.223  48.903  1.00  0.00     0.032 A 
HETATM    3  C12 UNL     1      23.523   3.614  49.493  1.00  0.00     0.035 A 
HETATM    4  C13 UNL     1      23.683   3.036  50.731  1.00  0.00     0.072 A 
HETATM    5  N3  UNL     1      22.574   2.453  51.249  1.00  0.00    -0.241 NA
HETATM    6  C14 UNL     1      22.688   1.870  52.470  1.00  0.00     0.236 A 
HETATM    7  N4  UNL     1      23.828   1.853  53.159  1.00  0.00    -0.224 NA
HETATM    8  C15 UNL     1      24.949   2.413  52.695  1.00  0.00     0.142 A 
HETATM    9  C22 UNL     1      24.854   3.009  51.459  1.00  0.00     0.041 A 
HETATM   10  C23 UNL     1      25.897   3.635  50.814  1.00  0.00     0.047 A 
ENDROOT
BRANCH   1  11
HETATM   11  N2  UNL     1      26.864   4.883  48.900  1.00  0.00    -0.327 N 
HETATM   12  C1  UNL     1      27.112   6.277  48.846  1.00  0.00     0.222 C 
HETATM   13  O1  UNL     1      26.221   6.856  49.516  1.00  0.00    -0.273 OA
HETATM   14  H17 UNL     1      27.388   4.072  48.465  1.00  0.00     0.169 HD
BRANCH  12  15
HETATM   15  C2  UNL     1      28.343   6.508  48.008  1.00  0.00     0.105 C 
BRANCH  15  16
HETATM   16  C3  UNL     1      29.283   5.319  48.121  1.00  0.00     0.039 C 
BRANCH  16  17
HETATM   17  C4  UNL     1      30.635   5.857  48.480  1.00  0.00     0.273 C 
BRANCH  17  18
HETATM   18  N1  UNL     1      31.662   5.624  47.520  1.00  0.00     0.088 N 
HETATM   19  C5  UNL     1      32.964   6.065  47.909  1.00  0.00     0.272 C 
HETATM   20  C6  UNL     1      34.042   5.385  47.070  1.00  0.00     0.030 C 
HETATM   21  C7  UNL     1      34.127   3.918  47.385  1.00  0.00     0.003 C 
HETATM   22  C8  UNL     1      32.763   3.458  47.848  1.00  0.00     0.030 C 
HETATM   23  C9  UNL     1      31.673   4.236  47.138  1.00  0.00     0.272 C 
ENDBRANCH  17  18
ENDBRANCH  16  17
ENDBRANCH  15  16
ENDBRANCH  12  15
ENDBRANCH   1  11
BRANCH   8  24
HETATM   24  N5  UNL     1      26.169   2.427  53.371  1.00  0.00    -0.340 N 
HETATM   25  H21 UNL     1      26.485   3.239  53.938  1.00  0.00     0.167 HD
BRANCH  24  26
HETATM   26  C16 UNL     1      27.155   1.414  53.421  1.00  0.00     0.035 A 
HETATM   27  C17 UNL     1      28.449   1.644  53.815  1.00  0.00     0.032 A 
HETATM   28  C18 UNL     1      29.431   0.691  53.866  1.00  0.00     0.046 A 
HETATM   29  C19 UNL     1      29.170  -0.602  53.512  1.00  0.00     0.138 A 
HETATM   30  F1  UNL     1      30.071  -1.591  53.532  1.00  0.00    -0.204 F 
HETATM   31  C20 UNL     1      27.894  -0.896  53.108  1.00  0.00     0.074 A 
HETATM   32 CL1  UNL     1      27.475  -2.529  52.638  1.00  0.00    -0.081 Cl
HETATM   33  C21 UNL     1      26.946   0.097  53.076  1.00  0.00     0.056 A 
ENDBRANCH  24  26
ENDBRANCH   8  24
TORSDOF 7
ENDMDL
MODEL 5
REMARK VINA RESULT:      -8.3      2.132      3.923
REMARK  7 active torsions:
REMARK  status: ('A' for Active; 'I' for Inactive)
REMARK    1  A    between atoms: C1_2  and  C2_3 
REMARK       I    between atoms: C1_2  and  N2_12 
REMARK    2  A    between atoms: C2_3  and  C3_4 
REMARK    3  A    between atoms: C3_4  and  C4_5 
REMARK    4  A    between atoms: C4_5  and  N1_6 
REMARK    5  A    between atoms: N2_12  and  C10_13 
REMARK    6  A    between atoms: C15_20  and  N5_21 
REMARK    7  A    between atoms: N5_21  and  C16_22 
ROOT
HETATM    1  C10 UNL     1      24.210   3.261  49.692  1.00  0.00     0.035 A 
HETATM    2  C11 UNL     1      23.190   3.039  48.795  1.00  0.00     0.032 A 
HETATM    3  C12 UNL     1      22.221   2.121  49.121  1.00  0.00     0.035 A 
HETATM    4  C13 UNL     1      22.312   1.463  50.324  1.00  0.00     0.072 A 
HETATM    5  N3  UNL     1      21.322   0.571  50.577  1.00  0.00    -0.241 NA
HETATM    6  C14 UNL     1      21.373  -0.101  51.755  1.00  0.00     0.236 A 
HETATM    7  N4  UNL     1      22.341   0.083  52.651  1.00  0.00    -0.224 NA
HETATM    8  C15 UNL     1      23.340   0.949  52.452  1.00  0.00     0.142 A 
HETATM    9  C22 UNL     1      23.306   1.640  51.263  1.00  0.00     0.041 A 
HETATM   10  C23 UNL     1      24.243   2.571  50.878  1.00  0.00     0.047 A 
ENDROOT
BRANCH   1  11
HETATM   11  N2  UNL     1      25.164   4.228  49.276  1.00  0.00    -0.327 N 
HETATM   12  C1  UNL     1      26.575   4.095  49.288  1.00  0.00     0.222 C 
HETATM   13  O1  UNL     1      26.853   2.955  49.737  1.00  0.00    -0.273 OA
HETATM   14  H17 UNL     1      24.550   5.035  48.971  1.00  0.00     0.169 HD
BRANCH  12  15
HETATM   15  C2  UNL     1      27.177   5.371  48.760  1.00  0.00     0.105 C 
BRANCH  15  16
HETATM   16  C3  UNL     1      26.091   6.411  48.545  1.00  0.00     0.039 C 
BRANCH  16  17
HETATM   17  C4  UNL     1      26.095   7.310  49.745  1.00  0.00     0.273 C 
BRANCH  17  18
HETATM   18  N1  UNL     1      24.931   8.116  49.912  1.00  0.00     0.088 N 
HETATM   19  C5  UNL     1      24.121   8.255  48.743  1.00  0.00     0.272 C 
HETATM   20  C6  UNL     1      22.714   8.719  49.109  1.00  0.00     0.030 C 
HETATM   21  C7  UNL     1      21.968   7.646  49.853  1.00  0.00     0.003 C 
HETATM   22  C8  UNL     1      22.980   6.796  50.590  1.00  0.00     0.030 C 
HETATM   23  C9  UNL     1      24.159   7.641  51.029  1.00  0.00     0.272 C 
ENDBRANCH  17  18
ENDBRANCH  16  17
ENDBRANCH  15  16
ENDBRANCH  12  15
ENDBRANCH   1  11
BRANCH   8  24
HETATM   24  N5  UNL     1      24.378   1.183  53.352  1.00  0.00    -0.340 N 
HETATM   25  H21 UNL     1      24.278   1.821  54.168  1.00  0.00     0.167 HD
BRANCH  24  26
HETATM   26  C16 UNL     1      25.686   0.642  53.344  1.00  0.00     0.035 A 
HETATM   27  C17 UNL     1      25.981  -0.601  52.847  1.00  0.00     0.032 A 
HETATM   28  C18 UNL     1      27.232  -1.159  52.833  1.00  0.00     0.046 A 
HETATM   29  C19 UNL     1      28.307  -0.481  53.333  1.00  0.00     0.138 A 
HETATM   30  F1  UNL     1      29.558  -0.954  53.357  1.00  0.00    -0.204 F 
HETATM   31  C20 UNL     1      28.076   0.769  53.845  1.00  0.00     0.074 A 
HETATM   32 CL1  UNL     1      29.398   1.706  54.505  1.00  0.00    -0.081 Cl
HETATM   33  C21 UNL     1      26.802   1.282  53.834  1.00  0.00     0.056 A 
ENDBRANCH  24  26
ENDBRANCH   8  24
TORSDOF 7
ENDMDL
MODEL 6
REMARK VINA RESULT:      -8.3      3.092      6.555
REMARK  7 active torsions:
REMARK  status: ('A' for Active; 'I' for Inactive)
REMARK    1  A    between atoms: C1_2  and  C2_3 
REMARK       I    between atoms: C1_2  and  N2_12 
REMARK    2  A    between atoms: C2_3  and  C3_4 
REMARK    3  A    between atoms: C3_4  and  C4_5 
REMARK    4  A    between atoms: C4_5  and  N1_6 
REMARK    5  A    between atoms: N2_12  and  C10_13 
REMARK    6  A    between atoms: C15_20  and  N5_21 
REMARK    7  A    between atoms: N5_21  and  C16_22 
ROOT
HETATM    1  C10 UNL     1      22.275   1.278  50.671  1.00  0.00     0.035 A 
HETATM    2  C11 UNL     1      21.258   0.758  49.903  1.00  0.00     0.032 A 
HETATM    3  C12 UNL     1      20.917   1.411  48.743  1.00  0.00     0.035 A 
HETATM    4  C13 UNL     1      21.602   2.553  48.400  1.00  0.00     0.072 A 
HETATM    5  N3  UNL     1      21.210   3.143  47.244  1.00  0.00    -0.241 NA
HETATM    6  C14 UNL     1      21.861   4.274  46.868  1.00  0.00     0.236 A 
HETATM    7  N4  UNL     1      22.850   4.809  47.582  1.00  0.00    -0.224 NA
HETATM    8  C15 UNL     1      23.276   4.268  48.728  1.00  0.00     0.142 A 
HETATM    9  C22 UNL     1      22.628   3.122  49.125  1.00  0.00     0.041 A 
HETATM   10  C23 UNL     1      22.921   2.421  50.274  1.00  0.00     0.047 A 
ENDROOT
BRANCH   1  11
HETATM   11  N2  UNL     1      22.563   0.538  51.849  1.00  0.00    -0.327 N 
HETATM   12  C1  UNL     1      21.963   0.694  53.124  1.00  0.00     0.222 C 
HETATM   13  O1  UNL     1      21.112   1.615  53.041  1.00  0.00    -0.273 OA
HETATM   14  H17 UNL     1      23.317  -0.129  51.519  1.00  0.00     0.169 HD
BRANCH  12  15
HETATM   15  C2  UNL     1      22.582  -0.304  54.066  1.00  0.00     0.105 C 
BRANCH  15  16
HETATM   16  C3  UNL     1      23.839  -0.896  53.449  1.00  0.00     0.039 C 
BRANCH  16  17
HETATM   17  C4  UNL     1      24.985  -0.532  54.344  1.00  0.00     0.273 C 
BRANCH  17  18
HETATM   18  N1  UNL     1      26.062   0.156  53.712  1.00  0.00     0.088 N 
HETATM   19  C5  UNL     1      26.128   0.001  52.294  1.00  0.00     0.272 C 
HETATM   20  C6  UNL     1      26.982   1.099  51.666  1.00  0.00     0.030 C 
HETATM   21  C7  UNL     1      26.311   2.438  51.781  1.00  0.00     0.003 C 
HETATM   22  C8  UNL     1      25.430   2.418  53.010  1.00  0.00     0.030 C 
HETATM   23  C9  UNL     1      26.044   1.545  54.086  1.00  0.00     0.272 C 
ENDBRANCH  17  18
ENDBRANCH  16  17
ENDBRANCH  15  16
ENDBRANCH  12  15
ENDBRANCH   1  11
BRANCH   8  24
HETATM   24  N5  UNL     1      24.305   4.783  49.515  1.00  0.00    -0.340 N 
HETATM   25  H21 UNL     1      24.224   4.880  50.547  1.00  0.00     0.167 HD
BRANCH  24  26
HETATM   26  C16 UNL     1      25.576   5.248  49.103  1.00  0.00     0.035 A 
HETATM   27  C17 UNL     1      26.677   4.436  49.005  1.00  0.00     0.032 A 
HETATM   28  C18 UNL     1      27.923   4.854  48.621  1.00  0.00     0.046 A 
HETATM   29  C19 UNL     1      28.155   6.160  48.297  1.00  0.00     0.138 A 
HETATM   30  F1  UNL     1      29.340   6.648  47.914  1.00  0.00    -0.204 F 
HETATM   31  C20 UNL     1      27.093   7.023  48.375  1.00  0.00     0.074 A 
HETATM   32 CL1  UNL     1      27.303   8.714  47.978  1.00  0.00    -0.081 Cl
HETATM   33  C21 UNL     1      25.863   6.552  48.766  1.00  0.00     0.056 A 
ENDBRANCH  24  26
ENDBRANCH   8  24
TORSDOF 7
ENDMDL
MODEL 7
REMARK VINA RESULT:      -8.1      4.676      7.350
REMARK  7 active torsions:
REMARK  status: ('A' for Active; 'I' for Inactive)
REMARK    1  A    between atoms: C1_2  and  C2_3 
REMARK       I    between atoms: C1_2  and  N2_12 
REMARK    2  A    between atoms: C2_3  and  C3_4 
REMARK    3  A    between atoms: C3_4  and  C4_5 
REMARK    4  A    between atoms: C4_5  and  N1_6 
REMARK    5  A    between atoms: N2_12  and  C10_13 
REMARK    6  A    between atoms: C15_20  and  N5_21 
REMARK    7  A    between atoms: N5_21  and  C16_22 
ROOT
HETATM    1  C10 UNL     1      26.098   6.242  49.063  1.00  0.00     0.035 A 
HETATM    2  C11 UNL     1      25.253   6.834  48.151  1.00  0.00     0.032 A 
HETATM    3  C12 UNL     1      23.898   6.675  48.317  1.00  0.00     0.035 A 
HETATM    4  C13 UNL     1      23.445   5.932  49.381  1.00  0.00     0.072 A 
HETATM    5  N3  UNL     1      22.097   5.817  49.479  1.00  0.00    -0.241 NA
HETATM    6  C14 UNL     1      21.606   5.092  50.517  1.00  0.00     0.236 A 
HETATM    7  N4  UNL     1      22.387   4.503  51.421  1.00  0.00    -0.224 NA
HETATM    8  C15 UNL     1      23.721   4.585  51.371  1.00  0.00     0.142 A 
HETATM    9  C22 UNL     1      24.237   5.316  50.326  1.00  0.00     0.041 A 
HETATM   10  C23 UNL     1      25.582   5.514  50.105  1.00  0.00     0.047 A 
ENDROOT
BRANCH   1  11
HETATM   11  N2  UNL     1      27.480   6.462  48.818  1.00  0.00    -0.327 N 
HETATM   12  C1  UNL     1      28.458   5.483  48.511  1.00  0.00     0.222 C 
HETATM   13  O1  UNL     1      27.891   4.362  48.489  1.00  0.00    -0.273 OA
HETATM   14  H17 UNL     1      27.565   7.512  48.926  1.00  0.00     0.169 HD
BRANCH  12  15
HETATM   15  C2  UNL     1      29.783   6.176  48.334  1.00  0.00     0.105 C 
BRANCH  15  16
HETATM   16  C3  UNL     1      30.806   5.210  47.760  1.00  0.00     0.039 C 
BRANCH  16  17
HETATM   17  C4  UNL     1      32.072   5.983  47.542  1.00  0.00     0.273 C 
BRANCH  17  18
HETATM   18  N1  UNL     1      33.279   5.263  47.778  1.00  0.00     0.088 N 
HETATM   19  C5  UNL     1      33.135   3.843  47.827  1.00  0.00     0.272 C 
HETATM   20  C6  UNL     1      34.479   3.152  47.619  1.00  0.00     0.030 C 
HETATM   21  C7  UNL     1      34.974   3.344  46.212  1.00  0.00     0.003 C 
HETATM   22  C8  UNL     1      34.413   4.650  45.692  1.00  0.00     0.030 C 
HETATM   23  C9  UNL     1      34.280   5.654  46.820  1.00  0.00     0.272 C 
ENDBRANCH  17  18
ENDBRANCH  16  17
ENDBRANCH  15  16
ENDBRANCH  12  15
ENDBRANCH   1  11
BRANCH   8  24
HETATM   24  N5  UNL     1      24.587   3.991  52.288  1.00  0.00    -0.340 N 
HETATM   25  H21 UNL     1      25.075   4.534  53.029  1.00  0.00     0.167 HD
BRANCH  24  26
HETATM   26  C16 UNL     1      24.956   2.629  52.391  1.00  0.00     0.035 A 
HETATM   27  C17 UNL     1      26.121   2.125  51.871  1.00  0.00     0.032 A 
HETATM   28  C18 UNL     1      26.504   0.812  51.944  1.00  0.00     0.046 A 
HETATM   29  C19 UNL     1      25.716  -0.114  52.566  1.00  0.00     0.138 A 
HETATM   30  F1  UNL     1      26.017  -1.412  52.679  1.00  0.00    -0.204 F 
HETATM   31  C20 UNL     1      24.537   0.329  53.107  1.00  0.00     0.074 A 
HETATM   32 CL1  UNL     1      23.469  -0.792  53.922  1.00  0.00    -0.081 Cl
HETATM   33  C21 UNL     1      24.201   1.657  53.006  1.00  0.00     0.056 A 
ENDBRANCH  24  26
ENDBRANCH   8  24
TORSDOF 7
ENDMDL
MODEL 8
REMARK VINA RESULT:      -8.0      1.817      5.462
REMARK  7 active torsions:
REMARK  status: ('A' for Active; 'I' for Inactive)
REMARK    1  A    between atoms: C1_2  and  C2_3 
REMARK       I    between atoms: C1_2  and  N2_12 
REMARK    2  A    between atoms: C2_3  and  C3_4 
REMARK    3  A    between atoms: C3_4  and  C4_5 
REMARK    4  A    between atoms: C4_5  and  N1_6 
REMARK    5  A    between atoms: N2_12  and  C10_13 
REMARK    6  A    between atoms: C15_20  and  N5_21 
REMARK    7  A    between atoms: N5_21  and  C16_22 
ROOT
HETATM    1  C10 UNL     1      22.189   1.684  50.288  1.00  0.00     0.035 A 
HETATM    2  C11 UNL     1      21.995   2.383  49.118  1.00  0.00     0.032 A 
HETATM    3  C12 UNL     1      23.011   3.188  48.662  1.00  0.00     0.035 A 
HETATM    4  C13 UNL     1      24.173   3.263  49.391  1.00  0.00     0.072 A 
HETATM    5  N3  UNL     1      25.129   4.079  48.882  1.00  0.00    -0.241 NA
HETATM    6  C14 UNL     1      26.295   4.182  49.571  1.00  0.00     0.236 A 
HETATM    7  N4  UNL     1      26.524   3.524  50.706  1.00  0.00    -0.224 NA
HETATM    8  C15 UNL     1      25.616   2.708  51.251  1.00  0.00     0.142 A 
HETATM    9  C22 UNL     1      24.429   2.590  50.567  1.00  0.00     0.041 A 
HETATM   10  C23 UNL     1      23.374   1.801  50.969  1.00  0.00     0.047 A 
ENDROOT
BRANCH   1  11
HETATM   11  N2  UNL     1      21.090   0.874  50.682  1.00  0.00    -0.327 N 
HETATM   12  C1  UNL     1      19.938   1.288  51.395  1.00  0.00     0.222 C 
HETATM   13  O1  UNL     1      20.047   2.519  51.626  1.00  0.00    -0.273 OA
HETATM   14  H17 UNL     1      21.367  -0.079  50.311  1.00  0.00     0.169 HD
BRANCH  12  15
HETATM   15  C2  UNL     1      19.045   0.091  51.590  1.00  0.00     0.105 C 
BRANCH  15  16
HETATM   16  C3  UNL     1      18.896  -0.215  53.071  1.00  0.00     0.039 C 
BRANCH  16  17
HETATM   17  C4  UNL     1      19.826  -1.347  53.385  1.00  0.00     0.273 C 
BRANCH  17  18
HETATM   18  N1  UNL     1      20.763  -1.099  54.430  1.00  0.00     0.088 N 
HETATM   19  C5  UNL     1      21.726  -2.134  54.636  1.00  0.00     0.272 C 
HETATM   20  C6  UNL     1      22.929  -1.611  55.415  1.00  0.00     0.030 C 
HETATM   21  C7  UNL     1      23.724  -0.637  54.592  1.00  0.00     0.003 C 
HETATM   22  C8  UNL     1      22.782   0.030  53.614  1.00  0.00     0.030 C 
HETATM   23  C9  UNL     1      21.402   0.175  54.225  1.00  0.00     0.272 C 
ENDBRANCH  17  18
ENDBRANCH  16  17
ENDBRANCH  15  16
ENDBRANCH  12  15
ENDBRANCH   1  11
BRANCH   8  24
HETATM   24  N5  UNL     1      25.800   1.994  52.435  1.00  0.00    -0.340 N 
HETATM   25  H21 UNL     1      25.097   1.991  53.201  1.00  0.00     0.167 HD
BRANCH  24  26
HETATM   26  C16 UNL     1      26.900   1.188  52.811  1.00  0.00     0.035 A 
HETATM   27  C17 UNL     1      28.057   1.697  53.344  1.00  0.00     0.032 A 
HETATM   28  C18 UNL     1      29.144   0.948  53.710  1.00  0.00     0.046 A 
HETATM   29  C19 UNL     1      29.141  -0.409  53.560  1.00  0.00     0.138 A 
HETATM   30  F1  UNL     1      30.159  -1.211  53.890  1.00  0.00    -0.204 F 
HETATM   31  C20 UNL     1      28.012  -0.978  53.031  1.00  0.00     0.074 A 
HETATM   32 CL1  UNL     1      27.925  -2.712  52.805  1.00  0.00    -0.081 Cl
HETATM   33  C21 UNL     1      26.950  -0.181  52.682  1.00  0.00     0.056 A 
ENDBRANCH  24  26
ENDBRANCH   8  24
TORSDOF 7
ENDMDL
MODEL 9
REMARK VINA RESULT:      -8.0      4.084      8.060
REMARK  7 active torsions:
REMARK  status: ('A' for Active; 'I' for Inactive)
REMARK    1  A    between atoms: C1_2  and  C2_3 
REMARK       I    between atoms: C1_2  and  N2_12 
REMARK    2  A    between atoms: C2_3  and  C3_4 
REMARK    3  A    between atoms: C3_4  and  C4_5 
REMARK    4  A    between atoms: C4_5  and  N1_6 
REMARK    5  A    between atoms: N2_12  and  C10_13 
REMARK    6  A    between atoms: C15_20  and  N5_21 
REMARK    7  A    between atoms: N5_21  and  C16_22 
ROOT
HETATM    1  C10 UNL     1      24.996   4.795  49.079  1.00  0.00     0.035 A 
HETATM    2  C11 UNL     1      24.042   5.671  48.613  1.00  0.00     0.032 A 
HETATM    3  C12 UNL     1      24.458   6.867  48.078  1.00  0.00     0.035 A 
HETATM    4  C13 UNL     1      25.805   7.136  48.031  1.00  0.00     0.072 A 
HETATM    5  N3  UNL     1      26.141   8.334  47.491  1.00  0.00    -0.241 NA
HETATM    6  C14 UNL     1      27.462   8.641  47.425  1.00  0.00     0.236 A 
HETATM    7  N4  UNL     1      28.417   7.822  47.863  1.00  0.00    -0.224 NA
HETATM    8  C15 UNL     1      28.141   6.631  48.403  1.00  0.00     0.142 A 
HETATM    9  C22 UNL     1      26.808   6.302  48.479  1.00  0.00     0.041 A 
HETATM   10  C23 UNL     1      26.325   5.123  49.002  1.00  0.00     0.047 A 
ENDROOT
BRANCH   1  11
HETATM   11  N2  UNL     1      24.477   3.584  49.611  1.00  0.00    -0.327 N 
HETATM   12  C1  UNL     1      24.026   3.359  50.936  1.00  0.00     0.222 C 
HETATM   13  O1  UNL     1      24.162   4.430  51.579  1.00  0.00    -0.273 OA
HETATM   14  H17 UNL     1      24.522   2.932  48.778  1.00  0.00     0.169 HD
BRANCH  12  15
HETATM   15  C2  UNL     1      23.565   1.929  51.044  1.00  0.00     0.105 C 
BRANCH  15  16
HETATM   16  C3  UNL     1      24.205   1.263  52.251  1.00  0.00     0.039 C 
BRANCH  16  17
HETATM   17  C4  UNL     1      25.689   1.316  52.051  1.00  0.00     0.273 C 
BRANCH  17  18
HETATM   18  N1  UNL     1      26.470   0.738  53.095  1.00  0.00     0.088 N 
HETATM   19  C5  UNL     1      27.352  -0.307  52.681  1.00  0.00     0.272 C 
HETATM   20  C6  UNL     1      28.444  -0.539  53.721  1.00  0.00     0.030 C 
HETATM   21  C7  UNL     1      29.388   0.629  53.783  1.00  0.00     0.003 C 
HETATM   22  C8  UNL     1      28.626   1.870  53.373  1.00  0.00     0.030 C 
HETATM   23  C9  UNL     1      27.178   1.769  53.807  1.00  0.00     0.272 C 
ENDBRANCH  17  18
ENDBRANCH  16  17
ENDBRANCH  15  16
ENDBRANCH  12  15
ENDBRANCH   1  11
BRANCH   8  24
HETATM   24  N5  UNL     1      29.097   5.734  48.877  1.00  0.00    -0.340 N 
HETATM   25  H21 UNL     1      28.872   4.989  49.568  1.00  0.00     0.167 HD
BRANCH  24  26
HETATM   26  C16 UNL     1      30.470   5.657  48.544  1.00  0.00     0.035 A 
HETATM   27  C17 UNL     1      31.447   6.341  49.222  1.00  0.00     0.032 A 
HETATM   28  C18 UNL     1      32.782   6.299  48.921  1.00  0.00     0.046 A 
HETATM   29  C19 UNL     1      33.242   5.539  47.883  1.00  0.00     0.138 A 
HETATM   30  F1  UNL     1      34.527   5.444  47.523  1.00  0.00    -0.204 F 
HETATM   31  C20 UNL     1      32.313   4.831  47.166  1.00  0.00     0.074 A 
HETATM   32 CL1  UNL     1      32.817   3.833  45.820  1.00  0.00    -0.081 Cl
HETATM   33  C21 UNL     1      30.986   4.909  47.510  1.00  0.00     0.056 A 
ENDBRANCH  24  26
ENDBRANCH   8  24
TORSDOF 7
ENDMDL
