MODEL 1
REMARK VINA RESULT:      -8.5      0.000      0.000
REMARK  7 active torsions:
REMARK  status: ('A' for Active; 'I' for Inactive)
REMARK    1  A    between atoms: C2_2  and  O1_4 
REMARK    2  A    between atoms: O1_4  and  C4_5 
REMARK    3  A    between atoms: C6_7  and  O2_8 
REMARK    4  A    between atoms: O2_8  and  C7_9 
REMARK    5  A    between atoms: C7_9  and  C8_10 
REMARK    6  A    between atoms: C10_13  and  N1_14 
REMARK    7  A    between atoms: N1_14  and  C11_15 
ROOT
HETATM    1  C11 UNL     1      26.148  -0.049  52.950  1.00  0.00     0.035 A 
HETATM    2  C12 UNL     1      26.794  -1.262  52.682  1.00  0.00     0.032 A 
HETATM    3  C13 UNL     1      28.097  -1.558  52.979  1.00  0.00     0.046 A 
HETATM    4  C14 UNL     1      28.857  -0.590  53.599  1.00  0.00     0.137 A 
HETATM    5  F1  UNL     1      30.138  -0.900  53.884  1.00  0.00    -0.204 F 
HETATM    6  C15 UNL     1      28.288   0.630  53.895  1.00  0.00     0.085 A 
HETATM    7  C16 UNL     1      29.167   1.570  54.542  1.00  0.00     0.102 C 
HETATM    8  N2  UNL     1      29.865   2.338  55.055  1.00  0.00    -0.191 NA
HETATM    9  C17 UNL     1      26.973   0.880  53.575  1.00  0.00     0.055 A 
ENDROOT
BRANCH   1  10
HETATM   10  N1  UNL     1      24.794   0.292  52.671  1.00  0.00    -0.340 N 
HETATM   11  H12 UNL     1      24.928   0.929  51.871  1.00  0.00     0.167 HD
BRANCH  10  12
HETATM   12  C10 UNL     1      23.724  -0.227  53.418  1.00  0.00     0.144 A 
HETATM   13  C9  UNL     1      22.397  -0.087  53.096  1.00  0.00     0.072 A 
HETATM   14  C6  UNL     1      22.040   0.590  51.959  1.00  0.00     0.088 A 
HETATM   15  C19 UNL     1      21.419  -0.620  53.909  1.00  0.00     0.077 A 
HETATM   16  C5  UNL     1      20.682   0.687  51.709  1.00  0.00     0.074 A 
HETATM   17  C4  UNL     1      19.686   0.163  52.508  1.00  0.00     0.074 A 
HETATM   18  C20 UNL     1      20.088  -0.510  53.641  1.00  0.00     0.069 A 
HETATM   19  N4  UNL     1      21.759  -1.290  55.038  1.00  0.00    -0.241 NA
HETATM   20  C18 UNL     1      23.060  -1.421  55.343  1.00  0.00     0.236 A 
HETATM   21  N3  UNL     1      23.998  -0.899  54.546  1.00  0.00    -0.223 NA
BRANCH  14  22
HETATM   22  O2  UNL     1      22.943   1.157  51.084  1.00  0.00    -0.343 OA
BRANCH  22  23
HETATM   23  C7  UNL     1      22.700   2.451  50.588  1.00  0.00     0.245 C 
BRANCH  23  24
HETATM   24  C8  UNL     1      23.411   3.500  51.357  1.00  0.00     0.257 C 
HETATM   25  O3  UNL     1      24.456   3.113  51.898  1.00  0.00    -0.305 OA
ENDBRANCH  23  24
ENDBRANCH  22  23
ENDBRANCH  14  22
BRANCH  17  26
HETATM   26  O1  UNL     1      18.378   0.348  52.119  1.00  0.00    -0.346 OA
BRANCH  26  27
HETATM   27  C2  UNL     1      17.541  -0.578  51.508  1.00  0.00     0.120 C 
HETATM   28  C1  UNL     1      16.318  -0.723  52.427  1.00  0.00     0.040 C 
HETATM   29  C3  UNL     1      17.044  -0.176  50.158  1.00  0.00     0.040 C 
ENDBRANCH  26  27
ENDBRANCH  17  26
ENDBRANCH  10  12
ENDBRANCH   1  10
TORSDOF 7
ENDMDL
MODEL 2
REMARK VINA RESULT:      -7.9      2.172      3.982
REMARK  7 active torsions:
REMARK  status: ('A' for Active; 'I' for Inactive)
REMARK    1  A    between atoms: C2_2  and  O1_4 
REMARK    2  A    between atoms: O1_4  and  C4_5 
REMARK    3  A    between atoms: C6_7  and  O2_8 
REMARK    4  A    between atoms: O2_8  and  C7_9 
REMARK    5  A    between atoms: C7_9  and  C8_10 
REMARK    6  A    between atoms: C10_13  and  N1_14 
REMARK    7  A    between atoms: N1_14  and  C11_15 
ROOT
HETATM    1  C11 UNL     1      26.686   1.507  53.318  1.00  0.00     0.035 A 
HETATM    2  C12 UNL     1      27.866   2.198  53.616  1.00  0.00     0.032 A 
HETATM    3  C13 UNL     1      29.111   1.642  53.741  1.00  0.00     0.046 A 
HETATM    4  C14 UNL     1      29.234   0.282  53.559  1.00  0.00     0.137 A 
HETATM    5  F1  UNL     1      30.467  -0.249  53.686  1.00  0.00    -0.204 F 
HETATM    6  C15 UNL     1      28.114  -0.464  53.262  1.00  0.00     0.085 A 
HETATM    7  C16 UNL     1      28.352  -1.875  53.092  1.00  0.00     0.102 C 
HETATM    8  N2  UNL     1      28.528  -3.012  52.959  1.00  0.00    -0.191 NA
HETATM    9  C17 UNL     1      26.884   0.141  53.147  1.00  0.00     0.055 A 
ENDROOT
BRANCH   1  10
HETATM   10  N1  UNL     1      25.379   2.050  53.165  1.00  0.00    -0.340 N 
HETATM   11  H12 UNL     1      25.078   2.081  54.151  1.00  0.00     0.167 HD
BRANCH  10  12
HETATM   12  C10 UNL     1      24.850   2.384  51.906  1.00  0.00     0.144 A 
HETATM   13  C9  UNL     1      23.656   1.928  51.407  1.00  0.00     0.072 A 
HETATM   14  C6  UNL     1      22.875   1.094  52.164  1.00  0.00     0.088 A 
HETATM   15  C19 UNL     1      23.236   2.301  50.148  1.00  0.00     0.077 A 
HETATM   16  C5  UNL     1      21.688   0.680  51.586  1.00  0.00     0.074 A 
HETATM   17  C4  UNL     1      21.247   1.039  50.328  1.00  0.00     0.074 A 
HETATM   18  C20 UNL     1      22.062   1.879  49.601  1.00  0.00     0.069 A 
HETATM   19  N4  UNL     1      24.000   3.124  49.389  1.00  0.00    -0.241 NA
HETATM   20  C18 UNL     1      25.166   3.563  49.887  1.00  0.00     0.236 A 
HETATM   21  N3  UNL     1      25.562   3.194  51.109  1.00  0.00    -0.223 NA
BRANCH  14  22
HETATM   22  O2  UNL     1      23.209   0.666  53.432  1.00  0.00    -0.343 OA
BRANCH  22  23
HETATM   23  C7  UNL     1      23.081  -0.698  53.753  1.00  0.00     0.245 C 
BRANCH  23  24
HETATM   24  C8  UNL     1      22.284  -0.923  54.983  1.00  0.00     0.257 C 
HETATM   25  O3  UNL     1      21.453  -1.838  54.890  1.00  0.00    -0.305 OA
ENDBRANCH  23  24
ENDBRANCH  22  23
ENDBRANCH  14  22
BRANCH  17  26
HETATM   26  O1  UNL     1      20.039   0.538  49.897  1.00  0.00    -0.346 OA
BRANCH  26  27
HETATM   27  C2  UNL     1      18.770   1.014  50.206  1.00  0.00     0.120 C 
HETATM   28  C1  UNL     1      18.131  -0.037  51.126  1.00  0.00     0.040 C 
HETATM   29  C3  UNL     1      18.752   2.319  50.932  1.00  0.00     0.040 C 
ENDBRANCH  26  27
ENDBRANCH  17  26
ENDBRANCH  10  12
ENDBRANCH   1  10
TORSDOF 7
ENDMDL
MODEL 3
REMARK VINA RESULT:      -7.8      3.491      8.273
REMARK  7 active torsions:
REMARK  status: ('A' for Active; 'I' for Inactive)
REMARK    1  A    between atoms: C2_2  and  O1_4 
REMARK    2  A    between atoms: O1_4  and  C4_5 
REMARK    3  A    between atoms: C6_7  and  O2_8 
REMARK    4  A    between atoms: O2_8  and  C7_9 
REMARK    5  A    between atoms: C7_9  and  C8_10 
REMARK    6  A    between atoms: C10_13  and  N1_14 
REMARK    7  A    between atoms: N1_14  and  C11_15 
ROOT
HETATM    1  C11 UNL     1      20.766   1.590  51.796  1.00  0.00     0.035 A 
HETATM    2  C12 UNL     1      20.449   1.761  50.443  1.00  0.00     0.032 A 
HETATM    3  C13 UNL     1      19.399   1.177  49.786  1.00  0.00     0.046 A 
HETATM    4  C14 UNL     1      18.567   0.346  50.503  1.00  0.00     0.137 A 
HETATM    5  F1  UNL     1      17.539  -0.220  49.839  1.00  0.00    -0.204 F 
HETATM    6  C15 UNL     1      18.817   0.130  51.841  1.00  0.00     0.085 A 
HETATM    7  C16 UNL     1      17.889  -0.755  52.497  1.00  0.00     0.102 C 
HETATM    8  N2  UNL     1      17.155  -1.470  53.036  1.00  0.00    -0.191 NA
HETATM    9  C17 UNL     1      19.886   0.740  52.457  1.00  0.00     0.055 A 
ENDROOT
BRANCH   1  10
HETATM   10  N1  UNL     1      21.836   2.189  52.518  1.00  0.00    -0.340 N 
HETATM   11  H12 UNL     1      21.395   2.295  53.444  1.00  0.00     0.167 HD
BRANCH  10  12
HETATM   12  C10 UNL     1      23.078   2.466  51.921  1.00  0.00     0.144 A 
HETATM   13  C9  UNL     1      24.222   1.729  52.103  1.00  0.00     0.072 A 
HETATM   14  C6  UNL     1      24.196   0.620  52.908  1.00  0.00     0.088 A 
HETATM   15  C19 UNL     1      25.398   2.098  51.485  1.00  0.00     0.077 A 
HETATM   16  C5  UNL     1      25.392  -0.064  53.039  1.00  0.00     0.074 A 
HETATM   17  C4  UNL     1      26.581   0.286  52.431  1.00  0.00     0.074 A 
HETATM   18  C20 UNL     1      26.562   1.408  51.631  1.00  0.00     0.069 A 
HETATM   19  N4  UNL     1      25.436   3.194  50.688  1.00  0.00    -0.241 NA
HETATM   20  C18 UNL     1      24.311   3.907  50.517  1.00  0.00     0.236 A 
HETATM   21  N3  UNL     1      23.178   3.539  51.122  1.00  0.00    -0.223 NA
BRANCH  14  22
HETATM   22  O2  UNL     1      23.071   0.172  53.567  1.00  0.00    -0.343 OA
BRANCH  22  23
HETATM   23  C7  UNL     1      22.661  -1.163  53.398  1.00  0.00     0.245 C 
BRANCH  23  24
HETATM   24  C8  UNL     1      21.937  -1.692  54.578  1.00  0.00     0.257 C 
HETATM   25  O3  UNL     1      22.600  -1.688  55.625  1.00  0.00    -0.305 OA
ENDBRANCH  23  24
ENDBRANCH  22  23
ENDBRANCH  14  22
BRANCH  17  26
HETATM   26  O1  UNL     1      27.686  -0.501  52.666  1.00  0.00    -0.346 OA
BRANCH  26  27
HETATM   27  C2  UNL     1      28.433  -0.580  53.835  1.00  0.00     0.120 C 
HETATM   28  C1  UNL     1      29.830  -1.066  53.420  1.00  0.00     0.040 C 
HETATM   29  C3  UNL     1      28.605   0.717  54.556  1.00  0.00     0.040 C 
ENDBRANCH  26  27
ENDBRANCH  17  26
ENDBRANCH  10  12
ENDBRANCH   1  10
TORSDOF 7
ENDMDL
MODEL 4
REMARK VINA RESULT:      -7.7      1.872      3.329
REMARK  7 active torsions:
REMARK  status: ('A' for Active; 'I' for Inactive)
REMARK    1  A    between atoms: C2_2  and  O1_4 
REMARK    2  A    between atoms: O1_4  and  C4_5 
REMARK    3  A    between atoms: C6_7  and  O2_8 
REMARK    4  A    between atoms: O2_8  and  C7_9 
REMARK    5  A    between atoms: C7_9  and  C8_10 
REMARK    6  A    between atoms: C10_13  and  N1_14 
REMARK    7  A    between atoms: N1_14  and  C11_15 
ROOT
HETATM    1  C11 UNL     1      25.310   1.021  53.016  1.00  0.00     0.035 A 
HETATM    2  C12 UNL     1      25.632  -0.264  52.563  1.00  0.00     0.032 A 
HETATM    3  C13 UNL     1      26.861  -0.861  52.655  1.00  0.00     0.046 A 
HETATM    4  C14 UNL     1      27.884  -0.152  53.245  1.00  0.00     0.137 A 
HETATM    5  F1  UNL     1      29.086  -0.756  53.327  1.00  0.00    -0.204 F 
HETATM    6  C15 UNL     1      27.640   1.120  53.716  1.00  0.00     0.085 A 
HETATM    7  C16 UNL     1      28.776   1.775  54.313  1.00  0.00     0.102 C 
HETATM    8  N2  UNL     1      29.683   2.315  54.790  1.00  0.00    -0.191 NA
HETATM    9  C17 UNL     1      26.388   1.678  53.599  1.00  0.00     0.055 A 
ENDROOT
BRANCH   1  10
HETATM   10  N1  UNL     1      24.045   1.670  52.952  1.00  0.00    -0.340 N 
HETATM   11  H12 UNL     1      23.940   1.963  53.936  1.00  0.00     0.167 HD
BRANCH  10  12
HETATM   12  C10 UNL     1      23.315   1.770  51.755  1.00  0.00     0.144 A 
HETATM   13  C9  UNL     1      22.045   1.286  51.564  1.00  0.00     0.072 A 
HETATM   14  C6  UNL     1      21.390   0.664  52.596  1.00  0.00     0.088 A 
HETATM   15  C19 UNL     1      21.422   1.417  50.341  1.00  0.00     0.077 A 
HETATM   16  C5  UNL     1      20.115   0.205  52.319  1.00  0.00     0.074 A 
HETATM   17  C4  UNL     1      19.472   0.324  51.103  1.00  0.00     0.074 A 
HETATM   18  C20 UNL     1      20.165   0.955  50.093  1.00  0.00     0.069 A 
HETATM   19  N4  UNL     1      22.060   2.028  49.312  1.00  0.00    -0.241 NA
HETATM   20  C18 UNL     1      23.302   2.498  49.510  1.00  0.00     0.236 A 
HETATM   21  N3  UNL     1      23.894   2.363  50.701  1.00  0.00    -0.223 NA
BRANCH  14  22
HETATM   22  O2  UNL     1      21.928   0.485  53.853  1.00  0.00    -0.343 OA
BRANCH  22  23
HETATM   23  C7  UNL     1      21.287  -0.380  54.759  1.00  0.00     0.245 C 
BRANCH  23  24
HETATM   24  C8  UNL     1      21.978  -1.684  54.889  1.00  0.00     0.257 C 
HETATM   25  O3  UNL     1      22.947  -1.672  55.663  1.00  0.00    -0.305 OA
ENDBRANCH  23  24
ENDBRANCH  22  23
ENDBRANCH  14  22
BRANCH  17  26
HETATM   26  O1  UNL     1      18.199  -0.189  50.989  1.00  0.00    -0.346 OA
BRANCH  26  27
HETATM   27  C2  UNL     1      17.067   0.198  51.696  1.00  0.00     0.120 C 
HETATM   28  C1  UNL     1      16.045   0.664  50.647  1.00  0.00     0.040 C 
HETATM   29  C3  UNL     1      16.428  -0.889  52.496  1.00  0.00     0.040 C 
ENDBRANCH  26  27
ENDBRANCH  17  26
ENDBRANCH  10  12
ENDBRANCH   1  10
TORSDOF 7
ENDMDL
MODEL 5
REMARK VINA RESULT:      -7.4      4.192      6.136
REMARK  7 active torsions:
REMARK  status: ('A' for Active; 'I' for Inactive)
REMARK    1  A    between atoms: C2_2  and  O1_4 
REMARK    2  A    between atoms: O1_4  and  C4_5 
REMARK    3  A    between atoms: C6_7  and  O2_8 
REMARK    4  A    between atoms: O2_8  and  C7_9 
REMARK    5  A    between atoms: C7_9  and  C8_10 
REMARK    6  A    between atoms: C10_13  and  N1_14 
REMARK    7  A    between atoms: N1_14  and  C11_15 
ROOT
HETATM    1  C11 UNL     1      25.679   5.014  50.063  1.00  0.00     0.035 A 
HETATM    2  C12 UNL     1      26.673   4.236  49.458  1.00  0.00     0.032 A 
HETATM    3  C13 UNL     1      27.649   4.697  48.615  1.00  0.00     0.046 A 
HETATM    4  C14 UNL     1      27.673   6.044  48.327  1.00  0.00     0.137 A 
HETATM    5  F1  UNL     1      28.641   6.480  47.496  1.00  0.00    -0.204 F 
HETATM    6  C15 UNL     1      26.725   6.872  48.888  1.00  0.00     0.085 A 
HETATM    7  C16 UNL     1      26.839   8.261  48.522  1.00  0.00     0.102 C 
HETATM    8  N2  UNL     1      26.914   9.380  48.231  1.00  0.00    -0.191 NA
HETATM    9  C17 UNL     1      25.763   6.361  49.729  1.00  0.00     0.055 A 
ENDROOT
BRANCH   1  10
HETATM   10  N1  UNL     1      24.659   4.576  50.954  1.00  0.00    -0.340 N 
HETATM   11  H12 UNL     1      24.975   5.024  51.828  1.00  0.00     0.167 HD
BRANCH  10  12
HETATM   12  C10 UNL     1      23.597   3.759  50.531  1.00  0.00     0.144 A 
HETATM   13  C9  UNL     1      23.212   2.589  51.137  1.00  0.00     0.072 A 
HETATM   14  C6  UNL     1      23.875   2.151  52.254  1.00  0.00     0.088 A 
HETATM   15  C19 UNL     1      22.166   1.849  50.629  1.00  0.00     0.077 A 
HETATM   16  C5  UNL     1      23.425   0.962  52.802  1.00  0.00     0.074 A 
HETATM   17  C4  UNL     1      22.381   0.204  52.311  1.00  0.00     0.074 A 
HETATM   18  C20 UNL     1      21.742   0.681  51.187  1.00  0.00     0.069 A 
HETATM   19  N4  UNL     1      21.504   2.270  49.523  1.00  0.00    -0.241 NA
HETATM   20  C18 UNL     1      21.889   3.416  48.939  1.00  0.00     0.236 A 
HETATM   21  N3  UNL     1      22.905   4.124  49.441  1.00  0.00    -0.223 NA
BRANCH  14  22
HETATM   22  O2  UNL     1      24.931   2.821  52.836  1.00  0.00    -0.343 OA
BRANCH  22  23
HETATM   23  C7  UNL     1      26.057   2.091  53.261  1.00  0.00     0.245 C 
BRANCH  23  24
HETATM   24  C8  UNL     1      26.918   1.662  52.133  1.00  0.00     0.257 C 
HETATM   25  O3  UNL     1      26.989   0.433  51.987  1.00  0.00    -0.305 OA
ENDBRANCH  23  24
ENDBRANCH  22  23
ENDBRANCH  14  22
BRANCH  17  26
HETATM   26  O1  UNL     1      22.057  -0.959  52.973  1.00  0.00    -0.346 OA
BRANCH  26  27
HETATM   27  C2  UNL     1      21.426  -1.080  54.206  1.00  0.00     0.120 C 
HETATM   28  C1  UNL     1      22.525  -1.441  55.216  1.00  0.00     0.040 C 
HETATM   29  C3  UNL     1      20.759   0.165  54.691  1.00  0.00     0.040 C 
ENDBRANCH  26  27
ENDBRANCH  17  26
ENDBRANCH  10  12
ENDBRANCH   1  10
TORSDOF 7
ENDMDL
MODEL 6
REMARK VINA RESULT:      -7.4      2.494      3.479
REMARK  7 active torsions:
REMARK  status: ('A' for Active; 'I' for Inactive)
REMARK    1  A    between atoms: C2_2  and  O1_4 
REMARK    2  A    between atoms: O1_4  and  C4_5 
REMARK    3  A    between atoms: C6_7  and  O2_8 
REMARK    4  A    between atoms: O2_8  and  C7_9 
REMARK    5  A    between atoms: C7_9  and  C8_10 
REMARK    6  A    between atoms: C10_13  and  N1_14 
REMARK    7  A    between atoms: N1_14  and  C11_15 
ROOT
HETATM    1  C11 UNL     1      26.573   1.571  53.232  1.00  0.00     0.035 A 
HETATM    2  C12 UNL     1      27.745   2.228  53.623  1.00  0.00     0.032 A 
HETATM    3  C13 UNL     1      28.966   1.640  53.818  1.00  0.00     0.046 A 
HETATM    4  C14 UNL     1      29.071   0.282  53.614  1.00  0.00     0.137 A 
HETATM    5  F1  UNL     1      30.281  -0.280  53.811  1.00  0.00    -0.204 F 
HETATM    6  C15 UNL     1      27.957  -0.432  53.228  1.00  0.00     0.085 A 
HETATM    7  C16 UNL     1      28.175  -1.844  53.043  1.00  0.00     0.102 C 
HETATM    8  N2  UNL     1      28.334  -2.982  52.898  1.00  0.00    -0.191 NA
HETATM    9  C17 UNL     1      26.751   0.205  53.046  1.00  0.00     0.055 A 
ENDROOT
BRANCH   1  10
HETATM   10  N1  UNL     1      25.291   2.147  53.005  1.00  0.00    -0.340 N 
HETATM   11  H12 UNL     1      25.516   3.147  53.125  1.00  0.00     0.167 HD
BRANCH  10  12
HETATM   12  C10 UNL     1      24.162   1.365  52.707  1.00  0.00     0.144 A 
HETATM   13  C9  UNL     1      23.318   1.572  51.644  1.00  0.00     0.072 A 
HETATM   14  C6  UNL     1      23.563   2.600  50.770  1.00  0.00     0.088 A 
HETATM   15  C19 UNL     1      22.223   0.758  51.451  1.00  0.00     0.077 A 
HETATM   16  C5  UNL     1      22.663   2.740  49.728  1.00  0.00     0.074 A 
HETATM   17  C4  UNL     1      21.560   1.937  49.515  1.00  0.00     0.074 A 
HETATM   18  C20 UNL     1      21.351   0.917  50.417  1.00  0.00     0.069 A 
HETATM   19  N4  UNL     1      21.969  -0.260  52.310  1.00  0.00    -0.241 NA
HETATM   20  C18 UNL     1      22.801  -0.454  53.345  1.00  0.00     0.236 A 
HETATM   21  N3  UNL     1      23.859   0.344  53.521  1.00  0.00    -0.223 NA
BRANCH  14  22
HETATM   22  O2  UNL     1      24.630   3.466  50.879  1.00  0.00    -0.343 OA
BRANCH  22  23
HETATM   23  C7  UNL     1      25.120   4.103  49.724  1.00  0.00     0.245 C 
BRANCH  23  24
HETATM   24  C8  UNL     1      26.588   3.961  49.573  1.00  0.00     0.257 C 
HETATM   25  O3  UNL     1      27.104   3.153  50.358  1.00  0.00    -0.305 OA
ENDBRANCH  23  24
ENDBRANCH  22  23
ENDBRANCH  14  22
BRANCH  17  26
HETATM   26  O1  UNL     1      20.759   2.211  48.429  1.00  0.00    -0.346 OA
BRANCH  26  27
HETATM   27  C2  UNL     1      20.026   3.367  48.192  1.00  0.00     0.120 C 
HETATM   28  C1  UNL     1      19.217   3.107  46.912  1.00  0.00     0.040 C 
HETATM   29  C3  UNL     1      19.057   3.725  49.271  1.00  0.00     0.040 C 
ENDBRANCH  26  27
ENDBRANCH  17  26
ENDBRANCH  10  12
ENDBRANCH   1  10
TORSDOF 7
ENDMDL
MODEL 7
REMARK VINA RESULT:      -7.2      4.128      5.997
REMARK  7 active torsions:
REMARK  status: ('A' for Active; 'I' for Inactive)
REMARK    1  A    between atoms: C2_2  and  O1_4 
REMARK    2  A    between atoms: O1_4  and  C4_5 
REMARK    3  A    between atoms: C6_7  and  O2_8 
REMARK    4  A    between atoms: O2_8  and  C7_9 
REMARK    5  A    between atoms: C7_9  and  C8_10 
REMARK    6  A    between atoms: C10_13  and  N1_14 
REMARK    7  A    between atoms: N1_14  and  C11_15 
ROOT
HETATM    1  C11 UNL     1      25.929   4.899  49.670  1.00  0.00     0.035 A 
HETATM    2  C12 UNL     1      27.053   4.656  48.872  1.00  0.00     0.032 A 
HETATM    3  C13 UNL     1      27.894   5.609  48.362  1.00  0.00     0.046 A 
HETATM    4  C14 UNL     1      27.630   6.929  48.651  1.00  0.00     0.137 A 
HETATM    5  F1  UNL     1      28.469   7.853  48.141  1.00  0.00    -0.204 F 
HETATM    6  C15 UNL     1      26.539   7.244  49.433  1.00  0.00     0.085 A 
HETATM    7  C16 UNL     1      26.352   8.653  49.674  1.00  0.00     0.102 C 
HETATM    8  N2  UNL     1      26.185   9.782  49.871  1.00  0.00    -0.191 NA
HETATM    9  C17 UNL     1      25.721   6.251  49.921  1.00  0.00     0.055 A 
ENDROOT
BRANCH   1  10
HETATM   10  N1  UNL     1      25.040   3.939  50.230  1.00  0.00    -0.340 N 
HETATM   11  H12 UNL     1      24.145   4.265  49.834  1.00  0.00     0.167 HD
BRANCH  10  12
HETATM   12  C10 UNL     1      25.488   2.905  51.069  1.00  0.00     0.144 A 
HETATM   13  C9  UNL     1      24.697   1.908  51.585  1.00  0.00     0.072 A 
HETATM   14  C6  UNL     1      23.362   1.868  51.272  1.00  0.00     0.088 A 
HETATM   15  C19 UNL     1      25.232   0.949  52.417  1.00  0.00     0.077 A 
HETATM   16  C5  UNL     1      22.636   0.833  51.836  1.00  0.00     0.074 A 
HETATM   17  C4  UNL     1      23.151  -0.137  52.672  1.00  0.00     0.074 A 
HETATM   18  C20 UNL     1      24.496  -0.060  52.959  1.00  0.00     0.069 A 
HETATM   19  N4  UNL     1      26.550   0.979  52.735  1.00  0.00    -0.241 NA
HETATM   20  C18 UNL     1      27.315   1.958  52.225  1.00  0.00     0.236 A 
HETATM   21  N3  UNL     1      26.782   2.882  51.419  1.00  0.00    -0.223 NA
BRANCH  14  22
HETATM   22  O2  UNL     1      22.736   2.781  50.450  1.00  0.00    -0.343 OA
BRANCH  22  23
HETATM   23  C7  UNL     1      21.573   3.430  50.904  1.00  0.00     0.245 C 
BRANCH  23  24
HETATM   24  C8  UNL     1      21.854   4.439  51.953  1.00  0.00     0.257 C 
HETATM   25  O3  UNL     1      21.988   5.594  51.525  1.00  0.00    -0.305 OA
ENDBRANCH  23  24
ENDBRANCH  22  23
ENDBRANCH  14  22
BRANCH  17  26
HETATM   26  O1  UNL     1      22.292  -1.101  53.151  1.00  0.00    -0.346 OA
BRANCH  26  27
HETATM   27  C2  UNL     1      21.654  -1.124  54.386  1.00  0.00     0.120 C 
HETATM   28  C1  UNL     1      22.740  -1.451  55.423  1.00  0.00     0.040 C 
HETATM   29  C3  UNL     1      21.023   0.169  54.787  1.00  0.00     0.040 C 
ENDBRANCH  26  27
ENDBRANCH  17  26
ENDBRANCH  10  12
ENDBRANCH   1  10
TORSDOF 7
ENDMDL
MODEL 8
REMARK VINA RESULT:      -7.2      3.760      7.853
REMARK  7 active torsions:
REMARK  status: ('A' for Active; 'I' for Inactive)
REMARK    1  A    between atoms: C2_2  and  O1_4 
REMARK    2  A    between atoms: O1_4  and  C4_5 
REMARK    3  A    between atoms: C6_7  and  O2_8 
REMARK    4  A    between atoms: O2_8  and  C7_9 
REMARK    5  A    between atoms: C7_9  and  C8_10 
REMARK    6  A    between atoms: C10_13  and  N1_14 
REMARK    7  A    between atoms: N1_14  and  C11_15 
ROOT
HETATM    1  C11 UNL     1      20.864   2.133  51.622  1.00  0.00     0.035 A 
HETATM    2  C12 UNL     1      20.661   1.489  50.396  1.00  0.00     0.032 A 
HETATM    3  C13 UNL     1      19.514   1.531  49.649  1.00  0.00     0.046 A 
HETATM    4  C14 UNL     1      18.454   2.268  50.129  1.00  0.00     0.137 A 
HETATM    5  F1  UNL     1      17.333   2.297  49.380  1.00  0.00    -0.204 F 
HETATM    6  C15 UNL     1      18.581   2.930  51.331  1.00  0.00     0.085 A 
HETATM    7  C16 UNL     1      17.416   3.671  51.742  1.00  0.00     0.102 C 
HETATM    8  N2  UNL     1      16.483   4.264  52.089  1.00  0.00    -0.191 NA
HETATM    9  C17 UNL     1      19.755   2.858  52.046  1.00  0.00     0.055 A 
ENDROOT
BRANCH   1  10
HETATM   10  N1  UNL     1      22.043   2.128  52.420  1.00  0.00    -0.340 N 
HETATM   11  H12 UNL     1      22.392   3.081  52.236  1.00  0.00     0.167 HD
BRANCH  10  12
HETATM   12  C10 UNL     1      22.427   1.009  53.178  1.00  0.00     0.144 A 
HETATM   13  C9  UNL     1      23.723   0.624  53.415  1.00  0.00     0.072 A 
HETATM   14  C6  UNL     1      24.757   1.367  52.907  1.00  0.00     0.088 A 
HETATM   15  C19 UNL     1      23.994  -0.505  54.157  1.00  0.00     0.077 A 
HETATM   16  C5  UNL     1      26.032   0.909  53.191  1.00  0.00     0.074 A 
HETATM   17  C4  UNL     1      26.327  -0.218  53.931  1.00  0.00     0.074 A 
HETATM   18  C20 UNL     1      25.258  -0.935  54.422  1.00  0.00     0.069 A 
HETATM   19  N4  UNL     1      22.979  -1.249  54.664  1.00  0.00    -0.241 NA
HETATM   20  C18 UNL     1      21.716  -0.864  54.426  1.00  0.00     0.236 A 
HETATM   21  N3  UNL     1      21.468   0.233  53.704  1.00  0.00    -0.223 NA
BRANCH  14  22
HETATM   22  O2  UNL     1      24.588   2.510  52.154  1.00  0.00    -0.343 OA
BRANCH  22  23
HETATM   23  C7  UNL     1      25.330   2.668  50.969  1.00  0.00     0.245 C 
BRANCH  23  24
HETATM   24  C8  UNL     1      24.498   3.130  49.832  1.00  0.00     0.257 C 
HETATM   25  O3  UNL     1      23.534   3.836  50.161  1.00  0.00    -0.305 OA
ENDBRANCH  23  24
ENDBRANCH  22  23
ENDBRANCH  14  22
BRANCH  17  26
HETATM   26  O1  UNL     1      27.652  -0.540  54.122  1.00  0.00    -0.346 OA
BRANCH  26  27
HETATM   27  C2  UNL     1      28.539  -1.054  53.184  1.00  0.00     0.120 C 
HETATM   28  C1  UNL     1      29.945  -0.661  53.662  1.00  0.00     0.040 C 
HETATM   29  C3  UNL     1      28.511  -2.541  53.046  1.00  0.00     0.040 C 
ENDBRANCH  26  27
ENDBRANCH  17  26
ENDBRANCH  10  12
ENDBRANCH   1  10
TORSDOF 7
ENDMDL
MODEL 9
REMARK VINA RESULT:      -7.1      3.831      8.330
REMARK  7 active torsions:
REMARK  status: ('A' for Active; 'I' for Inactive)
REMARK    1  A    between atoms: C2_2  and  O1_4 
REMARK    2  A    between atoms: O1_4  and  C4_5 
REMARK    3  A    between atoms: C6_7  and  O2_8 
REMARK    4  A    between atoms: O2_8  and  C7_9 
REMARK    5  A    between atoms: C7_9  and  C8_10 
REMARK    6  A    between atoms: C10_13  and  N1_14 
REMARK    7  A    between atoms: N1_14  and  C11_15 
ROOT
HETATM    1  C11 UNL     1      20.955   2.177  51.679  1.00  0.00     0.035 A 
HETATM    2  C12 UNL     1      20.080   1.153  52.063  1.00  0.00     0.032 A 
HETATM    3  C13 UNL     1      19.042   0.664  51.316  1.00  0.00     0.046 A 
HETATM    4  C14 UNL     1      18.823   1.214  50.072  1.00  0.00     0.137 A 
HETATM    5  F1  UNL     1      17.797   0.720  49.351  1.00  0.00    -0.204 F 
HETATM    6  C15 UNL     1      19.646   2.226  49.626  1.00  0.00     0.085 A 
HETATM    7  C16 UNL     1      19.331   2.731  48.313  1.00  0.00     0.102 C 
HETATM    8  N2  UNL     1      19.085   3.151  47.263  1.00  0.00    -0.191 NA
HETATM    9  C17 UNL     1      20.676   2.684  50.414  1.00  0.00     0.055 A 
ENDROOT
BRANCH   1  10
HETATM   10  N1  UNL     1      22.053   2.702  52.418  1.00  0.00    -0.340 N 
HETATM   11  H12 UNL     1      21.608   2.828  53.340  1.00  0.00     0.167 HD
BRANCH  10  12
HETATM   12  C10 UNL     1      23.316   2.904  51.837  1.00  0.00     0.144 A 
HETATM   13  C9  UNL     1      24.410   2.096  52.027  1.00  0.00     0.072 A 
HETATM   14  C6  UNL     1      24.305   0.985  52.824  1.00  0.00     0.088 A 
HETATM   15  C19 UNL     1      25.613   2.395  51.426  1.00  0.00     0.077 A 
HETATM   16  C5  UNL     1      25.454   0.227  52.964  1.00  0.00     0.074 A 
HETATM   17  C4  UNL     1      26.670   0.506  52.373  1.00  0.00     0.074 A 
HETATM   18  C20 UNL     1      26.731   1.632  51.580  1.00  0.00     0.069 A 
HETATM   19  N4  UNL     1      25.730   3.492  50.638  1.00  0.00    -0.241 NA
HETATM   20  C18 UNL     1      24.654   4.274  50.459  1.00  0.00     0.236 A 
HETATM   21  N3  UNL     1      23.493   3.974  51.048  1.00  0.00    -0.223 NA
BRANCH  14  22
HETATM   22  O2  UNL     1      23.146   0.604  53.467  1.00  0.00    -0.343 OA
BRANCH  22  23
HETATM   23  C7  UNL     1      23.077  -0.668  54.064  1.00  0.00     0.245 C 
BRANCH  23  24
HETATM   24  C8  UNL     1      21.784  -0.909  54.747  1.00  0.00     0.257 C 
HETATM   25  O3  UNL     1      21.637  -2.067  55.165  1.00  0.00    -0.305 OA
ENDBRANCH  23  24
ENDBRANCH  22  23
ENDBRANCH  14  22
BRANCH  17  26
HETATM   26  O1  UNL     1      27.720  -0.351  52.614  1.00  0.00    -0.346 OA
BRANCH  26  27
HETATM   27  C2  UNL     1      28.456  -0.473  53.787  1.00  0.00     0.120 C 
HETATM   28  C1  UNL     1      29.746  -1.217  53.407  1.00  0.00     0.040 C 
HETATM   29  C3  UNL     1      28.852   0.823  54.415  1.00  0.00     0.040 C 
ENDBRANCH  26  27
ENDBRANCH  17  26
ENDBRANCH  10  12
ENDBRANCH   1  10
TORSDOF 7
ENDMDL
