MODEL 1
REMARK VINA RESULT:      -7.8      0.000      0.000
REMARK  4 active torsions:
REMARK  status: ('A' for Active; 'I' for Inactive)
REMARK    1  A    between atoms: C4_4  and  C5_5 
REMARK    2  A    between atoms: C4_4  and  N1_8 
REMARK    3  A    between atoms: C10_12  and  N2_13 
REMARK       I    between atoms: N2_13  and  C11_14 
REMARK    4  A    between atoms: C11_14  and  C12_16 
ROOT
HETATM    1  C1  UNL     1      21.901   3.590  46.628  1.00  0.00     0.017 C 
HETATM    2  C2  UNL     1      22.057   3.126  47.750  1.00  0.00    -0.087 C 
HETATM    3  C3  UNL     1      22.244   2.598  49.072  1.00  0.00     0.094 C 
HETATM    4  C4  UNL     1      22.301   3.482  50.057  1.00  0.00     0.056 C 
ENDROOT
BRANCH   4   5
HETATM    5  C5  UNL     1      22.181   4.918  49.830  1.00  0.00     0.022 C 
HETATM    6  C6  UNL     1      21.424   5.670  50.589  1.00  0.00     0.208 C 
HETATM    7 BR1  UNL     1      21.321   7.546  50.225  1.00  0.00    -0.193 Br
ENDBRANCH   4   5
BRANCH   4   8
HETATM    8  N1  UNL     1      22.485   3.032  51.417  1.00  0.00    -0.291 N 
HETATM    9  C7  UNL     1      23.605   3.208  52.324  1.00  0.00     0.188 C 
HETATM   10  C8  UNL     1      24.047   1.864  52.706  1.00  0.00    -0.027 A 
HETATM   11  C9  UNL     1      25.353   1.436  52.696  1.00  0.00     0.039 A 
HETATM   12  C16 UNL     1      23.015   1.034  53.086  1.00  0.00    -0.013 A 
HETATM   13  C10 UNL     1      25.691   0.154  53.065  1.00  0.00     0.035 A 
HETATM   14  C14 UNL     1      24.656  -0.647  53.436  1.00  0.00     0.030 A 
HETATM   15  C15 UNL     1      23.328  -0.277  53.467  1.00  0.00     0.013 A 
HETATM   16  C17 UNL     1      21.633   1.554  53.076  1.00  0.00     0.239 C 
HETATM   17  C18 UNL     1      20.640   0.453  53.069  1.00  0.00     0.091 C 
HETATM   18  N4  UNL     1      21.402   2.319  51.887  1.00  0.00    -0.311 N 
HETATM   19  N3  UNL     1      19.856  -0.413  53.046  1.00  0.00    -0.195 NA
HETATM   20  H17 UNL     1      20.836   1.829  51.174  1.00  0.00     0.182 HD
BRANCH  13  21
HETATM   21  N2  UNL     1      27.061  -0.194  53.023  1.00  0.00    -0.327 N 
HETATM   22  C11 UNL     1      28.080   0.056  53.963  1.00  0.00     0.221 C 
HETATM   23  O1  UNL     1      27.796   0.677  55.014  1.00  0.00    -0.273 OA
HETATM   24  H8  UNL     1      27.448  -0.718  52.202  1.00  0.00     0.169 HD
BRANCH  22  25
HETATM   25  C12 UNL     1      29.498  -0.356  53.821  1.00  0.00     0.098 C 
HETATM   26  C13 UNL     1      29.573  -1.787  53.384  1.00  0.00     0.014 C 
ENDBRANCH  22  25
ENDBRANCH  13  21
ENDBRANCH   4   8
TORSDOF 4
ENDMDL
MODEL 2
REMARK VINA RESULT:      -7.7      2.190      2.666
REMARK  4 active torsions:
REMARK  status: ('A' for Active; 'I' for Inactive)
REMARK    1  A    between atoms: C4_4  and  C5_5 
REMARK    2  A    between atoms: C4_4  and  N1_8 
REMARK    3  A    between atoms: C10_12  and  N2_13 
REMARK       I    between atoms: N2_13  and  C11_14 
REMARK    4  A    between atoms: C11_14  and  C12_16 
ROOT
HETATM    1  C1  UNL     1      22.654   8.572  49.028  1.00  0.00     0.017 C 
HETATM    2  C2  UNL     1      22.432   7.741  49.900  1.00  0.00    -0.087 C 
HETATM    3  C3  UNL     1      22.182   6.755  50.914  1.00  0.00     0.094 C 
HETATM    4  C4  UNL     1      22.960   5.682  50.896  1.00  0.00     0.056 C 
ENDROOT
BRANCH   4   5
HETATM    5  C5  UNL     1      24.018   5.495  49.909  1.00  0.00     0.022 C 
HETATM    6  C6  UNL     1      25.280   5.646  50.222  1.00  0.00     0.208 C 
HETATM    7 BR1  UNL     1      26.608   5.382  48.869  1.00  0.00    -0.193 Br
ENDBRANCH   4   5
BRANCH   4   8
HETATM    8  N1  UNL     1      22.775   4.645  51.884  1.00  0.00    -0.291 N 
HETATM    9  C7  UNL     1      23.538   4.335  53.079  1.00  0.00     0.188 C 
HETATM   10  C8  UNL     1      23.996   2.950  52.932  1.00  0.00    -0.027 A 
HETATM   11  C9  UNL     1      25.284   2.524  53.151  1.00  0.00     0.039 A 
HETATM   12  C16 UNL     1      23.001   2.081  52.541  1.00  0.00    -0.013 A 
HETATM   13  C10 UNL     1      25.640   1.204  52.988  1.00  0.00     0.035 A 
HETATM   14  C14 UNL     1      24.642   0.365  52.602  1.00  0.00     0.030 A 
HETATM   15  C15 UNL     1      23.334   0.731  52.368  1.00  0.00     0.013 A 
HETATM   16  C17 UNL     1      21.637   2.601  52.323  1.00  0.00     0.239 C 
HETATM   17  C18 UNL     1      20.827   1.671  51.500  1.00  0.00     0.091 C 
HETATM   18  N4  UNL     1      21.690   3.840  51.604  1.00  0.00    -0.311 N 
HETATM   19  N3  UNL     1      20.193   0.947  50.837  1.00  0.00    -0.195 NA
HETATM   20  H17 UNL     1      21.428   3.760  50.608  1.00  0.00     0.182 HD
BRANCH  13  21
HETATM   21  N2  UNL     1      26.990   0.860  53.237  1.00  0.00    -0.327 N 
HETATM   22  C11 UNL     1      27.555   0.174  54.330  1.00  0.00     0.221 C 
HETATM   23  O1  UNL     1      26.803  -0.217  55.254  1.00  0.00    -0.273 OA
HETATM   24  H8  UNL     1      27.737   1.121  52.550  1.00  0.00     0.169 HD
BRANCH  22  25
HETATM   25  C12 UNL     1      28.996  -0.139  54.495  1.00  0.00     0.098 C 
HETATM   26  C13 UNL     1      29.453  -1.038  53.388  1.00  0.00     0.014 C 
ENDBRANCH  22  25
ENDBRANCH  13  21
ENDBRANCH   4   8
TORSDOF 4
ENDMDL
MODEL 3
REMARK VINA RESULT:      -7.7      1.785      1.939
REMARK  4 active torsions:
REMARK  status: ('A' for Active; 'I' for Inactive)
REMARK    1  A    between atoms: C4_4  and  C5_5 
REMARK    2  A    between atoms: C4_4  and  N1_8 
REMARK    3  A    between atoms: C10_12  and  N2_13 
REMARK       I    between atoms: N2_13  and  C11_14 
REMARK    4  A    between atoms: C11_14  and  C12_16 
ROOT
HETATM    1  C1  UNL     1      22.450   5.829  46.982  1.00  0.00     0.017 C 
HETATM    2  C2  UNL     1      22.307   5.332  48.092  1.00  0.00    -0.087 C 
HETATM    3  C3  UNL     1      22.154   4.743  49.392  1.00  0.00     0.094 C 
HETATM    4  C4  UNL     1      23.251   4.244  49.944  1.00  0.00     0.056 C 
ENDROOT
BRANCH   4   5
HETATM    5  C5  UNL     1      24.551   4.284  49.284  1.00  0.00     0.022 C 
HETATM    6  C6  UNL     1      25.499   5.093  49.685  1.00  0.00     0.208 C 
HETATM    7 BR1  UNL     1      27.176   5.085  48.765  1.00  0.00    -0.193 Br
ENDBRANCH   4   5
BRANCH   4   8
HETATM    8  N1  UNL     1      23.183   3.635  51.252  1.00  0.00    -0.291 N 
HETATM    9  C7  UNL     1      24.163   3.589  52.322  1.00  0.00     0.188 C 
HETATM   10  C8  UNL     1      24.412   2.171  52.597  1.00  0.00    -0.027 A 
HETATM   11  C9  UNL     1      25.658   1.604  52.719  1.00  0.00     0.039 A 
HETATM   12  C16 UNL     1      23.260   1.426  52.725  1.00  0.00    -0.013 A 
HETATM   13  C10 UNL     1      25.812   0.261  52.975  1.00  0.00     0.035 A 
HETATM   14  C14 UNL     1      24.662  -0.455  53.097  1.00  0.00     0.030 A 
HETATM   15  C15 UNL     1      23.387   0.055  52.986  1.00  0.00     0.013 A 
HETATM   16  C17 UNL     1      21.951   2.095  52.584  1.00  0.00     0.239 C 
HETATM   17  C18 UNL     1      20.872   1.118  52.305  1.00  0.00     0.091 C 
HETATM   18  N4  UNL     1      21.978   3.002  51.476  1.00  0.00    -0.311 N 
HETATM   19  N3  UNL     1      20.022   0.352  52.067  1.00  0.00    -0.195 NA
HETATM   20  H17 UNL     1      21.483   2.655  50.637  1.00  0.00     0.182 HD
BRANCH  13  21
HETATM   21  N2  UNL     1      27.135  -0.232  53.084  1.00  0.00    -0.327 N 
HETATM   22  C11 UNL     1      28.109   0.025  54.068  1.00  0.00     0.221 C 
HETATM   23  O1  UNL     1      27.827   0.797  55.014  1.00  0.00    -0.273 OA
HETATM   24  H8  UNL     1      27.514  -0.890  52.363  1.00  0.00     0.169 HD
BRANCH  22  25
HETATM   25  C12 UNL     1      29.478  -0.549  54.090  1.00  0.00     0.098 C 
HETATM   26  C13 UNL     1      29.488  -1.872  53.389  1.00  0.00     0.014 C 
ENDBRANCH  22  25
ENDBRANCH  13  21
ENDBRANCH   4   8
TORSDOF 4
ENDMDL
MODEL 4
REMARK VINA RESULT:      -7.7      5.477      7.405
REMARK  4 active torsions:
REMARK  status: ('A' for Active; 'I' for Inactive)
REMARK    1  A    between atoms: C4_4  and  C5_5 
REMARK    2  A    between atoms: C4_4  and  N1_8 
REMARK    3  A    between atoms: C10_12  and  N2_13 
REMARK       I    between atoms: N2_13  and  C11_14 
REMARK    4  A    between atoms: C11_14  and  C12_16 
ROOT
HETATM    1  C1  UNL     1      27.792   0.831  54.391  1.00  0.00     0.017 C 
HETATM    2  C2  UNL     1      27.607   1.516  53.394  1.00  0.00    -0.087 C 
HETATM    3  C3  UNL     1      27.373   2.315  52.224  1.00  0.00     0.094 C 
HETATM    4  C4  UNL     1      26.106   2.519  51.895  1.00  0.00     0.056 C 
ENDROOT
BRANCH   4   5
HETATM    5  C5  UNL     1      24.996   1.972  52.667  1.00  0.00     0.022 C 
HETATM    6  C6  UNL     1      24.160   1.108  52.146  1.00  0.00     0.208 C 
HETATM    7 BR1  UNL     1      22.730   0.437  53.226  1.00  0.00    -0.193 Br
ENDBRANCH   4   5
BRANCH   4   8
HETATM    8  N1  UNL     1      25.785   3.314  50.733  1.00  0.00    -0.291 N 
HETATM    9  C7  UNL     1      26.290   3.242  49.373  1.00  0.00     0.188 C 
HETATM   10  C8  UNL     1      26.869   4.555  49.074  1.00  0.00    -0.027 A 
HETATM   11  C9  UNL     1      28.105   4.756  48.509  1.00  0.00     0.039 A 
HETATM   12  C16 UNL     1      26.049   5.608  49.417  1.00  0.00    -0.013 A 
HETATM   13  C10 UNL     1      28.584   6.023  48.261  1.00  0.00     0.035 A 
HETATM   14  C14 UNL     1      27.757   7.046  48.609  1.00  0.00     0.030 A 
HETATM   15  C15 UNL     1      26.509   6.909  49.176  1.00  0.00     0.013 A 
HETATM   16  C17 UNL     1      24.730   5.325  50.020  1.00  0.00     0.239 C 
HETATM   17  C18 UNL     1      24.190   6.514  50.721  1.00  0.00     0.091 C 
HETATM   18  N4  UNL     1      24.849   4.290  51.004  1.00  0.00    -0.311 N 
HETATM   19  N3  UNL     1      23.769   7.445  51.289  1.00  0.00    -0.195 NA
HETATM   20  H17 UNL     1      24.817   4.632  51.979  1.00  0.00     0.182 HD
BRANCH  13  21
HETATM   21  N2  UNL     1      29.868   6.129  47.677  1.00  0.00    -0.327 N 
HETATM   22  C11 UNL     1      31.134   5.881  48.242  1.00  0.00     0.221 C 
HETATM   23  O1  UNL     1      31.202   5.508  49.437  1.00  0.00    -0.273 OA
HETATM   24  H8  UNL     1      29.971   6.431  46.679  1.00  0.00     0.169 HD
BRANCH  22  25
HETATM   25  C12 UNL     1      32.432   6.023  47.536  1.00  0.00     0.098 C 
HETATM   26  C13 UNL     1      33.440   6.656  48.444  1.00  0.00     0.014 C 
ENDBRANCH  22  25
ENDBRANCH  13  21
ENDBRANCH   4   8
TORSDOF 4
ENDMDL
MODEL 5
REMARK VINA RESULT:      -7.5      1.906      2.215
REMARK  4 active torsions:
REMARK  status: ('A' for Active; 'I' for Inactive)
REMARK    1  A    between atoms: C4_4  and  C5_5 
REMARK    2  A    between atoms: C4_4  and  N1_8 
REMARK    3  A    between atoms: C10_12  and  N2_13 
REMARK       I    between atoms: N2_13  and  C11_14 
REMARK    4  A    between atoms: C11_14  and  C12_16 
ROOT
HETATM    1  C1  UNL     1      25.587   7.000  48.167  1.00  0.00     0.017 C 
HETATM    2  C2  UNL     1      25.293   6.214  49.059  1.00  0.00    -0.087 C 
HETATM    3  C3  UNL     1      24.932   5.301  50.107  1.00  0.00     0.094 C 
HETATM    4  C4  UNL     1      23.668   5.330  50.504  1.00  0.00     0.056 C 
ENDROOT
BRANCH   4   5
HETATM    5  C5  UNL     1      22.682   6.233  49.920  1.00  0.00     0.022 C 
HETATM    6  C6  UNL     1      22.180   7.232  50.602  1.00  0.00     0.208 C 
HETATM    7 BR1  UNL     1      20.891   8.371  49.764  1.00  0.00    -0.193 Br
ENDBRANCH   4   5
BRANCH   4   8
HETATM    8  N1  UNL     1      23.225   4.442  51.552  1.00  0.00    -0.291 N 
HETATM    9  C7  UNL     1      23.738   4.239  52.895  1.00  0.00     0.188 C 
HETATM   10  C8  UNL     1      24.094   2.821  52.995  1.00  0.00    -0.027 A 
HETATM   11  C9  UNL     1      25.283   2.346  53.495  1.00  0.00     0.039 A 
HETATM   12  C16 UNL     1      23.113   1.974  52.530  1.00  0.00    -0.013 A 
HETATM   13  C10 UNL     1      25.548   0.996  53.553  1.00  0.00     0.035 A 
HETATM   14  C14 UNL     1      24.565   0.180  53.088  1.00  0.00     0.030 A 
HETATM   15  C15 UNL     1      23.355   0.594  52.576  1.00  0.00     0.013 A 
HETATM   16  C17 UNL     1      21.857   2.547  52.005  1.00  0.00     0.239 C 
HETATM   17  C18 UNL     1      21.128   1.572  51.160  1.00  0.00     0.091 C 
HETATM   18  N4  UNL     1      22.141   3.678  51.172  1.00  0.00    -0.311 N 
HETATM   19  N3  UNL     1      20.561   0.811  50.478  1.00  0.00    -0.195 NA
HETATM   20  H17 UNL     1      22.052   3.487  50.160  1.00  0.00     0.182 HD
BRANCH  13  21
HETATM   21  N2  UNL     1      26.799   0.603  54.085  1.00  0.00    -0.327 N 
HETATM   22  C11 UNL     1      28.100   0.914  53.643  1.00  0.00     0.221 C 
HETATM   23  O1  UNL     1      28.238   1.643  52.632  1.00  0.00    -0.273 OA
HETATM   24  H8  UNL     1      26.843  -0.010  54.933  1.00  0.00     0.169 HD
BRANCH  22  25
HETATM   25  C12 UNL     1      29.357   0.446  54.278  1.00  0.00     0.098 C 
HETATM   26  C13 UNL     1      29.872  -0.763  53.561  1.00  0.00     0.014 C 
ENDBRANCH  22  25
ENDBRANCH  13  21
ENDBRANCH   4   8
TORSDOF 4
ENDMDL
MODEL 6
REMARK VINA RESULT:      -7.3      3.263      5.901
REMARK  4 active torsions:
REMARK  status: ('A' for Active; 'I' for Inactive)
REMARK    1  A    between atoms: C4_4  and  C5_5 
REMARK    2  A    between atoms: C4_4  and  N1_8 
REMARK    3  A    between atoms: C10_12  and  N2_13 
REMARK       I    between atoms: N2_13  and  C11_14 
REMARK    4  A    between atoms: C11_14  and  C12_16 
ROOT
HETATM    1  C1  UNL     1      18.758  -1.281  53.248  1.00  0.00     0.017 C 
HETATM    2  C2  UNL     1      19.867  -0.902  53.603  1.00  0.00    -0.087 C 
HETATM    3  C3  UNL     1      21.173  -0.457  54.002  1.00  0.00     0.094 C 
HETATM    4  C4  UNL     1      21.964  -0.012  53.036  1.00  0.00     0.056 C 
ENDROOT
BRANCH   4   5
HETATM    5  C5  UNL     1      21.549   0.030  51.638  1.00  0.00     0.022 C 
HETATM    6  C6  UNL     1      21.403   1.165  51.002  1.00  0.00     0.208 C 
HETATM    7 BR1  UNL     1      20.855   1.136  49.168  1.00  0.00    -0.193 Br
ENDBRANCH   4   5
BRANCH   4   8
HETATM    8  N1  UNL     1      23.292   0.456  53.354  1.00  0.00    -0.291 N 
HETATM    9  C7  UNL     1      23.784   1.799  53.603  1.00  0.00     0.188 C 
HETATM   10  C8  UNL     1      24.841   2.044  52.619  1.00  0.00    -0.027 A 
HETATM   11  C9  UNL     1      24.945   3.175  51.845  1.00  0.00     0.039 A 
HETATM   12  C16 UNL     1      25.753   1.016  52.525  1.00  0.00    -0.013 A 
HETATM   13  C10 UNL     1      25.966   3.332  50.937  1.00  0.00     0.035 A 
HETATM   14  C14 UNL     1      26.854   2.305  50.861  1.00  0.00     0.030 A 
HETATM   15  C15 UNL     1      26.805   1.148  51.608  1.00  0.00     0.013 A 
HETATM   16  C17 UNL     1      25.588  -0.173  53.385  1.00  0.00     0.239 C 
HETATM   17  C18 UNL     1      26.350  -1.332  52.860  1.00  0.00     0.091 C 
HETATM   18  N4  UNL     1      24.211  -0.571  53.417  1.00  0.00    -0.311 N 
HETATM   19  N3  UNL     1      26.935  -2.251  52.439  1.00  0.00    -0.195 NA
HETATM   20  H17 UNL     1      24.001  -1.405  52.844  1.00  0.00     0.182 HD
BRANCH  13  21
HETATM   21  N2  UNL     1      25.989   4.531  50.186  1.00  0.00    -0.327 N 
HETATM   22  C11 UNL     1      25.028   5.052  49.297  1.00  0.00     0.221 C 
HETATM   23  O1  UNL     1      23.974   4.404  49.097  1.00  0.00    -0.273 OA
HETATM   24  H8  UNL     1      26.810   5.179  50.250  1.00  0.00     0.169 HD
BRANCH  22  25
HETATM   25  C12 UNL     1      25.151   6.331  48.554  1.00  0.00     0.098 C 
HETATM   26  C13 UNL     1      26.402   7.043  48.966  1.00  0.00     0.014 C 
ENDBRANCH  22  25
ENDBRANCH  13  21
ENDBRANCH   4   8
TORSDOF 4
ENDMDL
MODEL 7
REMARK VINA RESULT:      -7.3      3.556      4.852
REMARK  4 active torsions:
REMARK  status: ('A' for Active; 'I' for Inactive)
REMARK    1  A    between atoms: C4_4  and  C5_5 
REMARK    2  A    between atoms: C4_4  and  N1_8 
REMARK    3  A    between atoms: C10_12  and  N2_13 
REMARK       I    between atoms: N2_13  and  C11_14 
REMARK    4  A    between atoms: C11_14  and  C12_16 
ROOT
HETATM    1  C1  UNL     1      29.296   5.505  48.180  1.00  0.00     0.017 C 
HETATM    2  C2  UNL     1      28.199   5.125  48.569  1.00  0.00    -0.087 C 
HETATM    3  C3  UNL     1      26.908   4.698  49.029  1.00  0.00     0.094 C 
HETATM    4  C4  UNL     1      25.978   5.637  49.130  1.00  0.00     0.056 C 
ENDROOT
BRANCH   4   5
HETATM    5  C5  UNL     1      26.233   7.033  48.796  1.00  0.00     0.022 C 
HETATM    6  C6  UNL     1      26.291   7.958  49.721  1.00  0.00     0.208 C 
HETATM    7 BR1  UNL     1      26.630   9.769  49.201  1.00  0.00    -0.193 Br
ENDBRANCH   4   5
BRANCH   4   8
HETATM    8  N1  UNL     1      24.652   5.288  49.582  1.00  0.00    -0.291 N 
HETATM    9  C7  UNL     1      24.128   5.124  50.926  1.00  0.00     0.188 C 
HETATM   10  C8  UNL     1      23.605   3.757  51.006  1.00  0.00    -0.027 A 
HETATM   11  C9  UNL     1      23.869   2.876  52.027  1.00  0.00     0.039 A 
HETATM   12  C16 UNL     1      22.803   3.413  49.939  1.00  0.00    -0.013 A 
HETATM   13  C10 UNL     1      23.344   1.604  52.030  1.00  0.00     0.035 A 
HETATM   14  C14 UNL     1      22.556   1.286  50.967  1.00  0.00     0.030 A 
HETATM   15  C15 UNL     1      22.254   2.124  49.916  1.00  0.00     0.013 A 
HETATM   16  C17 UNL     1      22.557   4.406  48.875  1.00  0.00     0.239 C 
HETATM   17  C18 UNL     1      22.074   3.758  47.632  1.00  0.00     0.091 C 
HETATM   18  N4  UNL     1      23.776   5.080  48.537  1.00  0.00    -0.311 N 
HETATM   19  N3  UNL     1      21.710   3.249  46.645  1.00  0.00    -0.195 NA
HETATM   20  H17 UNL     1      24.197   4.766  47.646  1.00  0.00     0.182 HD
BRANCH  13  21
HETATM   21  N2  UNL     1      23.671   0.768  53.124  1.00  0.00    -0.327 N 
HETATM   22  C11 UNL     1      24.852   0.042  53.376  1.00  0.00     0.221 C 
HETATM   23  O1  UNL     1      25.789   0.102  52.546  1.00  0.00    -0.273 OA
HETATM   24  H8  UNL     1      22.984   0.621  53.900  1.00  0.00     0.169 HD
BRANCH  22  25
HETATM   25  C12 UNL     1      25.096  -0.811  54.565  1.00  0.00     0.098 C 
HETATM   26  C13 UNL     1      23.795  -1.163  55.218  1.00  0.00     0.014 C 
ENDBRANCH  22  25
ENDBRANCH  13  21
ENDBRANCH   4   8
TORSDOF 4
ENDMDL
MODEL 8
REMARK VINA RESULT:      -7.2      3.806      6.689
REMARK  4 active torsions:
REMARK  status: ('A' for Active; 'I' for Inactive)
REMARK    1  A    between atoms: C4_4  and  C5_5 
REMARK    2  A    between atoms: C4_4  and  N1_8 
REMARK    3  A    between atoms: C10_12  and  N2_13 
REMARK       I    between atoms: N2_13  and  C11_14 
REMARK    4  A    between atoms: C11_14  and  C12_16 
ROOT
HETATM    1  C1  UNL     1      23.044  -1.627  55.376  1.00  0.00     0.017 C 
HETATM    2  C2  UNL     1      22.618  -0.875  54.509  1.00  0.00    -0.087 C 
HETATM    3  C3  UNL     1      22.134   0.013  53.489  1.00  0.00     0.094 C 
HETATM    4  C4  UNL     1      23.054   0.617  52.751  1.00  0.00     0.056 C 
ENDROOT
BRANCH   4   5
HETATM    5  C5  UNL     1      24.483   0.404  52.947  1.00  0.00     0.022 C 
HETATM    6  C6  UNL     1      25.235   1.301  53.534  1.00  0.00     0.208 C 
HETATM    7 BR1  UNL     1      27.102   0.946  53.753  1.00  0.00    -0.193 Br
ENDBRANCH   4   5
BRANCH   4   8
HETATM    8  N1  UNL     1      22.649   1.524  51.702  1.00  0.00    -0.291 N 
HETATM    9  C7  UNL     1      23.438   2.215  50.698  1.00  0.00     0.188 C 
HETATM   10  C8  UNL     1      23.186   3.647  50.884  1.00  0.00    -0.027 A 
HETATM   11  C9  UNL     1      24.162   4.613  50.942  1.00  0.00     0.039 A 
HETATM   12  C16 UNL     1      21.849   3.959  51.002  1.00  0.00    -0.013 A 
HETATM   13  C10 UNL     1      23.848   5.940  51.124  1.00  0.00     0.035 A 
HETATM   14  C14 UNL     1      22.523   6.224  51.238  1.00  0.00     0.030 A 
HETATM   15  C15 UNL     1      21.499   5.303  51.187  1.00  0.00     0.013 A 
HETATM   16  C17 UNL     1      20.849   2.876  50.929  1.00  0.00     0.239 C 
HETATM   17  C18 UNL     1      19.550   3.298  51.506  1.00  0.00     0.091 C 
HETATM   18  N4  UNL     1      21.288   1.746  51.694  1.00  0.00    -0.311 N 
HETATM   19  N3  UNL     1      18.531   3.622  51.976  1.00  0.00    -0.195 NA
HETATM   20  H17 UNL     1      20.804   1.640  52.601  1.00  0.00     0.182 HD
BRANCH  13  21
HETATM   21  N2  UNL     1      24.921   6.861  51.171  1.00  0.00    -0.327 N 
HETATM   22  C11 UNL     1      25.544   7.568  50.124  1.00  0.00     0.221 C 
HETATM   23  O1  UNL     1      25.134   7.400  48.951  1.00  0.00    -0.273 OA
HETATM   24  H8  UNL     1      25.368   7.104  52.087  1.00  0.00     0.169 HD
BRANCH  22  25
HETATM   25  C12 UNL     1      26.671   8.520  50.283  1.00  0.00     0.098 C 
HETATM   26  C13 UNL     1      26.550   9.626  49.281  1.00  0.00     0.014 C 
ENDBRANCH  22  25
ENDBRANCH  13  21
ENDBRANCH   4   8
TORSDOF 4
ENDMDL
MODEL 9
REMARK VINA RESULT:      -7.0      3.740      6.293
REMARK  4 active torsions:
REMARK  status: ('A' for Active; 'I' for Inactive)
REMARK    1  A    between atoms: C4_4  and  C5_5 
REMARK    2  A    between atoms: C4_4  and  N1_8 
REMARK    3  A    between atoms: C10_12  and  N2_13 
REMARK       I    between atoms: N2_13  and  C11_14 
REMARK    4  A    between atoms: C11_14  and  C12_16 
ROOT
HETATM    1  C1  UNL     1      27.924   7.812  47.908  1.00  0.00     0.017 C 
HETATM    2  C2  UNL     1      27.706   6.649  48.225  1.00  0.00    -0.087 C 
HETATM    3  C3  UNL     1      27.439   5.292  48.611  1.00  0.00     0.094 C 
HETATM    4  C4  UNL     1      26.395   5.100  49.404  1.00  0.00     0.056 C 
ENDROOT
BRANCH   4   5
HETATM    5  C5  UNL     1      25.551   6.194  49.870  1.00  0.00     0.022 C 
HETATM    6  C6  UNL     1      24.246   6.085  49.909  1.00  0.00     0.208 C 
HETATM    7 BR1  UNL     1      23.210   7.567  50.534  1.00  0.00    -0.193 Br
ENDBRANCH   4   5
BRANCH   4   8
HETATM    8  N1  UNL     1      26.057   3.764  49.835  1.00  0.00    -0.291 N 
HETATM    9  C7  UNL     1      25.033   2.851  49.360  1.00  0.00     0.188 C 
HETATM   10  C8  UNL     1      24.190   2.534  50.516  1.00  0.00    -0.027 A 
HETATM   11  C9  UNL     1      22.816   2.566  50.516  1.00  0.00     0.039 A 
HETATM   12  C16 UNL     1      24.907   2.192  51.642  1.00  0.00    -0.013 A 
HETATM   13  C10 UNL     1      22.091   2.259  51.645  1.00  0.00     0.035 A 
HETATM   14  C14 UNL     1      22.820   1.925  52.743  1.00  0.00     0.030 A 
HETATM   15  C15 UNL     1      24.195   1.874  52.806  1.00  0.00     0.013 A 
HETATM   16  C17 UNL     1      26.382   2.175  51.577  1.00  0.00     0.239 C 
HETATM   17  C18 UNL     1      26.984   2.232  52.930  1.00  0.00     0.091 C 
HETATM   18  N4  UNL     1      26.858   3.326  50.869  1.00  0.00    -0.311 N 
HETATM   19  N3  UNL     1      27.461   2.296  53.995  1.00  0.00    -0.195 NA
HETATM   20  H17 UNL     1      27.255   4.060  51.479  1.00  0.00     0.182 HD
BRANCH  13  21
HETATM   21  N2  UNL     1      20.680   2.321  51.548  1.00  0.00    -0.327 N 
HETATM   22  C11 UNL     1      19.833   3.444  51.480  1.00  0.00     0.221 C 
HETATM   23  O1  UNL     1      20.342   4.589  51.507  1.00  0.00    -0.273 OA
HETATM   24  H8  UNL     1      20.115   1.439  51.514  1.00  0.00     0.169 HD
BRANCH  22  25
HETATM   25  C12 UNL     1      18.354   3.398  51.378  1.00  0.00     0.098 C 
HETATM   26  C13 UNL     1      17.881   1.979  51.443  1.00  0.00     0.014 C 
ENDBRANCH  22  25
ENDBRANCH  13  21
ENDBRANCH   4   8
TORSDOF 4
ENDMDL
