MODEL 1
REMARK VINA RESULT:      -8.5      0.000      0.000
REMARK  3 active torsions:
REMARK  status: ('A' for Active; 'I' for Inactive)
REMARK    1  A    between atoms: C4_4  and  C5_6 
REMARK    2  A    between atoms: C6_7  and  N1_8 
REMARK    3  A    between atoms: N1_8  and  C7_9 
ROOT
HETATM    1  C1  UNL     1      23.438   8.076  50.469  1.00  0.00     0.017 C 
HETATM    2  C2  UNL     1      24.455   7.453  50.198  1.00  0.00    -0.088 C 
HETATM    3  C3  UNL     1      25.661   6.711  49.902  1.00  0.00     0.082 C 
HETATM    4  C4  UNL     1      25.449   5.506  49.394  1.00  0.00     0.020 C 
HETATM    5 BR1  UNL     1      23.599   5.089  49.196  1.00  0.00    -0.050 Br
ENDROOT
BRANCH   4   6
HETATM    6  C5  UNL     1      26.501   4.570  49.014  1.00  0.00     0.036 C 
HETATM    7  C6  UNL     1      26.943   3.642  49.814  1.00  0.00     0.091 C 
BRANCH   7   8
HETATM    8  N1  UNL     1      26.504   3.381  51.141  1.00  0.00    -0.349 N 
HETATM    9  H5  UNL     1      25.921   3.895  51.817  1.00  0.00     0.167 HD
BRANCH   8  10
HETATM   10  C7  UNL     1      26.777   2.232  51.969  1.00  0.00     0.159 A 
HETATM   11  N2  UNL     1      27.957   1.899  52.512  1.00  0.00    -0.222 NA
HETATM   12  C8  UNL     1      28.059   0.792  53.265  1.00  0.00     0.238 A 
HETATM   13  N3  UNL     1      27.004  -0.024  53.508  1.00  0.00    -0.215 NA
HETATM   14  C9  UNL     1      25.789   0.270  52.980  1.00  0.00     0.202 A 
HETATM   15  C10 UNL     1      25.679   1.416  52.201  1.00  0.00     0.129 A 
HETATM   16  O1  UNL     1      24.796  -0.670  53.322  1.00  0.00    -0.289 OA
HETATM   17  N4  UNL     1      24.460   1.842  51.587  1.00  0.00    -0.379 N 
HETATM   18  C11 UNL     1      23.067   1.531  51.737  1.00  0.00     0.161 C 
HETATM   19  H7  UNL     1      24.616   2.558  50.839  1.00  0.00     0.160 HD
HETATM   20  C12 UNL     1      22.758   0.606  52.830  1.00  0.00    -0.007 A 
HETATM   21  C13 UNL     1      21.416   0.823  53.157  1.00  0.00     0.011 A 
HETATM   22  C17 UNL     1      23.441  -0.369  53.567  1.00  0.00     0.086 A 
HETATM   23  C14 UNL     1      20.778   0.116  54.157  1.00  0.00     0.001 A 
HETATM   24  C15 UNL     1      21.501  -0.834  54.850  1.00  0.00     0.003 A 
HETATM   25  C16 UNL     1      22.832  -1.093  54.572  1.00  0.00     0.038 A 
ENDBRANCH   8  10
ENDBRANCH   7   8
ENDBRANCH   4   6
TORSDOF 3
ENDMDL
MODEL 2
REMARK VINA RESULT:      -7.2      2.515      4.072
REMARK  3 active torsions:
REMARK  status: ('A' for Active; 'I' for Inactive)
REMARK    1  A    between atoms: C4_4  and  C5_6 
REMARK    2  A    between atoms: C6_7  and  N1_8 
REMARK    3  A    between atoms: N1_8  and  C7_9 
ROOT
HETATM    1  C1  UNL     1      21.666   8.364  49.598  1.00  0.00     0.017 C 
HETATM    2  C2  UNL     1      22.542   7.729  49.028  1.00  0.00    -0.088 C 
HETATM    3  C3  UNL     1      23.580   6.995  48.338  1.00  0.00     0.082 C 
HETATM    4  C4  UNL     1      24.748   6.985  48.963  1.00  0.00     0.020 C 
HETATM    5 BR1  UNL     1      24.727   7.947  50.609  1.00  0.00    -0.050 Br
ENDROOT
BRANCH   4   6
HETATM    6  C5  UNL     1      25.946   6.315  48.470  1.00  0.00     0.036 C 
HETATM    7  C6  UNL     1      26.507   5.321  49.098  1.00  0.00     0.091 C 
BRANCH   7   8
HETATM    8  N1  UNL     1      26.078   4.733  50.318  1.00  0.00    -0.349 N 
HETATM    9  H5  UNL     1      26.278   4.917  51.312  1.00  0.00     0.167 HD
BRANCH   8  10
HETATM   10  C7  UNL     1      25.170   3.629  50.515  1.00  0.00     0.159 A 
HETATM   11  N2  UNL     1      23.974   3.463  49.933  1.00  0.00    -0.222 NA
HETATM   12  C8  UNL     1      23.236   2.376  50.216  1.00  0.00     0.238 A 
HETATM   13  N3  UNL     1      23.652   1.418  51.080  1.00  0.00    -0.215 NA
HETATM   14  C9  UNL     1      24.856   1.541  51.694  1.00  0.00     0.202 A 
HETATM   15  C10 UNL     1      25.622   2.664  51.403  1.00  0.00     0.129 A 
HETATM   16  O1  UNL     1      25.146   0.468  52.560  1.00  0.00    -0.289 OA
HETATM   17  N4  UNL     1      26.907   2.915  51.979  1.00  0.00    -0.379 N 
HETATM   18  C11 UNL     1      27.888   2.144  52.688  1.00  0.00     0.161 C 
HETATM   19  H7  UNL     1      27.214   3.909  51.855  1.00  0.00     0.160 HD
HETATM   20  C12 UNL     1      27.573   0.719  52.817  1.00  0.00    -0.007 A 
HETATM   21  C13 UNL     1      28.792   0.069  53.036  1.00  0.00     0.011 A 
HETATM   22  C17 UNL     1      26.426  -0.082  52.775  1.00  0.00     0.086 A 
HETATM   23  C14 UNL     1      28.877  -1.299  53.206  1.00  0.00     0.001 A 
HETATM   24  C15 UNL     1      27.713  -2.038  53.154  1.00  0.00     0.003 A 
HETATM   25  C16 UNL     1      26.477  -1.451  52.940  1.00  0.00     0.038 A 
ENDBRANCH   8  10
ENDBRANCH   7   8
ENDBRANCH   4   6
TORSDOF 3
ENDMDL
MODEL 3
REMARK VINA RESULT:      -7.2      3.142      7.474
REMARK  3 active torsions:
REMARK  status: ('A' for Active; 'I' for Inactive)
REMARK    1  A    between atoms: C4_4  and  C5_6 
REMARK    2  A    between atoms: C6_7  and  N1_8 
REMARK    3  A    between atoms: N1_8  and  C7_9 
ROOT
HETATM    1  C1  UNL     1      27.850   0.085  54.564  1.00  0.00     0.017 C 
HETATM    2  C2  UNL     1      26.838   0.125  53.878  1.00  0.00    -0.088 C 
HETATM    3  C3  UNL     1      25.650   0.153  53.055  1.00  0.00     0.082 C 
HETATM    4  C4  UNL     1      24.564  -0.323  53.647  1.00  0.00     0.020 C 
HETATM    5 BR1  UNL     1      24.881  -0.914  55.431  1.00  0.00    -0.050 Br
ENDROOT
BRANCH   4   6
HETATM    6  C5  UNL     1      23.247  -0.400  53.025  1.00  0.00     0.036 C 
HETATM    7  C6  UNL     1      22.620   0.646  52.569  1.00  0.00     0.091 C 
BRANCH   7   8
HETATM    8  N1  UNL     1      23.079   1.991  52.591  1.00  0.00    -0.349 N 
HETATM    9  H5  UNL     1      23.853   2.477  53.065  1.00  0.00     0.167 HD
BRANCH   8  10
HETATM   10  C7  UNL     1      22.541   3.136  51.896  1.00  0.00     0.159 A 
HETATM   11  N2  UNL     1      21.390   3.768  52.166  1.00  0.00    -0.222 NA
HETATM   12  C8  UNL     1      21.019   4.827  51.428  1.00  0.00     0.238 A 
HETATM   13  N3  UNL     1      21.767   5.298  50.400  1.00  0.00    -0.215 NA
HETATM   14  C9  UNL     1      22.940   4.692  50.088  1.00  0.00     0.202 A 
HETATM   15  C10 UNL     1      23.329   3.596  50.851  1.00  0.00     0.129 A 
HETATM   16  O1  UNL     1      23.601   5.295  48.999  1.00  0.00    -0.289 OA
HETATM   17  N4  UNL     1      24.539   2.867  50.629  1.00  0.00    -0.379 N 
HETATM   18  C11 UNL     1      25.760   3.091  49.908  1.00  0.00     0.161 C 
HETATM   19  H7  UNL     1      24.541   1.937  51.110  1.00  0.00     0.160 HD
HETATM   20  C12 UNL     1      25.873   4.412  49.286  1.00  0.00    -0.007 A 
HETATM   21  C13 UNL     1      27.241   4.641  49.104  1.00  0.00     0.011 A 
HETATM   22  C17 UNL     1      24.999   5.421  48.864  1.00  0.00     0.086 A 
HETATM   23  C14 UNL     1      27.722   5.803  48.535  1.00  0.00     0.001 A 
HETATM   24  C15 UNL     1      26.814   6.764  48.138  1.00  0.00     0.003 A 
HETATM   25  C16 UNL     1      25.449   6.593  48.293  1.00  0.00     0.038 A 
ENDBRANCH   8  10
ENDBRANCH   7   8
ENDBRANCH   4   6
TORSDOF 3
ENDMDL
MODEL 4
REMARK VINA RESULT:      -7.1      4.122      8.152
REMARK  3 active torsions:
REMARK  status: ('A' for Active; 'I' for Inactive)
REMARK    1  A    between atoms: C4_4  and  C5_6 
REMARK    2  A    between atoms: C6_7  and  N1_8 
REMARK    3  A    between atoms: N1_8  and  C7_9 
ROOT
HETATM    1  C1  UNL     1      22.177   1.783  47.815  1.00  0.00     0.017 C 
HETATM    2  C2  UNL     1      22.397   2.014  48.996  1.00  0.00    -0.088 C 
HETATM    3  C3  UNL     1      22.681   2.292  50.387  1.00  0.00     0.082 C 
HETATM    4  C4  UNL     1      22.237   3.466  50.810  1.00  0.00     0.020 C 
HETATM    5 BR1  UNL     1      21.343   4.464  49.454  1.00  0.00    -0.050 Br
ENDROOT
BRANCH   4   6
HETATM    6  C5  UNL     1      22.399   3.973  52.168  1.00  0.00     0.036 C 
HETATM    7  C6  UNL     1      23.388   4.744  52.520  1.00  0.00     0.091 C 
BRANCH   7   8
HETATM    8  N1  UNL     1      24.441   5.212  51.688  1.00  0.00    -0.349 N 
HETATM    9  H5  UNL     1      25.384   4.864  51.461  1.00  0.00     0.167 HD
BRANCH   8  10
HETATM   10  C7  UNL     1      24.480   6.398  50.868  1.00  0.00     0.159 A 
HETATM   11  N2  UNL     1      23.732   7.500  51.019  1.00  0.00    -0.222 NA
HETATM   12  C8  UNL     1      23.882   8.532  50.171  1.00  0.00     0.238 A 
HETATM   13  N3  UNL     1      24.770   8.511  49.147  1.00  0.00    -0.215 NA
HETATM   14  C9  UNL     1      25.549   7.418  48.953  1.00  0.00     0.202 A 
HETATM   15  C10 UNL     1      25.399   6.349  49.829  1.00  0.00     0.129 A 
HETATM   16  O1  UNL     1      26.420   7.549  47.853  1.00  0.00    -0.289 OA
HETATM   17  N4  UNL     1      26.156   5.139  49.738  1.00  0.00    -0.379 N 
HETATM   18  C11 UNL     1      27.353   4.720  49.067  1.00  0.00     0.161 C 
HETATM   19  H7  UNL     1      25.737   4.360  50.299  1.00  0.00     0.160 HD
HETATM   20  C12 UNL     1      28.052   5.782  48.337  1.00  0.00    -0.007 A 
HETATM   21  C13 UNL     1      29.379   5.358  48.209  1.00  0.00     0.011 A 
HETATM   22  C17 UNL     1      27.726   7.025  47.782  1.00  0.00     0.086 A 
HETATM   23  C14 UNL     1      30.335   6.119  47.566  1.00  0.00     0.001 A 
HETATM   24  C15 UNL     1      29.957   7.336  47.038  1.00  0.00     0.003 A 
HETATM   25  C16 UNL     1      28.659   7.808  47.134  1.00  0.00     0.038 A 
ENDBRANCH   8  10
ENDBRANCH   7   8
ENDBRANCH   4   6
TORSDOF 3
ENDMDL
MODEL 5
REMARK VINA RESULT:      -7.0      2.658      6.155
REMARK  3 active torsions:
REMARK  status: ('A' for Active; 'I' for Inactive)
REMARK    1  A    between atoms: C4_4  and  C5_6 
REMARK    2  A    between atoms: C6_7  and  N1_8 
REMARK    3  A    between atoms: N1_8  and  C7_9 
ROOT
HETATM    1  C1  UNL     1      19.765   0.202  52.642  1.00  0.00     0.017 C 
HETATM    2  C2  UNL     1      20.501   0.142  53.617  1.00  0.00    -0.088 C 
HETATM    3  C3  UNL     1      21.354   0.061  54.782  1.00  0.00     0.082 C 
HETATM    4  C4  UNL     1      22.262  -0.901  54.727  1.00  0.00     0.020 C 
HETATM    5 BR1  UNL     1      22.186  -1.914  53.113  1.00  0.00    -0.050 Br
ENDROOT
BRANCH   4   6
HETATM    6  C5  UNL     1      23.235  -1.184  55.776  1.00  0.00     0.036 C 
HETATM    7  C6  UNL     1      24.506  -1.338  55.537  1.00  0.00     0.091 C 
BRANCH   7   8
HETATM    8  N1  UNL     1      25.150  -1.264  54.272  1.00  0.00    -0.349 N 
HETATM    9  H5  UNL     1      24.973  -1.692  53.352  1.00  0.00     0.167 HD
BRANCH   8  10
HETATM   10  C7  UNL     1      26.320  -0.507  53.902  1.00  0.00     0.159 A 
HETATM   11  N2  UNL     1      27.597  -0.833  54.152  1.00  0.00    -0.222 NA
HETATM   12  C8  UNL     1      28.587  -0.024  53.742  1.00  0.00     0.238 A 
HETATM   13  N3  UNL     1      28.355   1.133  53.074  1.00  0.00    -0.215 NA
HETATM   14  C9  UNL     1      27.080   1.506  52.797  1.00  0.00     0.202 A 
HETATM   15  C10 UNL     1      26.052   0.670  53.219  1.00  0.00     0.129 A 
HETATM   16  O1  UNL     1      27.002   2.728  52.099  1.00  0.00    -0.289 OA
HETATM   17  N4  UNL     1      24.667   0.944  52.992  1.00  0.00    -0.379 N 
HETATM   18  C11 UNL     1      23.915   1.824  52.143  1.00  0.00     0.161 C 
HETATM   19  H7  UNL     1      24.038   0.360  53.593  1.00  0.00     0.160 HD
HETATM   20  C12 UNL     1      24.721   2.607  51.203  1.00  0.00    -0.007 A 
HETATM   21  C13 UNL     1      23.859   2.973  50.163  1.00  0.00     0.011 A 
HETATM   22  C17 UNL     1      26.049   3.039  51.109  1.00  0.00     0.086 A 
HETATM   23  C14 UNL     1      24.284   3.728  49.087  1.00  0.00     0.001 A 
HETATM   24  C15 UNL     1      25.605   4.126  49.047  1.00  0.00     0.003 A 
HETATM   25  C16 UNL     1      26.504   3.794  50.047  1.00  0.00     0.038 A 
ENDBRANCH   8  10
ENDBRANCH   7   8
ENDBRANCH   4   6
TORSDOF 3
ENDMDL
MODEL 6
REMARK VINA RESULT:      -7.0      2.622      6.240
REMARK  3 active torsions:
REMARK  status: ('A' for Active; 'I' for Inactive)
REMARK    1  A    between atoms: C4_4  and  C5_6 
REMARK    2  A    between atoms: C6_7  and  N1_8 
REMARK    3  A    between atoms: N1_8  and  C7_9 
ROOT
HETATM    1  C1  UNL     1      17.006   0.982  49.489  1.00  0.00     0.017 C 
HETATM    2  C2  UNL     1      17.811   0.639  50.343  1.00  0.00    -0.088 C 
HETATM    3  C3  UNL     1      18.779   0.227  51.337  1.00  0.00     0.082 C 
HETATM    4  C4  UNL     1      19.392   1.229  51.949  1.00  0.00     0.020 C 
HETATM    5 BR1  UNL     1      18.819   2.943  51.341  1.00  0.00    -0.050 Br
ENDROOT
BRANCH   4   6
HETATM    6  C5  UNL     1      20.405   1.072  52.986  1.00  0.00     0.036 C 
HETATM    7  C6  UNL     1      21.681   1.163  52.745  1.00  0.00     0.091 C 
BRANCH   7   8
HETATM    8  N1  UNL     1      22.295   1.421  51.489  1.00  0.00    -0.349 N 
HETATM    9  H5  UNL     1      22.171   1.041  50.540  1.00  0.00     0.167 HD
BRANCH   8  10
HETATM   10  C7  UNL     1      23.343   2.362  51.176  1.00  0.00     0.159 A 
HETATM   11  N2  UNL     1      23.194   3.560  50.593  1.00  0.00    -0.222 NA
HETATM   12  C8  UNL     1      24.270   4.331  50.364  1.00  0.00     0.238 A 
HETATM   13  N3  UNL     1      25.526   3.948  50.700  1.00  0.00    -0.215 NA
HETATM   14  C9  UNL     1      25.728   2.744  51.293  1.00  0.00     0.202 A 
HETATM   15  C10 UNL     1      24.617   1.944  51.533  1.00  0.00     0.129 A 
HETATM   16  O1  UNL     1      27.084   2.491  51.581  1.00  0.00    -0.289 OA
HETATM   17  N4  UNL     1      24.688   0.655  52.149  1.00  0.00    -0.379 N 
HETATM   18  C11 UNL     1      25.663  -0.069  52.913  1.00  0.00     0.161 C 
HETATM   19  H7  UNL     1      23.813   0.096  52.013  1.00  0.00     0.160 HD
HETATM   20  C12 UNL     1      26.880   0.683  53.229  1.00  0.00    -0.007 A 
HETATM   21  C13 UNL     1      27.440   0.065  54.351  1.00  0.00     0.011 A 
HETATM   22  C17 UNL     1      27.559   1.792  52.709  1.00  0.00     0.086 A 
HETATM   23  C14 UNL     1      28.610   0.514  54.931  1.00  0.00     0.001 A 
HETATM   24  C15 UNL     1      29.236   1.612  54.377  1.00  0.00     0.003 A 
HETATM   25  C16 UNL     1      28.729   2.265  53.267  1.00  0.00     0.038 A 
ENDBRANCH   8  10
ENDBRANCH   7   8
ENDBRANCH   4   6
TORSDOF 3
ENDMDL
MODEL 7
REMARK VINA RESULT:      -6.9      6.029      8.258
REMARK  3 active torsions:
REMARK  status: ('A' for Active; 'I' for Inactive)
REMARK    1  A    between atoms: C4_4  and  C5_6 
REMARK    2  A    between atoms: C6_7  and  N1_8 
REMARK    3  A    between atoms: N1_8  and  C7_9 
ROOT
HETATM    1  C1  UNL     1      27.184  12.183  44.984  1.00  0.00     0.017 C 
HETATM    2  C2  UNL     1      27.606  11.917  46.100  1.00  0.00    -0.088 C 
HETATM    3  C3  UNL     1      28.107  11.579  47.414  1.00  0.00     0.082 C 
HETATM    4  C4  UNL     1      29.374  11.908  47.616  1.00  0.00     0.020 C 
HETATM    5 BR1  UNL     1      30.184  12.740  46.104  1.00  0.00    -0.050 Br
ENDROOT
BRANCH   4   6
HETATM    6  C5  UNL     1      30.104  11.671  48.856  1.00  0.00     0.036 C 
HETATM    7  C6  UNL     1      30.800  10.592  49.071  1.00  0.00     0.091 C 
BRANCH   7   8
HETATM    8  N1  UNL     1      30.969   9.497  48.181  1.00  0.00    -0.349 N 
HETATM    9  H5  UNL     1      31.000   9.404  47.156  1.00  0.00     0.167 HD
BRANCH   8  10
HETATM   10  C7  UNL     1      31.161   8.102  48.498  1.00  0.00     0.159 A 
HETATM   11  N2  UNL     1      32.282   7.535  48.968  1.00  0.00    -0.222 NA
HETATM   12  C8  UNL     1      32.310   6.215  49.218  1.00  0.00     0.238 A 
HETATM   13  N3  UNL     1      31.238   5.411  49.012  1.00  0.00    -0.215 NA
HETATM   14  C9  UNL     1      30.082   5.938  48.537  1.00  0.00     0.202 A 
HETATM   15  C10 UNL     1      30.048   7.304  48.278  1.00  0.00     0.129 A 
HETATM   16  O1  UNL     1      29.062   4.978  48.377  1.00  0.00    -0.289 OA
HETATM   17  N4  UNL     1      28.895   7.986  47.777  1.00  0.00    -0.379 N 
HETATM   18  C11 UNL     1      27.495   7.694  47.660  1.00  0.00     0.161 C 
HETATM   19  H7  UNL     1      29.123   8.936  47.400  1.00  0.00     0.160 HD
HETATM   20  C12 UNL     1      27.080   6.421  48.254  1.00  0.00    -0.007 A 
HETATM   21  C13 UNL     1      25.711   6.539  48.514  1.00  0.00     0.011 A 
HETATM   22  C17 UNL     1      27.689   5.207  48.595  1.00  0.00     0.086 A 
HETATM   23  C14 UNL     1      24.979   5.515  49.081  1.00  0.00     0.001 A 
HETATM   24  C15 UNL     1      25.631   4.341  49.397  1.00  0.00     0.003 A 
HETATM   25  C16 UNL     1      26.984   4.165  49.163  1.00  0.00     0.038 A 
ENDBRANCH   8  10
ENDBRANCH   7   8
ENDBRANCH   4   6
TORSDOF 3
ENDMDL
MODEL 8
REMARK VINA RESULT:      -6.9      7.835     10.405
REMARK  3 active torsions:
REMARK  status: ('A' for Active; 'I' for Inactive)
REMARK    1  A    between atoms: C4_4  and  C5_6 
REMARK    2  A    between atoms: C6_7  and  N1_8 
REMARK    3  A    between atoms: N1_8  and  C7_9 
ROOT
HETATM    1  C1  UNL     1      32.729   7.472  44.573  1.00  0.00     0.017 C 
HETATM    2  C2  UNL     1      32.633   8.356  45.412  1.00  0.00    -0.088 C 
HETATM    3  C3  UNL     1      32.529   9.417  46.390  1.00  0.00     0.082 C 
HETATM    4  C4  UNL     1      31.309   9.912  46.531  1.00  0.00     0.020 C 
HETATM    5 BR1  UNL     1      30.025   9.076  45.396  1.00  0.00    -0.050 Br
ENDROOT
BRANCH   4   6
HETATM    6  C5  UNL     1      30.950  10.984  47.451  1.00  0.00     0.036 C 
HETATM    7  C6  UNL     1      30.615  10.768  48.691  1.00  0.00     0.091 C 
BRANCH   7   8
HETATM    8  N1  UNL     1      30.541   9.509  49.346  1.00  0.00    -0.349 N 
HETATM    9  H5  UNL     1      30.934   9.131  50.220  1.00  0.00     0.167 HD
BRANCH   8  10
HETATM   10  C7  UNL     1      29.836   8.320  48.932  1.00  0.00     0.159 A 
HETATM   11  N2  UNL     1      28.519   8.208  48.707  1.00  0.00    -0.222 NA
HETATM   12  C8  UNL     1      28.004   7.029  48.323  1.00  0.00     0.238 A 
HETATM   13  N3  UNL     1      28.766   5.922  48.148  1.00  0.00    -0.215 NA
HETATM   14  C9  UNL     1      30.104   5.985  48.364  1.00  0.00     0.202 A 
HETATM   15  C10 UNL     1      30.642   7.204  48.760  1.00  0.00     0.129 A 
HETATM   16  O1  UNL     1      30.758   4.756  48.141  1.00  0.00    -0.289 OA
HETATM   17  N4  UNL     1      32.034   7.408  49.019  1.00  0.00    -0.379 N 
HETATM   18  C11 UNL     1      33.250   6.702  48.734  1.00  0.00     0.161 C 
HETATM   19  H7  UNL     1      32.218   8.292  49.550  1.00  0.00     0.160 HD
HETATM   20  C12 UNL     1      33.085   5.502  47.910  1.00  0.00    -0.007 A 
HETATM   21  C13 UNL     1      34.329   5.262  47.318  1.00  0.00     0.011 A 
HETATM   22  C17 UNL     1      32.051   4.609  47.600  1.00  0.00     0.086 A 
HETATM   23  C14 UNL     1      34.545   4.196  46.466  1.00  0.00     0.001 A 
HETATM   24  C15 UNL     1      33.489   3.349  46.197  1.00  0.00     0.003 A 
HETATM   25  C16 UNL     1      32.235   3.536  46.753  1.00  0.00     0.038 A 
ENDBRANCH   8  10
ENDBRANCH   7   8
ENDBRANCH   4   6
TORSDOF 3
ENDMDL
MODEL 9
REMARK VINA RESULT:      -6.8      7.211     10.300
REMARK  3 active torsions:
REMARK  status: ('A' for Active; 'I' for Inactive)
REMARK    1  A    between atoms: C4_4  and  C5_6 
REMARK    2  A    between atoms: C6_7  and  N1_8 
REMARK    3  A    between atoms: N1_8  and  C7_9 
ROOT
HETATM    1  C1  UNL     1      33.711   2.497  47.844  1.00  0.00     0.017 C 
HETATM    2  C2  UNL     1      33.173   3.149  46.960  1.00  0.00    -0.088 C 
HETATM    3  C3  UNL     1      32.534   3.938  45.930  1.00  0.00     0.082 C 
HETATM    4  C4  UNL     1      33.364   4.412  45.013  1.00  0.00     0.020 C 
HETATM    5 BR1  UNL     1      35.179   3.913  45.314  1.00  0.00    -0.050 Br
ENDROOT
BRANCH   4   6
HETATM    6  C5  UNL     1      32.962   5.232  43.876  1.00  0.00     0.036 C 
HETATM    7  C6  UNL     1      32.611   6.481  43.997  1.00  0.00     0.091 C 
BRANCH   7   8
HETATM    8  N1  UNL     1      32.557   7.239  45.198  1.00  0.00    -0.349 N 
HETATM    9  H5  UNL     1      33.127   7.265  46.055  1.00  0.00     0.167 HD
BRANCH   8  10
HETATM   10  C7  UNL     1      31.612   8.262  45.574  1.00  0.00     0.159 A 
HETATM   11  N2  UNL     1      31.507   9.489  45.042  1.00  0.00    -0.222 NA
HETATM   12  C8  UNL     1      30.571  10.338  45.498  1.00  0.00     0.238 A 
HETATM   13  N3  UNL     1      29.710  10.009  46.492  1.00  0.00    -0.215 NA
HETATM   14  C9  UNL     1      29.777   8.779  47.062  1.00  0.00     0.202 A 
HETATM   15  C10 UNL     1      30.743   7.896  46.591  1.00  0.00     0.129 A 
HETATM   16  O1  UNL     1      28.818   8.588  48.077  1.00  0.00    -0.289 OA
HETATM   17  N4  UNL     1      30.921   6.572  47.102  1.00  0.00    -0.379 N 
HETATM   18  C11 UNL     1      30.152   5.666  47.906  1.00  0.00     0.161 C 
HETATM   19  H7  UNL     1      31.841   6.155  46.825  1.00  0.00     0.160 HD
HETATM   20  C12 UNL     1      28.810   6.140  48.255  1.00  0.00    -0.007 A 
HETATM   21  C13 UNL     1      28.058   4.998  48.551  1.00  0.00     0.011 A 
HETATM   22  C17 UNL     1      28.156   7.374  48.352  1.00  0.00     0.086 A 
HETATM   23  C14 UNL     1      26.731   5.069  48.926  1.00  0.00     0.001 A 
HETATM   24  C15 UNL     1      26.138   6.312  49.005  1.00  0.00     0.003 A 
HETATM   25  C16 UNL     1      26.831   7.477  48.724  1.00  0.00     0.038 A 
ENDBRANCH   8  10
ENDBRANCH   7   8
ENDBRANCH   4   6
TORSDOF 3
ENDMDL
