MODEL 1
REMARK VINA RESULT:      -8.5      0.000      0.000
REMARK  8 active torsions:
REMARK  status: ('A' for Active; 'I' for Inactive)
REMARK    1  A    between atoms: C2_2  and  C3_3 
REMARK    2  A    between atoms: C3_3  and  C5_5 
REMARK    3  A    between atoms: C5_5  and  N1_6 
REMARK       I    between atoms: N1_6  and  C6_7 
REMARK    4  A    between atoms: C6_7  and  C7_9 
REMARK    5  A    between atoms: C7_9  and  O2_10 
REMARK    6  A    between atoms: O2_10  and  C8_11 
REMARK    7  A    between atoms: C10_13  and  O3_14 
REMARK    8  A    between atoms: C14_19  and  C15_20 
ROOT
HETATM    1  C8  UNL     1      21.026   1.103  51.339  1.00  0.00     0.074 A 
HETATM    2  C9  UNL     1      20.200   0.505  52.269  1.00  0.00     0.074 A 
HETATM    3  C10 UNL     1      20.714  -0.189  53.344  1.00  0.00     0.085 A 
HETATM    4  C11 UNL     1      22.088  -0.261  53.451  1.00  0.00     0.081 A 
HETATM    5  C12 UNL     1      22.616  -0.952  54.522  1.00  0.00     0.190 A 
HETATM    6  O4  UNL     1      21.886  -1.502  55.378  1.00  0.00    -0.287 OA
HETATM    7  C13 UNL     1      23.987  -1.037  54.649  1.00  0.00     0.094 A 
HETATM    8  C14 UNL     1      24.797  -0.434  53.710  1.00  0.00     0.090 A 
HETATM    9  O5  UNL     1      24.279   0.220  52.697  1.00  0.00    -0.309 OA
HETATM   10  C21 UNL     1      22.959   0.318  52.551  1.00  0.00     0.095 A 
HETATM   11  C22 UNL     1      22.417   1.017  51.467  1.00  0.00     0.075 A 
ENDROOT
BRANCH   1  12
HETATM   12  O2  UNL     1      20.677   1.827  50.217  1.00  0.00    -0.342 OA
BRANCH  12  13
HETATM   13  C7  UNL     1      20.833   3.226  50.088  1.00  0.00     0.278 C 
BRANCH  13  14
HETATM   14  C6  UNL     1      22.009   3.537  49.223  1.00  0.00     0.241 C 
HETATM   15  N1  UNL     1      23.110   4.048  49.979  1.00  0.00    -0.359 N 
HETATM   16  H12 UNL     1      23.153   4.209  51.021  1.00  0.00     0.162 HD
HETATM   17  O1  UNL     1      22.370   3.501  48.010  1.00  0.00    -0.271 OA
BRANCH  15  18
HETATM   18  C5  UNL     1      24.332   4.394  49.240  1.00  0.00     0.126 C 
BRANCH  18  19
HETATM   19  C3  UNL     1      25.480   3.489  49.574  1.00  0.00    -0.001 C 
HETATM   20  C4  UNL     1      26.804   4.156  49.267  1.00  0.00     0.011 C 
BRANCH  19  21
HETATM   21  C2  UNL     1      25.488   3.065  51.021  1.00  0.00     0.001 C 
HETATM   22  C1  UNL     1      26.780   2.381  51.412  1.00  0.00     0.005 C 
ENDBRANCH  19  21
ENDBRANCH  18  19
ENDBRANCH  15  18
ENDBRANCH  13  14
ENDBRANCH  12  13
ENDBRANCH   1  12
BRANCH   3  23
HETATM   23  O3  UNL     1      19.839  -0.771  54.251  1.00  0.00    -0.360 OA
HETATM   24  H16 UNL     1      18.888  -0.966  53.965  1.00  0.00     0.217 HD
ENDBRANCH   3  23
BRANCH   8  25
HETATM   25  C15 UNL     1      26.253  -0.483  53.780  1.00  0.00    -0.002 A 
HETATM   26  C16 UNL     1      26.892   0.274  54.741  1.00  0.00     0.014 A 
HETATM   27  C17 UNL     1      28.282   0.298  54.893  1.00  0.00     0.001 A 
HETATM   28  C18 UNL     1      29.049  -0.481  54.032  1.00  0.00     0.000 A 
HETATM   29  C19 UNL     1      28.434  -1.246  53.062  1.00  0.00     0.001 A 
HETATM   30  C20 UNL     1      27.060  -1.235  52.953  1.00  0.00     0.014 A 
ENDBRANCH   8  25
TORSDOF 8
ENDMDL
MODEL 2
REMARK VINA RESULT:      -8.4      2.632      5.740
REMARK  8 active torsions:
REMARK  status: ('A' for Active; 'I' for Inactive)
REMARK    1  A    between atoms: C2_2  and  C3_3 
REMARK    2  A    between atoms: C3_3  and  C5_5 
REMARK    3  A    between atoms: C5_5  and  N1_6 
REMARK       I    between atoms: N1_6  and  C6_7 
REMARK    4  A    between atoms: C6_7  and  C7_9 
REMARK    5  A    between atoms: C7_9  and  O2_10 
REMARK    6  A    between atoms: O2_10  and  C8_11 
REMARK    7  A    between atoms: C10_13  and  O3_14 
REMARK    8  A    between atoms: C14_19  and  C15_20 
ROOT
HETATM    1  C8  UNL     1      26.604   1.855  51.837  1.00  0.00     0.074 A 
HETATM    2  C9  UNL     1      27.241   1.183  52.861  1.00  0.00     0.074 A 
HETATM    3  C10 UNL     1      26.549   0.342  53.707  1.00  0.00     0.085 A 
HETATM    4  C11 UNL     1      25.194   0.200  53.487  1.00  0.00     0.081 A 
HETATM    5  C12 UNL     1      24.490  -0.639  54.327  1.00  0.00     0.190 A 
HETATM    6  O4  UNL     1      25.047  -1.258  55.261  1.00  0.00    -0.287 OA
HETATM    7  C13 UNL     1      23.135  -0.797  54.126  1.00  0.00     0.094 A 
HETATM    8  C14 UNL     1      22.514  -0.117  53.098  1.00  0.00     0.090 A 
HETATM    9  O5  UNL     1      23.198   0.677  52.309  1.00  0.00    -0.309 OA
HETATM   10  C21 UNL     1      24.508   0.846  52.481  1.00  0.00     0.095 A 
HETATM   11  C22 UNL     1      25.228   1.696  51.633  1.00  0.00     0.075 A 
ENDROOT
BRANCH   1  12
HETATM   12  O2  UNL     1      27.143   2.725  50.911  1.00  0.00    -0.342 OA
BRANCH  12  13
HETATM   13  C7  UNL     1      26.497   3.123  49.718  1.00  0.00     0.278 C 
BRANCH  13  14
HETATM   14  C6  UNL     1      27.061   4.417  49.233  1.00  0.00     0.241 C 
HETATM   15  N1  UNL     1      26.240   5.529  49.596  1.00  0.00    -0.359 N 
HETATM   16  H12 UNL     1      25.335   5.508  50.139  1.00  0.00     0.162 HD
HETATM   17  O1  UNL     1      28.050   4.874  48.588  1.00  0.00    -0.271 OA
BRANCH  15  18
HETATM   18  C5  UNL     1      26.688   6.864  49.175  1.00  0.00     0.126 C 
BRANCH  18  19
HETATM   19  C3  UNL     1      26.234   7.943  50.112  1.00  0.00    -0.001 C 
HETATM   20  C4  UNL     1      27.223   9.089  50.139  1.00  0.00     0.011 C 
BRANCH  19  21
HETATM   21  C2  UNL     1      24.879   8.498  49.753  1.00  0.00     0.001 C 
HETATM   22  C1  UNL     1      23.782   7.957  50.644  1.00  0.00     0.005 C 
ENDBRANCH  19  21
ENDBRANCH  18  19
ENDBRANCH  15  18
ENDBRANCH  13  14
ENDBRANCH  12  13
ENDBRANCH   1  12
BRANCH   3  23
HETATM   23  O3  UNL     1      27.239  -0.310  54.721  1.00  0.00    -0.360 OA
HETATM   24  H16 UNL     1      27.926   0.202  55.259  1.00  0.00     0.217 HD
ENDBRANCH   3  23
BRANCH   8  25
HETATM   25  C15 UNL     1      21.086  -0.235  52.828  1.00  0.00    -0.002 A 
HETATM   26  C16 UNL     1      20.585   0.329  51.673  1.00  0.00     0.014 A 
HETATM   27  C17 UNL     1      19.233   0.272  51.320  1.00  0.00     0.001 A 
HETATM   28  C18 UNL     1      18.359  -0.386  52.180  1.00  0.00     0.000 A 
HETATM   29  C19 UNL     1      18.834  -0.959  53.342  1.00  0.00     0.001 A 
HETATM   30  C20 UNL     1      20.177  -0.875  53.644  1.00  0.00     0.014 A 
ENDBRANCH   8  25
TORSDOF 8
ENDMDL
MODEL 3
REMARK VINA RESULT:      -8.4      1.977      5.674
REMARK  8 active torsions:
REMARK  status: ('A' for Active; 'I' for Inactive)
REMARK    1  A    between atoms: C2_2  and  C3_3 
REMARK    2  A    between atoms: C3_3  and  C5_5 
REMARK    3  A    between atoms: C5_5  and  N1_6 
REMARK       I    between atoms: N1_6  and  C6_7 
REMARK    4  A    between atoms: C6_7  and  C7_9 
REMARK    5  A    between atoms: C7_9  and  O2_10 
REMARK    6  A    between atoms: O2_10  and  C8_11 
REMARK    7  A    between atoms: C10_13  and  O3_14 
REMARK    8  A    between atoms: C14_19  and  C15_20 
ROOT
HETATM    1  C8  UNL     1      25.665   0.411  52.705  1.00  0.00     0.074 A 
HETATM    2  C9  UNL     1      25.907  -0.252  53.891  1.00  0.00     0.074 A 
HETATM    3  C10 UNL     1      24.883  -0.823  54.617  1.00  0.00     0.085 A 
HETATM    4  C11 UNL     1      23.606  -0.704  54.108  1.00  0.00     0.081 A 
HETATM    5  C12 UNL     1      22.572  -1.271  54.824  1.00  0.00     0.190 A 
HETATM    6  O4  UNL     1      22.769  -1.877  55.902  1.00  0.00    -0.287 OA
HETATM    7  C13 UNL     1      21.287  -1.166  54.334  1.00  0.00     0.094 A 
HETATM    8  C14 UNL     1      21.062  -0.499  53.147  1.00  0.00     0.090 A 
HETATM    9  O5  UNL     1      22.057   0.035  52.479  1.00  0.00    -0.309 OA
HETATM   10  C21 UNL     1      23.307  -0.054  52.929  1.00  0.00     0.095 A 
HETATM   11  C22 UNL     1      24.361   0.519  52.207  1.00  0.00     0.075 A 
ENDROOT
BRANCH   1  12
HETATM   12  O2  UNL     1      26.566   1.032  51.865  1.00  0.00    -0.342 OA
BRANCH  12  13
HETATM   13  C7  UNL     1      26.954   2.388  51.971  1.00  0.00     0.278 C 
BRANCH  13  14
HETATM   14  C6  UNL     1      26.590   3.127  50.727  1.00  0.00     0.241 C 
HETATM   15  N1  UNL     1      25.377   3.868  50.878  1.00  0.00    -0.359 N 
HETATM   16  H12 UNL     1      24.765   3.928  51.736  1.00  0.00     0.162 HD
HETATM   17  O1  UNL     1      27.007   3.325  49.547  1.00  0.00    -0.271 OA
BRANCH  15  18
HETATM   18  C5  UNL     1      24.910   4.641  49.719  1.00  0.00     0.126 C 
BRANCH  18  19
HETATM   19  C3  UNL     1      23.509   4.285  49.320  1.00  0.00    -0.001 C 
HETATM   20  C4  UNL     1      23.011   5.195  48.217  1.00  0.00     0.011 C 
BRANCH  19  21
HETATM   21  C2  UNL     1      23.378   2.858  48.851  1.00  0.00     0.001 C 
HETATM   22  C1  UNL     1      22.247   2.128  49.539  1.00  0.00     0.005 C 
ENDBRANCH  19  21
ENDBRANCH  18  19
ENDBRANCH  15  18
ENDBRANCH  13  14
ENDBRANCH  12  13
ENDBRANCH   1  12
BRANCH   3  23
HETATM   23  O3  UNL     1      25.182  -1.478  55.804  1.00  0.00    -0.360 OA
HETATM   24  H16 UNL     1      24.438  -1.927  56.322  1.00  0.00     0.217 HD
ENDBRANCH   3  23
BRANCH   8  25
HETATM   25  C15 UNL     1      19.732  -0.348  52.571  1.00  0.00    -0.002 A 
HETATM   26  C16 UNL     1      19.597   0.375  51.404  1.00  0.00     0.014 A 
HETATM   27  C17 UNL     1      18.368   0.580  50.770  1.00  0.00     0.001 A 
HETATM   28  C18 UNL     1      17.231   0.024  51.349  1.00  0.00     0.000 A 
HETATM   29  C19 UNL     1      17.338  -0.704  52.517  1.00  0.00     0.001 A 
HETATM   30  C20 UNL     1      18.575  -0.876  53.103  1.00  0.00     0.014 A 
ENDBRANCH   8  25
TORSDOF 8
ENDMDL
MODEL 4
REMARK VINA RESULT:      -8.4      1.446      2.000
REMARK  8 active torsions:
REMARK  status: ('A' for Active; 'I' for Inactive)
REMARK    1  A    between atoms: C2_2  and  C3_3 
REMARK    2  A    between atoms: C3_3  and  C5_5 
REMARK    3  A    between atoms: C5_5  and  N1_6 
REMARK       I    between atoms: N1_6  and  C6_7 
REMARK    4  A    between atoms: C6_7  and  C7_9 
REMARK    5  A    between atoms: C7_9  and  O2_10 
REMARK    6  A    between atoms: O2_10  and  C8_11 
REMARK    7  A    between atoms: C10_13  and  O3_14 
REMARK    8  A    between atoms: C14_19  and  C15_20 
ROOT
HETATM    1  C8  UNL     1      21.160   0.400  51.744  1.00  0.00     0.074 A 
HETATM    2  C9  UNL     1      20.566  -0.304  52.772  1.00  0.00     0.074 A 
HETATM    3  C10 UNL     1      21.310  -0.815  53.815  1.00  0.00     0.085 A 
HETATM    4  C11 UNL     1      22.672  -0.593  53.788  1.00  0.00     0.081 A 
HETATM    5  C12 UNL     1      23.428  -1.099  54.825  1.00  0.00     0.190 A 
HETATM    6  O4  UNL     1      22.911  -1.740  55.768  1.00  0.00    -0.287 OA
HETATM    7  C13 UNL     1      24.791  -0.889  54.819  1.00  0.00     0.094 A 
HETATM    8  C14 UNL     1      25.368  -0.183  53.783  1.00  0.00     0.090 A 
HETATM    9  O5  UNL     1      24.634   0.291  52.804  1.00  0.00    -0.309 OA
HETATM   10  C21 UNL     1      23.316   0.103  52.786  1.00  0.00     0.095 A 
HETATM   11  C22 UNL     1      22.543   0.613  51.737  1.00  0.00     0.075 A 
ENDROOT
BRANCH   1  12
HETATM   12  O2  UNL     1      20.566   0.972  50.637  1.00  0.00    -0.342 OA
BRANCH  12  13
HETATM   13  C7  UNL     1      19.713   2.099  50.680  1.00  0.00     0.278 C 
BRANCH  13  14
HETATM   14  C6  UNL     1      20.306   3.164  51.540  1.00  0.00     0.241 C 
HETATM   15  N1  UNL     1      21.346   3.878  50.867  1.00  0.00    -0.359 N 
HETATM   16  H12 UNL     1      21.699   3.723  49.885  1.00  0.00     0.162 HD
HETATM   17  O1  UNL     1      20.196   3.663  52.699  1.00  0.00    -0.271 OA
BRANCH  15  18
HETATM   18  C5  UNL     1      22.013   4.957  51.610  1.00  0.00     0.126 C 
BRANCH  18  19
HETATM   19  C3  UNL     1      23.494   4.749  51.716  1.00  0.00    -0.001 C 
HETATM   20  C4  UNL     1      23.829   3.800  52.847  1.00  0.00     0.011 C 
BRANCH  19  21
HETATM   21  C2  UNL     1      24.100   4.203  50.447  1.00  0.00     0.001 C 
HETATM   22  C1  UNL     1      25.122   3.121  50.718  1.00  0.00     0.005 C 
ENDBRANCH  19  21
ENDBRANCH  18  19
ENDBRANCH  15  18
ENDBRANCH  13  14
ENDBRANCH  12  13
ENDBRANCH   1  12
BRANCH   3  23
HETATM   23  O3  UNL     1      20.663  -1.515  54.825  1.00  0.00    -0.360 OA
HETATM   24  H16 UNL     1      19.782  -1.168  55.180  1.00  0.00     0.217 HD
ENDBRANCH   3  23
BRANCH   8  25
HETATM   25  C15 UNL     1      26.801   0.076  53.711  1.00  0.00    -0.002 A 
HETATM   26  C16 UNL     1      27.242   1.377  53.832  1.00  0.00     0.014 A 
HETATM   27  C17 UNL     1      28.594   1.733  53.777  1.00  0.00     0.001 A 
HETATM   28  C18 UNL     1      29.531   0.721  53.592  1.00  0.00     0.000 A 
HETATM   29  C19 UNL     1      29.115  -0.589  53.468  1.00  0.00     0.001 A 
HETATM   30  C20 UNL     1      27.770  -0.887  53.529  1.00  0.00     0.014 A 
ENDBRANCH   8  25
TORSDOF 8
ENDMDL
MODEL 5
REMARK VINA RESULT:      -8.3      2.645      5.837
REMARK  8 active torsions:
REMARK  status: ('A' for Active; 'I' for Inactive)
REMARK    1  A    between atoms: C2_2  and  C3_3 
REMARK    2  A    between atoms: C3_3  and  C5_5 
REMARK    3  A    between atoms: C5_5  and  N1_6 
REMARK       I    between atoms: N1_6  and  C6_7 
REMARK    4  A    between atoms: C6_7  and  C7_9 
REMARK    5  A    between atoms: C7_9  and  O2_10 
REMARK    6  A    between atoms: O2_10  and  C8_11 
REMARK    7  A    between atoms: C10_13  and  O3_14 
REMARK    8  A    between atoms: C14_19  and  C15_20 
ROOT
HETATM    1  C8  UNL     1      26.572   1.923  51.920  1.00  0.00     0.074 A 
HETATM    2  C9  UNL     1      27.218   1.240  52.931  1.00  0.00     0.074 A 
HETATM    3  C10 UNL     1      26.537   0.375  53.762  1.00  0.00     0.085 A 
HETATM    4  C11 UNL     1      25.184   0.220  53.540  1.00  0.00     0.081 A 
HETATM    5  C12 UNL     1      24.491  -0.644  54.365  1.00  0.00     0.190 A 
HETATM    6  O4  UNL     1      25.057  -1.273  55.287  1.00  0.00    -0.287 OA
HETATM    7  C13 UNL     1      23.138  -0.815  54.161  1.00  0.00     0.094 A 
HETATM    8  C14 UNL     1      22.508  -0.125  53.147  1.00  0.00     0.090 A 
HETATM    9  O5  UNL     1      23.182   0.693  52.372  1.00  0.00    -0.309 OA
HETATM   10  C21 UNL     1      24.489   0.875  52.546  1.00  0.00     0.095 A 
HETATM   11  C22 UNL     1      25.198   1.750  51.714  1.00  0.00     0.075 A 
ENDROOT
BRANCH   1  12
HETATM   12  O2  UNL     1      27.099   2.816  51.011  1.00  0.00    -0.342 OA
BRANCH  12  13
HETATM   13  C7  UNL     1      26.513   3.124  49.761  1.00  0.00     0.278 C 
BRANCH  13  14
HETATM   14  C6  UNL     1      26.511   4.600  49.541  1.00  0.00     0.241 C 
HETATM   15  N1  UNL     1      27.577   5.016  48.684  1.00  0.00    -0.359 N 
HETATM   16  H12 UNL     1      28.308   4.406  48.228  1.00  0.00     0.162 HD
HETATM   17  O1  UNL     1      25.865   5.639  49.869  1.00  0.00    -0.271 OA
BRANCH  15  18
HETATM   18  C5  UNL     1      27.685   6.452  48.389  1.00  0.00     0.126 C 
BRANCH  18  19
HETATM   19  C3  UNL     1      29.093   6.871  48.092  1.00  0.00    -0.001 C 
HETATM   20  C4  UNL     1      30.027   5.680  48.102  1.00  0.00     0.011 C 
BRANCH  19  21
HETATM   21  C2  UNL     1      29.228   7.566  46.761  1.00  0.00     0.001 C 
HETATM   22  C1  UNL     1      27.965   8.296  46.363  1.00  0.00     0.005 C 
ENDBRANCH  19  21
ENDBRANCH  18  19
ENDBRANCH  15  18
ENDBRANCH  13  14
ENDBRANCH  12  13
ENDBRANCH   1  12
BRANCH   3  23
HETATM   23  O3  UNL     1      27.236  -0.287  54.763  1.00  0.00    -0.360 OA
HETATM   24  H16 UNL     1      26.888  -1.174  55.105  1.00  0.00     0.217 HD
ENDBRANCH   3  23
BRANCH   8  25
HETATM   25  C15 UNL     1      21.082  -0.256  52.875  1.00  0.00    -0.002 A 
HETATM   26  C16 UNL     1      20.576   0.305  51.721  1.00  0.00     0.014 A 
HETATM   27  C17 UNL     1      19.225   0.236  51.366  1.00  0.00     0.001 A 
HETATM   28  C18 UNL     1      18.356  -0.432  52.224  1.00  0.00     0.000 A 
HETATM   29  C19 UNL     1      18.836  -1.002  53.385  1.00  0.00     0.001 A 
HETATM   30  C20 UNL     1      20.178  -0.906  53.689  1.00  0.00     0.014 A 
ENDBRANCH   8  25
TORSDOF 8
ENDMDL
MODEL 6
REMARK VINA RESULT:      -8.1      2.227      5.773
REMARK  8 active torsions:
REMARK  status: ('A' for Active; 'I' for Inactive)
REMARK    1  A    between atoms: C2_2  and  C3_3 
REMARK    2  A    between atoms: C3_3  and  C5_5 
REMARK    3  A    between atoms: C5_5  and  N1_6 
REMARK       I    between atoms: N1_6  and  C6_7 
REMARK    4  A    between atoms: C6_7  and  C7_9 
REMARK    5  A    between atoms: C7_9  and  O2_10 
REMARK    6  A    between atoms: O2_10  and  C8_11 
REMARK    7  A    between atoms: C10_13  and  O3_14 
REMARK    8  A    between atoms: C14_19  and  C15_20 
ROOT
HETATM    1  C8  UNL     1      25.644   0.506  52.764  1.00  0.00     0.074 A 
HETATM    2  C9  UNL     1      25.882  -0.177  53.939  1.00  0.00     0.074 A 
HETATM    3  C10 UNL     1      24.857  -0.774  54.643  1.00  0.00     0.085 A 
HETATM    4  C11 UNL     1      23.584  -0.659  54.123  1.00  0.00     0.081 A 
HETATM    5  C12 UNL     1      22.548  -1.252  54.817  1.00  0.00     0.190 A 
HETATM    6  O4  UNL     1      22.742  -1.877  55.884  1.00  0.00    -0.287 OA
HETATM    7  C13 UNL     1      21.268  -1.150  54.316  1.00  0.00     0.094 A 
HETATM    8  C14 UNL     1      21.048  -0.463  53.140  1.00  0.00     0.090 A 
HETATM    9  O5  UNL     1      22.043   0.096  52.493  1.00  0.00    -0.309 OA
HETATM   10  C21 UNL     1      23.289   0.011  52.954  1.00  0.00     0.095 A 
HETATM   11  C22 UNL     1      24.344   0.611  52.255  1.00  0.00     0.075 A 
ENDROOT
BRANCH   1  12
HETATM   12  O2  UNL     1      26.547   1.154  51.947  1.00  0.00    -0.342 OA
BRANCH  12  13
HETATM   13  C7  UNL     1      26.780   2.549  51.960  1.00  0.00     0.278 C 
BRANCH  13  14
HETATM   14  C6  UNL     1      26.615   3.113  50.588  1.00  0.00     0.241 C 
HETATM   15  N1  UNL     1      25.916   4.360  50.601  1.00  0.00    -0.359 N 
HETATM   16  H12 UNL     1      25.536   4.874  51.442  1.00  0.00     0.162 HD
HETATM   17  O1  UNL     1      26.893   2.851  49.381  1.00  0.00    -0.271 OA
BRANCH  15  18
HETATM   18  C5  UNL     1      25.688   5.019  49.308  1.00  0.00     0.126 C 
BRANCH  18  19
HETATM   19  C3  UNL     1      26.334   6.371  49.232  1.00  0.00    -0.001 C 
HETATM   20  C4  UNL     1      27.521   6.353  48.293  1.00  0.00     0.011 C 
BRANCH  19  21
HETATM   21  C2  UNL     1      25.384   7.448  48.773  1.00  0.00     0.001 C 
HETATM   22  C1  UNL     1      25.449   7.672  47.278  1.00  0.00     0.005 C 
ENDBRANCH  19  21
ENDBRANCH  18  19
ENDBRANCH  15  18
ENDBRANCH  13  14
ENDBRANCH  12  13
ENDBRANCH   1  12
BRANCH   3  23
HETATM   23  O3  UNL     1      25.151  -1.450  55.819  1.00  0.00    -0.360 OA
HETATM   24  H16 UNL     1      25.694  -0.984  56.535  1.00  0.00     0.217 HD
ENDBRANCH   3  23
BRANCH   8  25
HETATM   25  C15 UNL     1      19.721  -0.314  52.553  1.00  0.00    -0.002 A 
HETATM   26  C16 UNL     1      18.656  -0.941  53.166  1.00  0.00     0.014 A 
HETATM   27  C17 UNL     1      17.345  -0.862  52.685  1.00  0.00     0.001 A 
HETATM   28  C18 UNL     1      17.113  -0.115  51.534  1.00  0.00     0.000 A 
HETATM   29  C19 UNL     1      18.162   0.521  50.902  1.00  0.00     0.001 A 
HETATM   30  C20 UNL     1      19.436   0.412  51.417  1.00  0.00     0.014 A 
ENDBRANCH   8  25
TORSDOF 8
ENDMDL
MODEL 7
REMARK VINA RESULT:      -7.8      2.075      5.240
REMARK  8 active torsions:
REMARK  status: ('A' for Active; 'I' for Inactive)
REMARK    1  A    between atoms: C2_2  and  C3_3 
REMARK    2  A    between atoms: C3_3  and  C5_5 
REMARK    3  A    between atoms: C5_5  and  N1_6 
REMARK       I    between atoms: N1_6  and  C6_7 
REMARK    4  A    between atoms: C6_7  and  C7_9 
REMARK    5  A    between atoms: C7_9  and  O2_10 
REMARK    6  A    between atoms: O2_10  and  C8_11 
REMARK    7  A    between atoms: C10_13  and  O3_14 
REMARK    8  A    between atoms: C14_19  and  C15_20 
ROOT
HETATM    1  C8  UNL     1      22.085   4.266  51.420  1.00  0.00     0.074 A 
HETATM    2  C9  UNL     1      22.479   4.936  50.279  1.00  0.00     0.074 A 
HETATM    3  C10 UNL     1      23.761   4.818  49.784  1.00  0.00     0.085 A 
HETATM    4  C11 UNL     1      24.633   4.003  50.477  1.00  0.00     0.081 A 
HETATM    5  C12 UNL     1      25.919   3.876  49.993  1.00  0.00     0.190 A 
HETATM    6  O4  UNL     1      26.298   4.473  48.960  1.00  0.00    -0.287 OA
HETATM    7  C13 UNL     1      26.807   3.066  50.668  1.00  0.00     0.094 A 
HETATM    8  C14 UNL     1      26.397   2.404  51.807  1.00  0.00     0.090 A 
HETATM    9  O5  UNL     1      25.170   2.536  52.255  1.00  0.00    -0.309 OA
HETATM   10  C21 UNL     1      24.293   3.311  51.621  1.00  0.00     0.095 A 
HETATM   11  C22 UNL     1      22.987   3.445  52.107  1.00  0.00     0.075 A 
ENDROOT
BRANCH   1  12
HETATM   12  O2  UNL     1      20.853   4.275  52.042  1.00  0.00    -0.342 OA
BRANCH  12  13
HETATM   13  C7  UNL     1      19.733   3.530  51.607  1.00  0.00     0.278 C 
BRANCH  13  14
HETATM   14  C6  UNL     1      20.068   2.077  51.553  1.00  0.00     0.241 C 
HETATM   15  N1  UNL     1      20.070   1.479  52.851  1.00  0.00    -0.359 N 
HETATM   16  H12 UNL     1      19.868   1.949  53.775  1.00  0.00     0.162 HD
HETATM   17  O1  UNL     1      20.361   1.169  50.720  1.00  0.00    -0.271 OA
BRANCH  15  18
HETATM   18  C5  UNL     1      20.387   0.046  52.933  1.00  0.00     0.126 C 
BRANCH  18  19
HETATM   19  C3  UNL     1      21.570  -0.229  53.812  1.00  0.00    -0.001 C 
HETATM   20  C4  UNL     1      21.456  -1.591  54.464  1.00  0.00     0.011 C 
BRANCH  19  21
HETATM   21  C2  UNL     1      22.880  -0.170  53.067  1.00  0.00     0.001 C 
HETATM   22  C1  UNL     1      24.054  -0.559  53.937  1.00  0.00     0.005 C 
ENDBRANCH  19  21
ENDBRANCH  18  19
ENDBRANCH  15  18
ENDBRANCH  13  14
ENDBRANCH  12  13
ENDBRANCH   1  12
BRANCH   3  23
HETATM   23  O3  UNL     1      24.106   5.513  48.633  1.00  0.00    -0.360 OA
HETATM   24  H16 UNL     1      24.318   4.997  47.789  1.00  0.00     0.217 HD
ENDBRANCH   3  23
BRANCH   8  25
HETATM   25  C15 UNL     1      27.281   1.534  52.572  1.00  0.00    -0.002 A 
HETATM   26  C16 UNL     1      27.169   0.169  52.405  1.00  0.00     0.014 A 
HETATM   27  C17 UNL     1      27.968  -0.752  53.090  1.00  0.00     0.001 A 
HETATM   28  C18 UNL     1      28.919  -0.261  53.979  1.00  0.00     0.000 A 
HETATM   29  C19 UNL     1      29.052   1.099  54.164  1.00  0.00     0.001 A 
HETATM   30  C20 UNL     1      28.239   1.966  53.465  1.00  0.00     0.014 A 
ENDBRANCH   8  25
TORSDOF 8
ENDMDL
MODEL 8
REMARK VINA RESULT:      -7.7      2.286      2.872
REMARK  8 active torsions:
REMARK  status: ('A' for Active; 'I' for Inactive)
REMARK    1  A    between atoms: C2_2  and  C3_3 
REMARK    2  A    between atoms: C3_3  and  C5_5 
REMARK    3  A    between atoms: C5_5  and  N1_6 
REMARK       I    between atoms: N1_6  and  C6_7 
REMARK    4  A    between atoms: C6_7  and  C7_9 
REMARK    5  A    between atoms: C7_9  and  O2_10 
REMARK    6  A    between atoms: O2_10  and  C8_11 
REMARK    7  A    between atoms: C10_13  and  O3_14 
REMARK    8  A    between atoms: C14_19  and  C15_20 
ROOT
HETATM    1  C8  UNL     1      21.390   1.878  51.936  1.00  0.00     0.074 A 
HETATM    2  C9  UNL     1      20.557   1.159  52.769  1.00  0.00     0.074 A 
HETATM    3  C10 UNL     1      21.059   0.242  53.669  1.00  0.00     0.085 A 
HETATM    4  C11 UNL     1      22.428   0.074  53.702  1.00  0.00     0.081 A 
HETATM    5  C12 UNL     1      22.944  -0.840  54.599  1.00  0.00     0.190 A 
HETATM    6  O4  UNL     1      22.207  -1.502  55.364  1.00  0.00    -0.287 OA
HETATM    7  C13 UNL     1      24.309  -1.024  54.650  1.00  0.00     0.094 A 
HETATM    8  C14 UNL     1      25.128  -0.298  53.810  1.00  0.00     0.090 A 
HETATM    9  O5  UNL     1      24.621   0.568  52.963  1.00  0.00    -0.309 OA
HETATM   10  C21 UNL     1      23.306   0.765  52.894  1.00  0.00     0.095 A 
HETATM   11  C22 UNL     1      22.777   1.691  51.986  1.00  0.00     0.075 A 
ENDROOT
BRANCH   1  12
HETATM   12  O2  UNL     1      21.054   2.822  50.988  1.00  0.00    -0.342 OA
BRANCH  12  13
HETATM   13  C7  UNL     1      20.451   4.068  51.280  1.00  0.00     0.278 C 
BRANCH  13  14
HETATM   14  C6  UNL     1      21.486   5.141  51.338  1.00  0.00     0.241 C 
HETATM   15  N1  UNL     1      21.032   6.358  50.740  1.00  0.00    -0.359 N 
HETATM   16  H12 UNL     1      20.092   6.542  50.295  1.00  0.00     0.162 HD
HETATM   17  O1  UNL     1      22.667   5.343  51.750  1.00  0.00    -0.271 OA
BRANCH  15  18
HETATM   18  C5  UNL     1      21.963   7.495  50.733  1.00  0.00     0.126 C 
BRANCH  18  19
HETATM   19  C3  UNL     1      22.097   8.117  49.375  1.00  0.00    -0.001 C 
HETATM   20  C4  UNL     1      21.197   9.327  49.241  1.00  0.00     0.011 C 
BRANCH  19  21
HETATM   21  C2  UNL     1      23.509   8.542  49.063  1.00  0.00     0.001 C 
HETATM   22  C1  UNL     1      24.485   8.130  50.143  1.00  0.00     0.005 C 
ENDBRANCH  19  21
ENDBRANCH  18  19
ENDBRANCH  15  18
ENDBRANCH  13  14
ENDBRANCH  12  13
ENDBRANCH   1  12
BRANCH   3  23
HETATM   23  O3  UNL     1      20.177  -0.454  54.485  1.00  0.00    -0.360 OA
HETATM   24  H16 UNL     1      19.689   0.040  55.221  1.00  0.00     0.217 HD
ENDBRANCH   3  23
BRANCH   8  25
HETATM   25  C15 UNL     1      26.578  -0.441  53.808  1.00  0.00    -0.002 A 
HETATM   26  C16 UNL     1      27.323   0.387  54.622  1.00  0.00     0.014 A 
HETATM   27  C17 UNL     1      28.719   0.332  54.695  1.00  0.00     0.001 A 
HETATM   28  C18 UNL     1      29.379  -0.606  53.907  1.00  0.00     0.000 A 
HETATM   29  C19 UNL     1      28.658  -1.446  53.084  1.00  0.00     0.001 A 
HETATM   30  C20 UNL     1      27.282  -1.351  53.049  1.00  0.00     0.014 A 
ENDBRANCH   8  25
TORSDOF 8
ENDMDL
MODEL 9
REMARK VINA RESULT:      -7.7      4.707      8.828
REMARK  8 active torsions:
REMARK  status: ('A' for Active; 'I' for Inactive)
REMARK    1  A    between atoms: C2_2  and  C3_3 
REMARK    2  A    between atoms: C3_3  and  C5_5 
REMARK    3  A    between atoms: C5_5  and  N1_6 
REMARK       I    between atoms: N1_6  and  C6_7 
REMARK    4  A    between atoms: C6_7  and  C7_9 
REMARK    5  A    between atoms: C7_9  and  O2_10 
REMARK    6  A    between atoms: O2_10  and  C8_11 
REMARK    7  A    between atoms: C10_13  and  O3_14 
REMARK    8  A    between atoms: C14_19  and  C15_20 
ROOT
HETATM    1  C8  UNL     1      26.308   5.390  48.944  1.00  0.00     0.074 A 
HETATM    2  C9  UNL     1      26.208   6.739  48.672  1.00  0.00     0.074 A 
HETATM    3  C10 UNL     1      27.295   7.464  48.228  1.00  0.00     0.085 A 
HETATM    4  C11 UNL     1      28.484   6.783  48.066  1.00  0.00     0.081 A 
HETATM    5  C12 UNL     1      29.579   7.497  47.621  1.00  0.00     0.190 A 
HETATM    6  O4  UNL     1      29.511   8.721  47.369  1.00  0.00    -0.287 OA
HETATM    7  C13 UNL     1      30.778   6.837  47.452  1.00  0.00     0.094 A 
HETATM    8  C14 UNL     1      30.860   5.488  47.728  1.00  0.00     0.090 A 
HETATM    9  O5  UNL     1      29.809   4.825  48.151  1.00  0.00    -0.309 OA
HETATM   10  C21 UNL     1      28.639   5.437  48.322  1.00  0.00     0.095 A 
HETATM   11  C22 UNL     1      27.525   4.720  48.773  1.00  0.00     0.075 A 
ENDROOT
BRANCH   1  12
HETATM   12  O2  UNL     1      25.328   4.527  49.391  1.00  0.00    -0.342 OA
BRANCH  12  13
HETATM   13  C7  UNL     1      24.447   4.805  50.462  1.00  0.00     0.278 C 
BRANCH  13  14
HETATM   14  C6  UNL     1      24.481   3.695  51.459  1.00  0.00     0.241 C 
HETATM   15  N1  UNL     1      25.200   2.559  50.974  1.00  0.00    -0.359 N 
HETATM   16  H12 UNL     1      25.673   2.452  50.036  1.00  0.00     0.162 HD
HETATM   17  O1  UNL     1      24.074   3.413  52.625  1.00  0.00    -0.271 OA
BRANCH  15  18
HETATM   18  C5  UNL     1      25.304   1.395  51.865  1.00  0.00     0.126 C 
BRANCH  18  19
HETATM   19  C3  UNL     1      26.684   0.809  51.882  1.00  0.00    -0.001 C 
HETATM   20  C4  UNL     1      27.607   1.618  52.768  1.00  0.00     0.011 C 
BRANCH  19  21
HETATM   21  C2  UNL     1      26.706  -0.621  52.359  1.00  0.00     0.001 C 
HETATM   22  C1  UNL     1      27.939  -0.935  53.177  1.00  0.00     0.005 C 
ENDBRANCH  19  21
ENDBRANCH  18  19
ENDBRANCH  15  18
ENDBRANCH  13  14
ENDBRANCH  12  13
ENDBRANCH   1  12
BRANCH   3  23
HETATM   23  O3  UNL     1      27.140   8.819  47.969  1.00  0.00    -0.360 OA
HETATM   24  H16 UNL     1      26.772   9.113  47.073  1.00  0.00     0.217 HD
ENDBRANCH   3  23
BRANCH   8  25
HETATM   25  C15 UNL     1      32.094   4.728  47.573  1.00  0.00    -0.002 A 
HETATM   26  C16 UNL     1      32.037   3.502  46.941  1.00  0.00     0.014 A 
HETATM   27  C17 UNL     1      33.161   2.694  46.741  1.00  0.00     0.001 A 
HETATM   28  C18 UNL     1      34.390   3.155  47.203  1.00  0.00     0.000 A 
HETATM   29  C19 UNL     1      34.474   4.377  47.839  1.00  0.00     0.001 A 
HETATM   30  C20 UNL     1      33.335   5.136  48.011  1.00  0.00     0.014 A 
ENDBRANCH   8  25
TORSDOF 8
ENDMDL
