MODEL 1
REMARK VINA RESULT:      -7.7      0.000      0.000
REMARK  8 active torsions:
REMARK  status: ('A' for Active; 'I' for Inactive)
REMARK    1  A    between atoms: C2_2  and  N1_3 
REMARK    2  A    between atoms: C2_2  and  C17_22 
REMARK    3  A    between atoms: N1_3  and  C3_4 
REMARK    4  A    between atoms: C3_4  and  C4_5 
REMARK    5  A    between atoms: C5_6  and  C6_7 
REMARK    6  A    between atoms: C5_6  and  N2_10 
REMARK    7  A    between atoms: C6_7  and  C7_8 
REMARK    8  A    between atoms: C7_8  and  O1_9 
ROOT
HETATM    1  C4  UNL     1      23.495   1.283  51.691  1.00  0.00     0.017 C 
HETATM    2  C5  UNL     1      23.927   0.584  52.759  1.00  0.00     0.009 C 
ENDROOT
BRANCH   2   3
HETATM    3  C6  UNL     1      22.919   0.196  53.812  1.00  0.00     0.082 C 
BRANCH   3   4
HETATM    4  C7  UNL     1      22.307  -1.115  53.883  1.00  0.00     0.170 C 
BRANCH   4   5
HETATM    5  O1  UNL     1      22.267  -1.528  55.266  1.00  0.00    -0.400 OA
HETATM    6  H11 UNL     1      23.181  -1.354  55.621  1.00  0.00     0.209 HD
ENDBRANCH   4   5
ENDBRANCH   3   4
ENDBRANCH   2   3
BRANCH   2   7
HETATM    7  N2  UNL     1      25.114  -0.038  53.084  1.00  0.00    -0.349 N 
HETATM    8  C8  UNL     1      26.007  -1.136  52.553  1.00  0.00     0.269 C 
HETATM    9  N3  UNL     1      27.330  -0.388  52.909  1.00  0.00    -0.296 NA
HETATM   10  C9  UNL     1      27.609  -0.427  54.214  1.00  0.00     0.091 A 
HETATM   11  C10 UNL     1      26.674  -0.059  55.294  1.00  0.00     0.065 A 
HETATM   12  C16 UNL     1      29.113  -0.448  54.023  1.00  0.00     0.065 C 
HETATM   13  C11 UNL     1      25.960   0.224  54.169  1.00  0.00     0.108 A 
HETATM   14  C15 UNL     1      29.499   1.037  53.882  1.00  0.00    -0.005 C 
HETATM   15  C14 UNL     1      28.717   2.176  53.824  1.00  0.00     0.112 C 
HETATM   16  N4  UNL     1      27.314   2.683  53.773  1.00  0.00    -0.268 NA
HETATM   17  C12 UNL     1      26.205   1.797  53.802  1.00  0.00     0.039 C 
HETATM   18  C13 UNL     1      24.977   2.522  53.343  1.00  0.00     0.068 C 
ENDBRANCH   2   7
BRANCH   1  19
HETATM   19  C3  UNL     1      22.181   1.792  51.285  1.00  0.00     0.148 C 
BRANCH  19  20
HETATM   20  N1  UNL     1      22.377   2.714  50.152  1.00  0.00    -0.389 N 
HETATM   21  H3  UNL     1      21.878   2.566  49.248  1.00  0.00     0.159 HD
BRANCH  20  22
HETATM   22  C2  UNL     1      23.219   3.861  50.129  1.00  0.00     0.007 C 
HETATM   23  C1  UNL     1      23.101   4.836  51.011  1.00  0.00     0.039 C 
BRANCH  22  24
HETATM   24  C17 UNL     1      24.267   3.975  49.079  1.00  0.00     0.079 A 
HETATM   25  C18 UNL     1      25.498   3.253  49.489  1.00  0.00    -0.012 A 
HETATM   26  C19 UNL     1      26.525   4.077  49.617  1.00  0.00    -0.003 A 
HETATM   27  C20 UNL     1      26.080   5.443  49.305  1.00  0.00    -0.003 A 
HETATM   28  C21 UNL     1      24.780   5.368  48.996  1.00  0.00    -0.012 A 
ENDBRANCH  22  24
ENDBRANCH  20  22
ENDBRANCH  19  20
ENDBRANCH   1  19
TORSDOF 8
ENDMDL
MODEL 2
REMARK VINA RESULT:      -7.4      2.648      6.863
REMARK  8 active torsions:
REMARK  status: ('A' for Active; 'I' for Inactive)
REMARK    1  A    between atoms: C2_2  and  N1_3 
REMARK    2  A    between atoms: C2_2  and  C17_22 
REMARK    3  A    between atoms: N1_3  and  C3_4 
REMARK    4  A    between atoms: C3_4  and  C4_5 
REMARK    5  A    between atoms: C5_6  and  C6_7 
REMARK    6  A    between atoms: C5_6  and  N2_10 
REMARK    7  A    between atoms: C6_7  and  C7_8 
REMARK    8  A    between atoms: C7_8  and  O1_9 
ROOT
HETATM    1  C4  UNL     1      24.833   2.393  51.153  1.00  0.00     0.017 C 
HETATM    2  C5  UNL     1      23.658   3.023  51.348  1.00  0.00     0.009 C 
ENDROOT
BRANCH   2   3
HETATM    3  C6  UNL     1      23.670   4.341  52.081  1.00  0.00     0.082 C 
BRANCH   3   4
HETATM    4  C7  UNL     1      23.710   5.624  51.411  1.00  0.00     0.170 C 
BRANCH   4   5
HETATM    5  O1  UNL     1      24.230   6.607  52.332  1.00  0.00    -0.400 OA
HETATM    6  H11 UNL     1      24.633   6.084  53.078  1.00  0.00     0.209 HD
ENDBRANCH   4   5
ENDBRANCH   3   4
ENDBRANCH   2   3
BRANCH   2   7
HETATM    7  N2  UNL     1      22.374   2.826  50.886  1.00  0.00    -0.349 N 
HETATM    8  C8  UNL     1      21.661   2.572  49.577  1.00  0.00     0.269 C 
HETATM    9  N3  UNL     1      20.642   1.566  50.197  1.00  0.00    -0.296 NA
HETATM   10  C9  UNL     1      19.686   2.172  50.907  1.00  0.00     0.091 A 
HETATM   11  C10 UNL     1      19.920   3.165  51.971  1.00  0.00     0.065 A 
HETATM   12  C16 UNL     1      18.611   1.158  50.567  1.00  0.00     0.065 C 
HETATM   13  C11 UNL     1      21.183   2.796  51.623  1.00  0.00     0.108 A 
HETATM   14  C15 UNL     1      18.808   0.034  51.603  1.00  0.00    -0.005 C 
HETATM   15  C14 UNL     1      19.774  -0.143  52.577  1.00  0.00     0.112 C 
HETATM   16  N4  UNL     1      21.042   0.407  53.142  1.00  0.00    -0.268 NA
HETATM   17  C12 UNL     1      21.641   1.580  52.612  1.00  0.00     0.039 C 
HETATM   18  C13 UNL     1      23.061   1.667  53.083  1.00  0.00     0.068 C 
ENDBRANCH   2   7
BRANCH   1  19
HETATM   19  C3  UNL     1      26.218   2.710  51.513  1.00  0.00     0.148 C 
BRANCH  19  20
HETATM   20  N1  UNL     1      26.400   2.408  52.944  1.00  0.00    -0.389 N 
HETATM   21  H3  UNL     1      25.652   2.627  53.638  1.00  0.00     0.159 HD
BRANCH  20  22
HETATM   22  C2  UNL     1      27.546   1.815  53.545  1.00  0.00     0.007 C 
HETATM   23  C1  UNL     1      28.671   2.483  53.723  1.00  0.00     0.039 C 
BRANCH  22  24
HETATM   24  C17 UNL     1      27.484   0.396  53.988  1.00  0.00     0.079 A 
HETATM   25  C18 UNL     1      27.542  -0.518  52.819  1.00  0.00    -0.012 A 
HETATM   26  C19 UNL     1      26.435  -1.235  52.707  1.00  0.00    -0.003 A 
HETATM   27  C20 UNL     1      25.520  -0.868  53.798  1.00  0.00    -0.003 A 
HETATM   28  C21 UNL     1      26.138   0.070  54.526  1.00  0.00    -0.012 A 
ENDBRANCH  22  24
ENDBRANCH  20  22
ENDBRANCH  19  20
ENDBRANCH   1  19
TORSDOF 8
ENDMDL
MODEL 3
REMARK VINA RESULT:      -7.2      2.743      6.859
REMARK  8 active torsions:
REMARK  status: ('A' for Active; 'I' for Inactive)
REMARK    1  A    between atoms: C2_2  and  N1_3 
REMARK    2  A    between atoms: C2_2  and  C17_22 
REMARK    3  A    between atoms: N1_3  and  C3_4 
REMARK    4  A    between atoms: C3_4  and  C4_5 
REMARK    5  A    between atoms: C5_6  and  C6_7 
REMARK    6  A    between atoms: C5_6  and  N2_10 
REMARK    7  A    between atoms: C6_7  and  C7_8 
REMARK    8  A    between atoms: C7_8  and  O1_9 
ROOT
HETATM    1  C4  UNL     1      24.552   2.715  50.792  1.00  0.00     0.017 C 
HETATM    2  C5  UNL     1      23.376   3.264  51.155  1.00  0.00     0.009 C 
ENDROOT
BRANCH   2   3
HETATM    3  C6  UNL     1      23.405   4.547  51.947  1.00  0.00     0.082 C 
BRANCH   3   4
HETATM    4  C7  UNL     1      23.519   5.856  51.339  1.00  0.00     0.170 C 
BRANCH   4   5
HETATM    5  O1  UNL     1      24.337   6.689  52.189  1.00  0.00    -0.400 OA
HETATM    6  H11 UNL     1      25.239   6.692  51.767  1.00  0.00     0.209 HD
ENDBRANCH   4   5
ENDBRANCH   3   4
ENDBRANCH   2   3
BRANCH   2   7
HETATM    7  N2  UNL     1      22.059   3.011  50.839  1.00  0.00    -0.349 N 
HETATM    8  C8  UNL     1      21.206   2.778  49.612  1.00  0.00     0.269 C 
HETATM    9  N3  UNL     1      20.329   1.680  50.290  1.00  0.00    -0.296 NA
HETATM   10  C9  UNL     1      19.434   2.189  51.142  1.00  0.00     0.091 A 
HETATM   11  C10 UNL     1      19.740   3.140  52.226  1.00  0.00     0.065 A 
HETATM   12  C16 UNL     1      18.385   1.127  50.875  1.00  0.00     0.065 C 
HETATM   13  C11 UNL     1      20.970   2.869  51.710  1.00  0.00     0.108 A 
HETATM   14  C15 UNL     1      18.770  -0.032  51.814  1.00  0.00    -0.005 C 
HETATM   15  C14 UNL     1      19.856  -0.196  52.655  1.00  0.00     0.112 C 
HETATM   16  N4  UNL     1      21.151   0.403  53.096  1.00  0.00    -0.268 NA
HETATM   17  C12 UNL     1      21.613   1.636  52.567  1.00  0.00     0.039 C 
HETATM   18  C13 UNL     1      23.073   1.789  52.869  1.00  0.00     0.068 C 
ENDBRANCH   2   7
BRANCH   1  19
HETATM   19  C3  UNL     1      25.951   3.100  51.001  1.00  0.00     0.148 C 
BRANCH  19  20
HETATM   20  N1  UNL     1      26.757   1.868  51.088  1.00  0.00    -0.389 N 
HETATM   21  H3  UNL     1      27.375   1.576  50.300  1.00  0.00     0.159 HD
BRANCH  20  22
HETATM   22  C2  UNL     1      26.804   0.963  52.185  1.00  0.00     0.007 C 
HETATM   23  C1  UNL     1      26.577  -0.330  52.038  1.00  0.00     0.039 C 
BRANCH  22  24
HETATM   24  C17 UNL     1      27.114   1.480  53.545  1.00  0.00     0.079 A 
HETATM   25  C18 UNL     1      28.425   2.177  53.551  1.00  0.00    -0.012 A 
HETATM   26  C19 UNL     1      29.293   1.571  54.346  1.00  0.00    -0.003 A 
HETATM   27  C20 UNL     1      28.644   0.400  54.952  1.00  0.00    -0.003 A 
HETATM   28  C21 UNL     1      27.392   0.362  54.483  1.00  0.00    -0.012 A 
ENDBRANCH  22  24
ENDBRANCH  20  22
ENDBRANCH  19  20
ENDBRANCH   1  19
TORSDOF 8
ENDMDL
MODEL 4
REMARK VINA RESULT:      -7.2      2.845      5.026
REMARK  8 active torsions:
REMARK  status: ('A' for Active; 'I' for Inactive)
REMARK    1  A    between atoms: C2_2  and  N1_3 
REMARK    2  A    between atoms: C2_2  and  C17_22 
REMARK    3  A    between atoms: N1_3  and  C3_4 
REMARK    4  A    between atoms: C3_4  and  C4_5 
REMARK    5  A    between atoms: C5_6  and  C6_7 
REMARK    6  A    between atoms: C5_6  and  N2_10 
REMARK    7  A    between atoms: C6_7  and  C7_8 
REMARK    8  A    between atoms: C7_8  and  O1_9 
ROOT
HETATM    1  C4  UNL     1      22.578   0.441  53.822  1.00  0.00     0.017 C 
HETATM    2  C5  UNL     1      23.445   0.896  52.896  1.00  0.00     0.009 C 
ENDROOT
BRANCH   2   3
HETATM    3  C6  UNL     1      23.048   0.805  51.443  1.00  0.00     0.082 C 
BRANCH   3   4
HETATM    4  C7  UNL     1      22.810   1.965  50.609  1.00  0.00     0.170 C 
BRANCH   4   5
HETATM    5  O1  UNL     1      22.088   1.544  49.432  1.00  0.00    -0.400 OA
HETATM    6  H11 UNL     1      21.459   2.289  49.227  1.00  0.00     0.209 HD
ENDBRANCH   4   5
ENDBRANCH   3   4
ENDBRANCH   2   3
BRANCH   2   7
HETATM    7  N2  UNL     1      24.625   1.607  52.951  1.00  0.00    -0.349 N 
HETATM    8  C8  UNL     1      25.141   2.915  53.510  1.00  0.00     0.269 C 
HETATM    9  N3  UNL     1      26.515   2.317  53.943  1.00  0.00    -0.296 NA
HETATM   10  C9  UNL     1      27.342   2.124  52.912  1.00  0.00     0.091 A 
HETATM   11  C10 UNL     1      27.000   1.402  51.673  1.00  0.00     0.065 A 
HETATM   12  C16 UNL     1      28.603   2.412  53.704  1.00  0.00     0.065 C 
HETATM   13  C11 UNL     1      25.875   1.256  52.426  1.00  0.00     0.108 A 
HETATM   14  C15 UNL     1      28.952   1.065  54.365  1.00  0.00    -0.005 C 
HETATM   15  C14 UNL     1      28.277  -0.142  54.378  1.00  0.00     0.112 C 
HETATM   16  N4  UNL     1      27.020  -0.833  53.963  1.00  0.00    -0.268 NA
HETATM   17  C12 UNL     1      26.001  -0.150  53.249  1.00  0.00     0.039 C 
HETATM   18  C13 UNL     1      24.730  -0.941  53.319  1.00  0.00     0.068 C 
ENDBRANCH   2   7
BRANCH   1  19
HETATM   19  C3  UNL     1      21.246  -0.165  53.742  1.00  0.00     0.148 C 
BRANCH  19  20
HETATM   20  N1  UNL     1      20.262   0.915  53.545  1.00  0.00    -0.389 N 
HETATM   21  H3  UNL     1      19.959   1.516  54.342  1.00  0.00     0.159 HD
BRANCH  20  22
HETATM   22  C2  UNL     1      19.625   1.269  52.322  1.00  0.00     0.007 C 
HETATM   23  C1  UNL     1      19.387   2.525  51.993  1.00  0.00     0.039 C 
BRANCH  22  24
HETATM   24  C17 UNL     1      19.208   0.195  51.380  1.00  0.00     0.079 A 
HETATM   25  C18 UNL     1      18.661   0.782  50.131  1.00  0.00    -0.012 A 
HETATM   26  C19 UNL     1      17.388   0.461  49.961  1.00  0.00    -0.003 A 
HETATM   27  C20 UNL     1      16.955  -0.377  51.089  1.00  0.00    -0.003 A 
HETATM   28  C21 UNL     1      18.012  -0.521  51.895  1.00  0.00    -0.012 A 
ENDBRANCH  22  24
ENDBRANCH  20  22
ENDBRANCH  19  20
ENDBRANCH   1  19
TORSDOF 8
ENDMDL
MODEL 5
REMARK VINA RESULT:      -6.9      1.860      6.182
REMARK  8 active torsions:
REMARK  status: ('A' for Active; 'I' for Inactive)
REMARK    1  A    between atoms: C2_2  and  N1_3 
REMARK    2  A    between atoms: C2_2  and  C17_22 
REMARK    3  A    between atoms: N1_3  and  C3_4 
REMARK    4  A    between atoms: C3_4  and  C4_5 
REMARK    5  A    between atoms: C5_6  and  C6_7 
REMARK    6  A    between atoms: C5_6  and  N2_10 
REMARK    7  A    between atoms: C6_7  and  C7_8 
REMARK    8  A    between atoms: C7_8  and  O1_9 
ROOT
HETATM    1  C4  UNL     1      23.138   1.144  52.776  1.00  0.00     0.017 C 
HETATM    2  C5  UNL     1      22.467   1.766  51.786  1.00  0.00     0.009 C 
ENDROOT
BRANCH   2   3
HETATM    3  C6  UNL     1      21.850   0.918  50.702  1.00  0.00     0.082 C 
BRANCH   3   4
HETATM    4  C7  UNL     1      20.425   0.681  50.592  1.00  0.00     0.170 C 
BRANCH   4   5
HETATM    5  O1  UNL     1      19.865   0.620  51.921  1.00  0.00    -0.400 OA
HETATM    6  H11 UNL     1      19.492   1.527  52.092  1.00  0.00     0.209 HD
ENDBRANCH   4   5
ENDBRANCH   3   4
ENDBRANCH   2   3
BRANCH   2   7
HETATM    7  N2  UNL     1      22.048   3.062  51.577  1.00  0.00    -0.349 N 
HETATM    8  C8  UNL     1      21.237   4.125  52.284  1.00  0.00     0.269 C 
HETATM    9  N3  UNL     1      22.167   5.294  51.833  1.00  0.00    -0.296 NA
HETATM   10  C9  UNL     1      21.988   5.632  50.553  1.00  0.00     0.091 A 
HETATM   11  C10 UNL     1      22.001   4.691  49.418  1.00  0.00     0.065 A 
HETATM   12  C16 UNL     1      22.289   7.103  50.765  1.00  0.00     0.065 C 
HETATM   13  C11 UNL     1      22.304   3.889  50.475  1.00  0.00     0.108 A 
HETATM   14  C15 UNL     1      23.825   7.192  50.680  1.00  0.00    -0.005 C 
HETATM   15  C14 UNL     1      24.786   6.206  50.550  1.00  0.00     0.112 C 
HETATM   16  N4  UNL     1      25.011   4.731  50.504  1.00  0.00    -0.268 NA
HETATM   17  C12 UNL     1      23.931   3.814  50.598  1.00  0.00     0.039 C 
HETATM   18  C13 UNL     1      24.464   2.451  50.923  1.00  0.00     0.068 C 
ENDBRANCH   2   7
BRANCH   1  19
HETATM   19  C3  UNL     1      23.429  -0.263  53.066  1.00  0.00     0.148 C 
BRANCH  19  20
HETATM   20  N1  UNL     1      24.598  -0.314  53.962  1.00  0.00    -0.389 N 
HETATM   21  H3  UNL     1      24.481  -0.478  54.986  1.00  0.00     0.159 HD
BRANCH  20  22
HETATM   22  C2  UNL     1      25.961  -0.159  53.586  1.00  0.00     0.007 C 
HETATM   23  C1  UNL     1      26.478  -0.784  52.544  1.00  0.00     0.039 C 
BRANCH  22  24
HETATM   24  C17 UNL     1      26.842   0.732  54.388  1.00  0.00     0.079 A 
HETATM   25  C18 UNL     1      27.015   2.042  53.711  1.00  0.00    -0.012 A 
HETATM   26  C19 UNL     1      28.278   2.255  53.379  1.00  0.00    -0.003 A 
HETATM   27  C20 UNL     1      29.081   1.099  53.804  1.00  0.00    -0.003 A 
HETATM   28  C21 UNL     1      28.242   0.233  54.383  1.00  0.00    -0.012 A 
ENDBRANCH  22  24
ENDBRANCH  20  22
ENDBRANCH  19  20
ENDBRANCH   1  19
TORSDOF 8
ENDMDL
MODEL 6
REMARK VINA RESULT:      -6.9      2.811      7.406
REMARK  8 active torsions:
REMARK  status: ('A' for Active; 'I' for Inactive)
REMARK    1  A    between atoms: C2_2  and  N1_3 
REMARK    2  A    between atoms: C2_2  and  C17_22 
REMARK    3  A    between atoms: N1_3  and  C3_4 
REMARK    4  A    between atoms: C3_4  and  C4_5 
REMARK    5  A    between atoms: C5_6  and  C6_7 
REMARK    6  A    between atoms: C5_6  and  N2_10 
REMARK    7  A    between atoms: C6_7  and  C7_8 
REMARK    8  A    between atoms: C7_8  and  O1_9 
ROOT
HETATM    1  C4  UNL     1      25.343   2.801  50.566  1.00  0.00     0.017 C 
HETATM    2  C5  UNL     1      24.632   3.862  50.136  1.00  0.00     0.009 C 
ENDROOT
BRANCH   2   3
HETATM    3  C6  UNL     1      25.312   5.208  50.105  1.00  0.00     0.082 C 
BRANCH   3   4
HETATM    4  C7  UNL     1      26.082   5.685  48.975  1.00  0.00     0.170 C 
BRANCH   4   5
HETATM    5  O1  UNL     1      27.486   5.564  49.292  1.00  0.00    -0.400 OA
HETATM    6  H11 UNL     1      27.619   4.610  49.544  1.00  0.00     0.209 HD
ENDBRANCH   4   5
ENDBRANCH   3   4
ENDBRANCH   2   3
BRANCH   2   7
HETATM    7  N2  UNL     1      23.401   4.015  49.536  1.00  0.00    -0.349 N 
HETATM    8  C8  UNL     1      22.633   3.464  48.355  1.00  0.00     0.269 C 
HETATM    9  N3  UNL     1      21.269   3.431  49.113  1.00  0.00    -0.296 NA
HETATM   10  C9  UNL     1      20.722   4.643  49.243  1.00  0.00     0.091 A 
HETATM   11  C10 UNL     1      21.412   5.833  49.774  1.00  0.00     0.065 A 
HETATM   12  C16 UNL     1      19.292   4.147  49.160  1.00  0.00     0.065 C 
HETATM   13  C11 UNL     1      22.347   4.854  49.920  1.00  0.00     0.108 A 
HETATM   14  C15 UNL     1      18.951   3.728  50.603  1.00  0.00    -0.005 C 
HETATM   15  C14 UNL     1      19.733   3.679  51.743  1.00  0.00     0.112 C 
HETATM   16  N4  UNL     1      21.119   3.853  52.271  1.00  0.00    -0.268 NA
HETATM   17  C12 UNL     1      22.192   4.233  51.423  1.00  0.00     0.039 C 
HETATM   18  C13 UNL     1      23.493   3.944  52.110  1.00  0.00     0.068 C 
ENDBRANCH   2   7
BRANCH   1  19
HETATM   19  C3  UNL     1      26.718   2.637  51.046  1.00  0.00     0.148 C 
BRANCH  19  20
HETATM   20  N1  UNL     1      26.692   2.635  52.520  1.00  0.00    -0.389 N 
HETATM   21  H3  UNL     1      25.964   3.169  53.044  1.00  0.00     0.159 HD
BRANCH  20  22
HETATM   22  C2  UNL     1      27.594   1.952  53.383  1.00  0.00     0.007 C 
HETATM   23  C1  UNL     1      28.768   2.459  53.715  1.00  0.00     0.039 C 
BRANCH  22  24
HETATM   24  C17 UNL     1      27.215   0.621  53.929  1.00  0.00     0.079 A 
HETATM   25  C18 UNL     1      27.622  -0.460  52.997  1.00  0.00    -0.012 A 
HETATM   26  C19 UNL     1      26.574  -1.127  52.540  1.00  0.00    -0.003 A 
HETATM   27  C20 UNL     1      25.354  -0.553  53.125  1.00  0.00    -0.003 A 
HETATM   28  C21 UNL     1      25.739   0.451  53.921  1.00  0.00    -0.012 A 
ENDBRANCH  22  24
ENDBRANCH  20  22
ENDBRANCH  19  20
ENDBRANCH   1  19
TORSDOF 8
ENDMDL
MODEL 7
REMARK VINA RESULT:      -6.8      2.631      6.737
REMARK  8 active torsions:
REMARK  status: ('A' for Active; 'I' for Inactive)
REMARK    1  A    between atoms: C2_2  and  N1_3 
REMARK    2  A    between atoms: C2_2  and  C17_22 
REMARK    3  A    between atoms: N1_3  and  C3_4 
REMARK    4  A    between atoms: C3_4  and  C4_5 
REMARK    5  A    between atoms: C5_6  and  C6_7 
REMARK    6  A    between atoms: C5_6  and  N2_10 
REMARK    7  A    between atoms: C6_7  and  C7_8 
REMARK    8  A    between atoms: C7_8  and  O1_9 
ROOT
HETATM    1  C4  UNL     1      24.061   3.545  52.116  1.00  0.00     0.017 C 
HETATM    2  C5  UNL     1      23.782   4.291  51.029  1.00  0.00     0.009 C 
ENDROOT
BRANCH   2   3
HETATM    3  C6  UNL     1      22.617   3.880  50.164  1.00  0.00     0.082 C 
BRANCH   3   4
HETATM    4  C7  UNL     1      21.355   4.589  50.138  1.00  0.00     0.170 C 
BRANCH   4   5
HETATM    5  O1  UNL     1      20.948   4.854  51.498  1.00  0.00    -0.400 OA
HETATM    6  H11 UNL     1      20.726   3.964  51.886  1.00  0.00     0.209 HD
ENDBRANCH   4   5
ENDBRANCH   3   4
ENDBRANCH   2   3
BRANCH   2   7
HETATM    7  N2  UNL     1      24.232   5.504  50.555  1.00  0.00    -0.349 N 
HETATM    8  C8  UNL     1      24.479   6.906  51.066  1.00  0.00     0.269 C 
HETATM    9  N3  UNL     1      25.783   7.102  50.232  1.00  0.00    -0.296 NA
HETATM   10  C9  UNL     1      25.539   7.330  48.939  1.00  0.00     0.091 A 
HETATM   11  C10 UNL     1      24.671   6.503  48.080  1.00  0.00     0.065 A 
HETATM   12  C16 UNL     1      26.736   8.239  48.741  1.00  0.00     0.065 C 
HETATM   13  C11 UNL     1      24.660   5.825  49.260  1.00  0.00     0.108 A 
HETATM   14  C15 UNL     1      27.903   7.274  48.454  1.00  0.00    -0.005 C 
HETATM   15  C14 UNL     1      27.960   5.892  48.461  1.00  0.00     0.112 C 
HETATM   16  N4  UNL     1      27.189   4.648  48.756  1.00  0.00    -0.268 NA
HETATM   17  C12 UNL     1      25.843   4.699  49.203  1.00  0.00     0.039 C 
HETATM   18  C13 UNL     1      25.464   3.374  49.792  1.00  0.00     0.068 C 
ENDBRANCH   2   7
BRANCH   1  19
HETATM   19  C3  UNL     1      23.455   2.342  52.695  1.00  0.00     0.148 C 
BRANCH  19  20
HETATM   20  N1  UNL     1      24.539   1.404  53.040  1.00  0.00    -0.389 N 
HETATM   21  H3  UNL     1      25.540   1.686  52.954  1.00  0.00     0.159 HD
BRANCH  20  22
HETATM   22  C2  UNL     1      24.386   0.069  53.508  1.00  0.00     0.007 C 
HETATM   23  C1  UNL     1      23.203  -0.507  53.614  1.00  0.00     0.039 C 
BRANCH  22  24
HETATM   24  C17 UNL     1      25.593  -0.710  53.898  1.00  0.00     0.079 A 
HETATM   25  C18 UNL     1      26.427   0.063  54.852  1.00  0.00    -0.012 A 
HETATM   26  C19 UNL     1      27.621   0.331  54.347  1.00  0.00    -0.003 A 
HETATM   27  C20 UNL     1      27.704  -0.241  52.996  1.00  0.00    -0.003 A 
HETATM   28  C21 UNL     1      26.531  -0.836  52.752  1.00  0.00    -0.012 A 
ENDBRANCH  22  24
ENDBRANCH  20  22
ENDBRANCH  19  20
ENDBRANCH   1  19
TORSDOF 8
ENDMDL
MODEL 8
REMARK VINA RESULT:      -6.7      2.099      6.633
REMARK  8 active torsions:
REMARK  status: ('A' for Active; 'I' for Inactive)
REMARK    1  A    between atoms: C2_2  and  N1_3 
REMARK    2  A    between atoms: C2_2  and  C17_22 
REMARK    3  A    between atoms: N1_3  and  C3_4 
REMARK    4  A    between atoms: C3_4  and  C4_5 
REMARK    5  A    between atoms: C5_6  and  C6_7 
REMARK    6  A    between atoms: C5_6  and  N2_10 
REMARK    7  A    between atoms: C6_7  and  C7_8 
REMARK    8  A    between atoms: C7_8  and  O1_9 
ROOT
HETATM    1  C4  UNL     1      24.399   2.050  52.245  1.00  0.00     0.017 C 
HETATM    2  C5  UNL     1      23.595   2.653  51.348  1.00  0.00     0.009 C 
ENDROOT
BRANCH   2   3
HETATM    3  C6  UNL     1      22.870   1.788  50.347  1.00  0.00     0.082 C 
BRANCH   3   4
HETATM    4  C7  UNL     1      21.494   1.367  50.507  1.00  0.00     0.170 C 
BRANCH   4   5
HETATM    5  O1  UNL     1      21.190   1.318  51.917  1.00  0.00    -0.400 OA
HETATM    6  H11 UNL     1      20.631   0.502  52.039  1.00  0.00     0.209 HD
ENDBRANCH   4   5
ENDBRANCH   3   4
ENDBRANCH   2   3
BRANCH   2   7
HETATM    7  N2  UNL     1      23.118   3.937  51.196  1.00  0.00    -0.349 N 
HETATM    8  C8  UNL     1      22.377   4.980  52.003  1.00  0.00     0.269 C 
HETATM    9  N3  UNL     1      23.210   6.173  51.437  1.00  0.00    -0.296 NA
HETATM   10  C9  UNL     1      22.860   6.502  50.191  1.00  0.00     0.091 A 
HETATM   11  C10 UNL     1      22.750   5.560  49.063  1.00  0.00     0.065 A 
HETATM   12  C16 UNL     1      23.147   7.981  50.365  1.00  0.00     0.065 C 
HETATM   13  C11 UNL     1      23.208   4.768  50.071  1.00  0.00     0.108 A 
HETATM   14  C15 UNL     1      24.656   8.111  50.081  1.00  0.00    -0.005 C 
HETATM   15  C14 UNL     1      25.618   7.149  49.828  1.00  0.00     0.112 C 
HETATM   16  N4  UNL     1      25.873   5.680  49.751  1.00  0.00    -0.268 NA
HETATM   17  C12 UNL     1      24.839   4.736  49.983  1.00  0.00     0.039 C 
HETATM   18  C13 UNL     1      25.445   3.389  50.235  1.00  0.00     0.068 C 
ENDBRANCH   2   7
BRANCH   1  19
HETATM   19  C3  UNL     1      24.762   0.651  52.492  1.00  0.00     0.148 C 
BRANCH  19  20
HETATM   20  N1  UNL     1      26.186   0.480  52.155  1.00  0.00    -0.389 N 
HETATM   21  H3  UNL     1      26.475   0.055  51.247  1.00  0.00     0.159 HD
BRANCH  20  22
HETATM   22  C2  UNL     1      27.298   0.847  52.964  1.00  0.00     0.007 C 
HETATM   23  C1  UNL     1      27.832   2.053  52.918  1.00  0.00     0.039 C 
BRANCH  22  24
HETATM   24  C17 UNL     1      27.887  -0.157  53.891  1.00  0.00     0.079 A 
HETATM   25  C18 UNL     1      29.341   0.087  54.068  1.00  0.00    -0.012 A 
HETATM   26  C19 UNL     1      30.062  -0.931  53.626  1.00  0.00    -0.003 A 
HETATM   27  C20 UNL     1      29.155  -1.963  53.105  1.00  0.00    -0.003 A 
HETATM   28  C21 UNL     1      27.909  -1.504  53.265  1.00  0.00    -0.012 A 
ENDBRANCH  22  24
ENDBRANCH  20  22
ENDBRANCH  19  20
ENDBRANCH   1  19
TORSDOF 8
ENDMDL
MODEL 9
REMARK VINA RESULT:      -6.7      7.693     11.028
REMARK  8 active torsions:
REMARK  status: ('A' for Active; 'I' for Inactive)
REMARK    1  A    between atoms: C2_2  and  N1_3 
REMARK    2  A    between atoms: C2_2  and  C17_22 
REMARK    3  A    between atoms: N1_3  and  C3_4 
REMARK    4  A    between atoms: C3_4  and  C4_5 
REMARK    5  A    between atoms: C5_6  and  C6_7 
REMARK    6  A    between atoms: C5_6  and  N2_10 
REMARK    7  A    between atoms: C6_7  and  C7_8 
REMARK    8  A    between atoms: C7_8  and  O1_9 
ROOT
HETATM    1  C4  UNL     1      32.560   7.615  48.355  1.00  0.00     0.017 C 
HETATM    2  C5  UNL     1      31.478   7.699  47.556  1.00  0.00     0.009 C 
ENDROOT
BRANCH   2   3
HETATM    3  C6  UNL     1      31.640   8.350  46.205  1.00  0.00     0.082 C 
BRANCH   3   4
HETATM    4  C7  UNL     1      31.900   7.608  44.989  1.00  0.00     0.170 C 
BRANCH   4   5
HETATM    5  O1  UNL     1      33.324   7.598  44.753  1.00  0.00    -0.400 OA
HETATM    6  H11 UNL     1      33.741   7.770  45.641  1.00  0.00     0.209 HD
ENDBRANCH   4   5
ENDBRANCH   3   4
ENDBRANCH   2   3
BRANCH   2   7
HETATM    7  N2  UNL     1      30.205   7.172  47.603  1.00  0.00    -0.349 N 
HETATM    8  C8  UNL     1      29.533   5.836  47.830  1.00  0.00     0.269 C 
HETATM    9  N3  UNL     1      28.355   6.442  48.655  1.00  0.00    -0.296 NA
HETATM   10  C9  UNL     1      27.455   7.066  47.890  1.00  0.00     0.091 A 
HETATM   11  C10 UNL     1      27.767   8.094  46.881  1.00  0.00     0.065 A 
HETATM   12  C16 UNL     1      26.272   6.711  48.768  1.00  0.00     0.065 C 
HETATM   13  C11 UNL     1      28.984   7.838  47.434  1.00  0.00     0.108 A 
HETATM   14  C15 UNL     1      26.259   7.807  49.850  1.00  0.00    -0.005 C 
HETATM   15  C14 UNL     1      27.139   8.844  50.102  1.00  0.00     0.112 C 
HETATM   16  N4  UNL     1      28.440   9.456  49.697  1.00  0.00    -0.268 NA
HETATM   17  C12 UNL     1      29.220   8.909  48.645  1.00  0.00     0.039 C 
HETATM   18  C13 UNL     1      30.613   9.457  48.724  1.00  0.00     0.068 C 
ENDBRANCH   2   7
BRANCH   1  19
HETATM   19  C3  UNL     1      33.956   8.039  48.209  1.00  0.00     0.148 C 
BRANCH  19  20
HETATM   20  N1  UNL     1      34.686   6.975  47.496  1.00  0.00    -0.389 N 
HETATM   21  H3  UNL     1      35.108   7.151  46.558  1.00  0.00     0.159 HD
BRANCH  20  22
HETATM   22  C2  UNL     1      34.906   5.646  47.954  1.00  0.00     0.007 C 
HETATM   23  C1  UNL     1      35.350   5.386  49.170  1.00  0.00     0.039 C 
BRANCH  22  24
HETATM   24  C17 UNL     1      34.632   4.505  47.038  1.00  0.00     0.079 A 
HETATM   25  C18 UNL     1      33.235   4.559  46.540  1.00  0.00    -0.012 A 
HETATM   26  C19 UNL     1      32.539   3.503  46.932  1.00  0.00    -0.003 A 
HETATM   27  C20 UNL     1      33.408   2.633  47.736  1.00  0.00    -0.003 A 
HETATM   28  C21 UNL     1      34.609   3.222  47.788  1.00  0.00    -0.012 A 
ENDBRANCH  22  24
ENDBRANCH  20  22
ENDBRANCH  19  20
ENDBRANCH   1  19
TORSDOF 8
ENDMDL
