MODEL 1
REMARK VINA RESULT:      -7.4      0.000      0.000
REMARK  9 active torsions:
REMARK  status: ('A' for Active; 'I' for Inactive)
REMARK    1  A    between atoms: C2_2  and  O1_3 
REMARK    2  A    between atoms: O1_3  and  C3_4 
REMARK    3  A    between atoms: C4_5  and  S1_6 
REMARK    4  A    between atoms: S1_6  and  C5_7 
REMARK    5  A    between atoms: C5_7  and  C6_9 
REMARK    6  A    between atoms: C7_10  and  C8_11 
REMARK    7  A    between atoms: C8_11  and  N1_12 
REMARK    8  A    between atoms: C11_15  and  N2_16 
REMARK    9  A    between atoms: N4_24  and  C18_25 
ROOT
HETATM    1  C3  UNL     1      21.739   2.201  50.946  1.00  0.00     0.175 C 
HETATM    2  C4  UNL     1      21.477   1.632  52.458  1.00  0.00     0.044 C 
HETATM    3  C11 UNL     1      22.816   1.430  52.800  1.00  0.00     0.069 C 
HETATM    4  C12 UNL     1      23.331   2.911  52.673  1.00  0.00     0.065 C 
HETATM    5  C13 UNL     1      22.341   3.745  52.408  1.00  0.00     0.017 C 
HETATM    6  C14 UNL     1      22.418   3.465  50.960  1.00  0.00     0.070 C 
HETATM    7  C15 UNL     1      23.837   3.876  50.707  1.00  0.00     0.026 C 
HETATM    8  C16 UNL     1      24.956   3.136  50.955  1.00  0.00     0.118 C 
HETATM    9  C17 UNL     1      26.129   3.117  50.145  1.00  0.00     0.118 C 
HETATM   10  N3  UNL     1      27.055   3.093  49.526  1.00  0.00    -0.190 NA
HETATM   11  N4  UNL     1      24.673   2.416  52.238  1.00  0.00    -0.301 N 
ENDROOT
BRANCH  11  12
HETATM   12  C18 UNL     1      25.642   1.524  52.618  1.00  0.00     0.042 A 
HETATM   13  C19 UNL     1      26.540   2.101  53.528  1.00  0.00     0.033 A 
HETATM   14  C20 UNL     1      27.628   1.369  54.024  1.00  0.00     0.046 A 
HETATM   15  C21 UNL     1      27.718   0.080  53.544  1.00  0.00     0.138 A 
HETATM   16  F1  UNL     1      28.738  -0.690  53.974  1.00  0.00    -0.204 F 
HETATM   17  C22 UNL     1      26.839  -0.489  52.651  1.00  0.00     0.074 A 
HETATM   18 CL1  UNL     1      27.065  -2.144  52.116  1.00  0.00    -0.081 Cl
HETATM   19  C23 UNL     1      25.780   0.254  52.182  1.00  0.00     0.057 A 
ENDBRANCH  11  12
BRANCH   1  20
HETATM   20  O1  UNL     1      21.970   1.187  50.164  1.00  0.00    -0.380 OA
BRANCH  20  21
HETATM   21  C2  UNL     1      21.585   1.047  48.892  1.00  0.00     0.164 C 
HETATM   22  C1  UNL     1      22.248   1.809  47.813  1.00  0.00     0.033 C 
ENDBRANCH  20  21
ENDBRANCH   1  20
BRANCH   3  23
HETATM   23  N2  UNL     1      23.366   0.171  53.297  1.00  0.00    -0.396 N 
HETATM   24  H17 UNL     1      22.882   0.160  54.238  1.00  0.00     0.156 HD
HETATM   25  H18 UNL     1      24.007  -0.481  52.872  1.00  0.00     0.156 HD
ENDBRANCH   3  23
BRANCH   2  26
HETATM   26  S1  UNL     1      20.326   1.123  53.786  1.00  0.00    -0.048 SA
BRANCH  26  27
HETATM   27  C5  UNL     1      19.973  -0.597  53.557  1.00  0.00     0.213 C 
HETATM   28  O2  UNL     1      20.854  -1.477  53.698  1.00  0.00    -0.280 OA
BRANCH  27  29
HETATM   29  C6  UNL     1      18.600  -0.922  53.195  1.00  0.00     0.060 C 
HETATM   30  C7  UNL     1      18.083  -0.541  52.042  1.00  0.00     0.007 C 
BRANCH  30  31
HETATM   31  C8  UNL     1      18.434   0.198  50.812  1.00  0.00     0.299 C 
BRANCH  31  32
HETATM   32  N1  UNL     1      18.023   1.590  50.838  1.00  0.00     0.083 N 
HETATM   33  C9  UNL     1      16.707   1.672  51.405  1.00  0.00     0.309 C 
HETATM   34  C10 UNL     1      18.045   2.064  49.453  1.00  0.00     0.309 C 
ENDBRANCH  31  32
ENDBRANCH  30  31
ENDBRANCH  27  29
ENDBRANCH  26  27
ENDBRANCH   2  26
TORSDOF 9
ENDMDL
MODEL 2
REMARK VINA RESULT:      -7.3      4.116      7.575
REMARK  9 active torsions:
REMARK  status: ('A' for Active; 'I' for Inactive)
REMARK    1  A    between atoms: C2_2  and  O1_3 
REMARK    2  A    between atoms: O1_3  and  C3_4 
REMARK    3  A    between atoms: C4_5  and  S1_6 
REMARK    4  A    between atoms: S1_6  and  C5_7 
REMARK    5  A    between atoms: C5_7  and  C6_9 
REMARK    6  A    between atoms: C7_10  and  C8_11 
REMARK    7  A    between atoms: C8_11  and  N1_12 
REMARK    8  A    between atoms: C11_15  and  N2_16 
REMARK    9  A    between atoms: N4_24  and  C18_25 
ROOT
HETATM    1  C3  UNL     1      23.370   2.016  51.812  1.00  0.00     0.175 C 
HETATM    2  C4  UNL     1      24.877   2.533  51.437  1.00  0.00     0.044 C 
HETATM    3  C11 UNL     1      24.496   3.545  50.554  1.00  0.00     0.069 C 
HETATM    4  C12 UNL     1      23.661   4.437  51.544  1.00  0.00     0.065 C 
HETATM    5  C13 UNL     1      23.720   3.972  52.780  1.00  0.00     0.017 C 
HETATM    6  C14 UNL     1      22.626   3.012  52.530  1.00  0.00     0.070 C 
HETATM    7  C15 UNL     1      21.544   3.972  52.136  1.00  0.00     0.026 C 
HETATM    8  C16 UNL     1      21.373   4.552  50.914  1.00  0.00     0.118 C 
HETATM    9  C17 UNL     1      20.117   4.822  50.296  1.00  0.00     0.118 C 
HETATM   10  N3  UNL     1      19.144   5.044  49.800  1.00  0.00    -0.190 NA
HETATM   11  N4  UNL     1      22.759   4.849  50.425  1.00  0.00    -0.301 N 
ENDROOT
BRANCH  11  12
HETATM   12  C18 UNL     1      22.820   5.347  49.150  1.00  0.00     0.042 A 
HETATM   13  C19 UNL     1      23.360   6.642  49.131  1.00  0.00     0.033 A 
HETATM   14  C20 UNL     1      23.485   7.349  47.927  1.00  0.00     0.046 A 
HETATM   15  C21 UNL     1      23.042   6.668  46.814  1.00  0.00     0.138 A 
HETATM   16  F1  UNL     1      23.130   7.281  45.616  1.00  0.00    -0.204 F 
HETATM   17  C22 UNL     1      22.511   5.399  46.829  1.00  0.00     0.074 A 
HETATM   18 CL1  UNL     1      21.982   4.641  45.338  1.00  0.00    -0.081 Cl
HETATM   19  C23 UNL     1      22.400   4.729  48.026  1.00  0.00     0.057 A 
ENDBRANCH  11  12
BRANCH   1  20
HETATM   20  O1  UNL     1      22.947   1.257  50.844  1.00  0.00    -0.380 OA
BRANCH  20  21
HETATM   21  C2  UNL     1      21.684   0.900  50.595  1.00  0.00     0.164 C 
HETATM   22  C1  UNL     1      21.083   1.126  49.264  1.00  0.00     0.033 C 
ENDBRANCH  20  21
ENDBRANCH   1  20
BRANCH   3  23
HETATM   23  N2  UNL     1      24.987   3.681  49.185  1.00  0.00    -0.396 N 
HETATM   24  H17 UNL     1      24.521   4.602  48.951  1.00  0.00     0.156 HD
HETATM   25  H18 UNL     1      25.584   3.081  48.636  1.00  0.00     0.156 HD
ENDBRANCH   3  23
BRANCH   2  26
HETATM   26  S1  UNL     1      26.694   2.372  51.584  1.00  0.00    -0.048 SA
BRANCH  26  27
HETATM   27  C5  UNL     1      27.084   2.280  53.309  1.00  0.00     0.213 C 
HETATM   28  O2  UNL     1      26.191   2.227  54.186  1.00  0.00    -0.280 OA
BRANCH  27  29
HETATM   29  C6  UNL     1      28.502   2.274  53.641  1.00  0.00     0.060 C 
HETATM   30  C7  UNL     1      29.110   1.175  54.045  1.00  0.00     0.007 C 
BRANCH  30  31
HETATM   31  C8  UNL     1      28.844  -0.251  54.325  1.00  0.00     0.299 C 
BRANCH  31  32
HETATM   32  N1  UNL     1      28.621  -1.043  53.130  1.00  0.00     0.083 N 
HETATM   33  C9  UNL     1      27.209  -1.254  52.973  1.00  0.00     0.309 C 
HETATM   34  C10 UNL     1      29.338  -2.306  53.318  1.00  0.00     0.309 C 
ENDBRANCH  31  32
ENDBRANCH  30  31
ENDBRANCH  27  29
ENDBRANCH  26  27
ENDBRANCH   2  26
TORSDOF 9
ENDMDL
MODEL 3
REMARK VINA RESULT:      -7.2      4.154      7.704
REMARK  9 active torsions:
REMARK  status: ('A' for Active; 'I' for Inactive)
REMARK    1  A    between atoms: C2_2  and  O1_3 
REMARK    2  A    between atoms: O1_3  and  C3_4 
REMARK    3  A    between atoms: C4_5  and  S1_6 
REMARK    4  A    between atoms: S1_6  and  C5_7 
REMARK    5  A    between atoms: C5_7  and  C6_9 
REMARK    6  A    between atoms: C7_10  and  C8_11 
REMARK    7  A    between atoms: C8_11  and  N1_12 
REMARK    8  A    between atoms: C11_15  and  N2_16 
REMARK    9  A    between atoms: N4_24  and  C18_25 
ROOT
HETATM    1  C3  UNL     1      23.985   4.882  50.684  1.00  0.00     0.175 C 
HETATM    2  C4  UNL     1      24.064   3.527  51.600  1.00  0.00     0.044 C 
HETATM    3  C11 UNL     1      22.791   3.039  51.294  1.00  0.00     0.069 C 
HETATM    4  C12 UNL     1      22.960   2.862  49.740  1.00  0.00     0.065 C 
HETATM    5  C13 UNL     1      24.196   3.128  49.355  1.00  0.00     0.017 C 
HETATM    6  C14 UNL     1      23.921   4.576  49.283  1.00  0.00     0.070 C 
HETATM    7  C15 UNL     1      22.805   4.564  48.281  1.00  0.00     0.026 C 
HETATM    8  C16 UNL     1      21.494   4.282  48.525  1.00  0.00     0.118 C 
HETATM    9  C17 UNL     1      20.382   4.915  47.896  1.00  0.00     0.118 C 
HETATM   10  N3  UNL     1      19.502   5.396  47.411  1.00  0.00    -0.190 NA
HETATM   11  N4  UNL     1      21.512   3.178  49.539  1.00  0.00    -0.301 N 
ENDROOT
BRANCH  11  12
HETATM   12  C18 UNL     1      20.278   2.811  50.007  1.00  0.00     0.042 A 
HETATM   13  C19 UNL     1      20.013   1.457  49.747  1.00  0.00     0.033 A 
HETATM   14  C20 UNL     1      18.790   0.882  50.118  1.00  0.00     0.046 A 
HETATM   15  C21 UNL     1      17.914   1.748  50.736  1.00  0.00     0.138 A 
HETATM   16  F1  UNL     1      16.715   1.269  51.125  1.00  0.00    -0.204 F 
HETATM   17  C22 UNL     1      18.169   3.075  50.992  1.00  0.00     0.074 A 
HETATM   18 CL1  UNL     1      16.967   4.073  51.789  1.00  0.00    -0.081 Cl
HETATM   19  C23 UNL     1      19.379   3.612  50.617  1.00  0.00     0.057 A 
ENDBRANCH  11  12
BRANCH   1  20
HETATM   20  O1  UNL     1      23.293   5.771  51.333  1.00  0.00    -0.380 OA
BRANCH  20  21
HETATM   21  C2  UNL     1      22.954   6.993  50.909  1.00  0.00     0.164 C 
HETATM   22  C1  UNL     1      21.538   7.347  50.678  1.00  0.00     0.033 C 
ENDBRANCH  20  21
ENDBRANCH   1  20
BRANCH   3  23
HETATM   23  N2  UNL     1      21.782   2.673  52.285  1.00  0.00    -0.396 N 
HETATM   24  H17 UNL     1      22.226   1.773  52.623  1.00  0.00     0.156 HD
HETATM   25  H18 UNL     1      20.929   3.136  52.558  1.00  0.00     0.156 HD
ENDBRANCH   3  23
BRANCH   2  26
HETATM   26  S1  UNL     1      24.958   2.467  52.793  1.00  0.00    -0.048 SA
BRANCH  26  27
HETATM   27  C5  UNL     1      26.424   1.880  51.992  1.00  0.00     0.213 C 
HETATM   28  O2  UNL     1      27.245   2.664  51.460  1.00  0.00    -0.280 OA
BRANCH  27  29
HETATM   29  C6  UNL     1      26.613   0.436  51.990  1.00  0.00     0.060 C 
HETATM   30  C7  UNL     1      27.028  -0.207  53.065  1.00  0.00     0.007 C 
BRANCH  30  31
HETATM   31  C8  UNL     1      27.428   0.034  54.467  1.00  0.00     0.299 C 
BRANCH  31  32
HETATM   32  N1  UNL     1      28.865   0.143  54.647  1.00  0.00     0.083 N 
HETATM   33  C9  UNL     1      29.264   1.493  54.364  1.00  0.00     0.309 C 
HETATM   34  C10 UNL     1      29.481  -0.809  53.721  1.00  0.00     0.309 C 
ENDBRANCH  31  32
ENDBRANCH  30  31
ENDBRANCH  27  29
ENDBRANCH  26  27
ENDBRANCH   2  26
TORSDOF 9
ENDMDL
MODEL 4
REMARK VINA RESULT:      -7.2      4.325      6.557
REMARK  9 active torsions:
REMARK  status: ('A' for Active; 'I' for Inactive)
REMARK    1  A    between atoms: C2_2  and  O1_3 
REMARK    2  A    between atoms: O1_3  and  C3_4 
REMARK    3  A    between atoms: C4_5  and  S1_6 
REMARK    4  A    between atoms: S1_6  and  C5_7 
REMARK    5  A    between atoms: C5_7  and  C6_9 
REMARK    6  A    between atoms: C7_10  and  C8_11 
REMARK    7  A    between atoms: C8_11  and  N1_12 
REMARK    8  A    between atoms: C11_15  and  N2_16 
REMARK    9  A    between atoms: N4_24  and  C18_25 
ROOT
HETATM    1  C3  UNL     1      23.420   2.395  50.886  1.00  0.00     0.175 C 
HETATM    2  C4  UNL     1      25.001   2.777  51.073  1.00  0.00     0.044 C 
HETATM    3  C11 UNL     1      24.903   4.111  50.671  1.00  0.00     0.069 C 
HETATM    4  C12 UNL     1      23.908   4.629  51.774  1.00  0.00     0.065 C 
HETATM    5  C13 UNL     1      23.640   3.690  52.663  1.00  0.00     0.017 C 
HETATM    6  C14 UNL     1      22.585   3.106  51.811  1.00  0.00     0.070 C 
HETATM    7  C15 UNL     1      21.687   4.300  51.682  1.00  0.00     0.026 C 
HETATM    8  C16 UNL     1      21.850   5.354  50.833  1.00  0.00     0.118 C 
HETATM    9  C17 UNL     1      20.798   6.051  50.170  1.00  0.00     0.118 C 
HETATM   10  N3  UNL     1      19.988   6.609  49.647  1.00  0.00    -0.190 NA
HETATM   11  N4  UNL     1      23.327   5.606  50.801  1.00  0.00    -0.301 N 
ENDROOT
BRANCH  11  12
HETATM   12  C18 UNL     1      23.723   6.572  49.914  1.00  0.00     0.042 A 
HETATM   13  C19 UNL     1      24.314   7.661  50.572  1.00  0.00     0.033 A 
HETATM   14  C20 UNL     1      24.765   8.776  49.852  1.00  0.00     0.046 A 
HETATM   15  C21 UNL     1      24.574   8.693  48.490  1.00  0.00     0.138 A 
HETATM   16  F1  UNL     1      24.982   9.727  47.726  1.00  0.00    -0.204 F 
HETATM   17  C22 UNL     1      23.995   7.628  47.840  1.00  0.00     0.074 A 
HETATM   18 CL1  UNL     1      23.809   7.645  46.096  1.00  0.00    -0.081 Cl
HETATM   19  C23 UNL     1      23.562   6.547  48.574  1.00  0.00     0.057 A 
ENDBRANCH  11  12
BRANCH   1  20
HETATM   20  O1  UNL     1      23.200   2.184  49.621  1.00  0.00    -0.380 OA
BRANCH  20  21
HETATM   21  C2  UNL     1      22.012   2.048  49.024  1.00  0.00     0.164 C 
HETATM   22  C1  UNL     1      21.199   0.831  49.225  1.00  0.00     0.033 C 
ENDBRANCH  20  21
ENDBRANCH   1  20
BRANCH   3  23
HETATM   23  N2  UNL     1      25.717   4.725  49.625  1.00  0.00    -0.396 N 
HETATM   24  H17 UNL     1      25.544   5.738  49.878  1.00  0.00     0.156 HD
HETATM   25  H18 UNL     1      26.269   4.308  48.890  1.00  0.00     0.156 HD
ENDBRANCH   3  23
BRANCH   2  26
HETATM   26  S1  UNL     1      26.716   2.285  51.479  1.00  0.00    -0.048 SA
BRANCH  26  27
HETATM   27  C5  UNL     1      26.674   1.434  53.031  1.00  0.00     0.213 C 
HETATM   28  O2  UNL     1      26.908   2.021  54.113  1.00  0.00    -0.280 OA
BRANCH  27  29
HETATM   29  C6  UNL     1      26.354   0.014  52.970  1.00  0.00     0.060 C 
HETATM   30  C7  UNL     1      25.157  -0.437  53.292  1.00  0.00     0.007 C 
BRANCH  30  31
HETATM   31  C8  UNL     1      23.837   0.035  53.759  1.00  0.00     0.299 C 
BRANCH  31  32
HETATM   32  N1  UNL     1      22.784  -0.955  53.612  1.00  0.00     0.083 N 
HETATM   33  C9  UNL     1      21.847  -0.488  52.630  1.00  0.00     0.309 C 
HETATM   34  C10 UNL     1      22.160  -1.107  54.927  1.00  0.00     0.309 C 
ENDBRANCH  31  32
ENDBRANCH  30  31
ENDBRANCH  27  29
ENDBRANCH  26  27
ENDBRANCH   2  26
TORSDOF 9
ENDMDL
MODEL 5
REMARK VINA RESULT:      -7.1      4.539      7.532
REMARK  9 active torsions:
REMARK  status: ('A' for Active; 'I' for Inactive)
REMARK    1  A    between atoms: C2_2  and  O1_3 
REMARK    2  A    between atoms: O1_3  and  C3_4 
REMARK    3  A    between atoms: C4_5  and  S1_6 
REMARK    4  A    between atoms: S1_6  and  C5_7 
REMARK    5  A    between atoms: C5_7  and  C6_9 
REMARK    6  A    between atoms: C7_10  and  C8_11 
REMARK    7  A    between atoms: C8_11  and  N1_12 
REMARK    8  A    between atoms: C11_15  and  N2_16 
REMARK    9  A    between atoms: N4_24  and  C18_25 
ROOT
HETATM    1  C3  UNL     1      22.877   3.211  50.772  1.00  0.00     0.175 C 
HETATM    2  C4  UNL     1      24.504   3.192  50.962  1.00  0.00     0.044 C 
HETATM    3  C11 UNL     1      24.742   4.497  50.526  1.00  0.00     0.069 C 
HETATM    4  C12 UNL     1      23.906   5.276  51.608  1.00  0.00     0.065 C 
HETATM    5  C13 UNL     1      23.412   4.456  52.519  1.00  0.00     0.017 C 
HETATM    6  C14 UNL     1      22.245   4.131  51.674  1.00  0.00     0.070 C 
HETATM    7  C15 UNL     1      21.673   5.507  51.509  1.00  0.00     0.026 C 
HETATM    8  C16 UNL     1      22.095   6.466  50.635  1.00  0.00     0.118 C 
HETATM    9  C17 UNL     1      21.250   7.386  49.947  1.00  0.00     0.118 C 
HETATM   10  N3  UNL     1      20.606   8.114  49.404  1.00  0.00    -0.190 NA
HETATM   11  N4  UNL     1      23.589   6.340  50.607  1.00  0.00    -0.301 N 
ENDROOT
BRANCH  11  12
HETATM   12  C18 UNL     1      24.214   7.154  49.699  1.00  0.00     0.042 A 
HETATM   13  C19 UNL     1      24.990   8.133  50.338  1.00  0.00     0.033 A 
HETATM   14  C20 UNL     1      25.692   9.090  49.593  1.00  0.00     0.046 A 
HETATM   15  C21 UNL     1      25.546   8.974  48.228  1.00  0.00     0.138 A 
HETATM   16  F1  UNL     1      26.192   9.858  47.441  1.00  0.00    -0.204 F 
HETATM   17  C22 UNL     1      24.785   8.016  47.597  1.00  0.00     0.074 A 
HETATM   18 CL1  UNL     1      24.681   7.975  45.847  1.00  0.00    -0.081 Cl
HETATM   19  C23 UNL     1      24.106   7.089  48.355  1.00  0.00     0.057 A 
ENDBRANCH  11  12
BRANCH   1  20
HETATM   20  O1  UNL     1      22.613   3.029  49.512  1.00  0.00    -0.380 OA
BRANCH  20  21
HETATM   21  C2  UNL     1      21.527   2.446  48.994  1.00  0.00     0.164 C 
HETATM   22  C1  UNL     1      21.374   0.977  49.017  1.00  0.00     0.033 C 
ENDBRANCH  20  21
ENDBRANCH   1  20
BRANCH   3  23
HETATM   23  N2  UNL     1      25.684   4.862  49.471  1.00  0.00    -0.396 N 
HETATM   24  H17 UNL     1      25.067   5.548  48.952  1.00  0.00     0.156 HD
HETATM   25  H18 UNL     1      26.628   4.552  49.294  1.00  0.00     0.156 HD
ENDBRANCH   3  23
BRANCH   2  26
HETATM   26  S1  UNL     1      26.042   2.299  51.392  1.00  0.00    -0.048 SA
BRANCH  26  27
HETATM   27  C5  UNL     1      25.576   0.770  52.153  1.00  0.00     0.213 C 
HETATM   28  O2  UNL     1      24.458   0.616  52.699  1.00  0.00    -0.280 OA
BRANCH  27  29
HETATM   29  C6  UNL     1      26.572  -0.293  52.107  1.00  0.00     0.060 C 
HETATM   30  C7  UNL     1      27.421  -0.486  53.098  1.00  0.00     0.007 C 
BRANCH  30  31
HETATM   31  C8  UNL     1      27.784   0.055  54.424  1.00  0.00     0.299 C 
BRANCH  31  32
HETATM   32  N1  UNL     1      29.085   0.699  54.448  1.00  0.00     0.083 N 
HETATM   33  C9  UNL     1      28.950   2.032  53.933  1.00  0.00     0.309 C 
HETATM   34  C10 UNL     1      29.976  -0.113  53.617  1.00  0.00     0.309 C 
ENDBRANCH  31  32
ENDBRANCH  30  31
ENDBRANCH  27  29
ENDBRANCH  26  27
ENDBRANCH   2  26
TORSDOF 9
ENDMDL
MODEL 6
REMARK VINA RESULT:      -7.0      4.730      7.410
REMARK  9 active torsions:
REMARK  status: ('A' for Active; 'I' for Inactive)
REMARK    1  A    between atoms: C2_2  and  O1_3 
REMARK    2  A    between atoms: O1_3  and  C3_4 
REMARK    3  A    between atoms: C4_5  and  S1_6 
REMARK    4  A    between atoms: S1_6  and  C5_7 
REMARK    5  A    between atoms: C5_7  and  C6_9 
REMARK    6  A    between atoms: C7_10  and  C8_11 
REMARK    7  A    between atoms: C8_11  and  N1_12 
REMARK    8  A    between atoms: C11_15  and  N2_16 
REMARK    9  A    between atoms: N4_24  and  C18_25 
ROOT
HETATM    1  C3  UNL     1      23.108   3.960  50.176  1.00  0.00     0.175 C 
HETATM    2  C4  UNL     1      24.621   3.615  50.698  1.00  0.00     0.044 C 
HETATM    3  C11 UNL     1      25.196   4.848  50.383  1.00  0.00     0.069 C 
HETATM    4  C12 UNL     1      24.317   5.774  51.303  1.00  0.00     0.065 C 
HETATM    5  C13 UNL     1      23.490   5.066  52.051  1.00  0.00     0.017 C 
HETATM    6  C14 UNL     1      22.490   4.985  50.968  1.00  0.00     0.070 C 
HETATM    7  C15 UNL     1      22.246   6.449  50.752  1.00  0.00     0.026 C 
HETATM    8  C16 UNL     1      23.022   7.307  50.031  1.00  0.00     0.118 C 
HETATM    9  C17 UNL     1      22.539   8.380  49.227  1.00  0.00     0.118 C 
HETATM   10  N3  UNL     1      22.180   9.226  48.596  1.00  0.00    -0.190 NA
HETATM   11  N4  UNL     1      24.434   6.885  50.309  1.00  0.00    -0.301 N 
ENDROOT
BRANCH  11  12
HETATM   12  C18 UNL     1      25.384   7.561  49.590  1.00  0.00     0.042 A 
HETATM   13  C19 UNL     1      26.254   8.271  50.431  1.00  0.00     0.033 A 
HETATM   14  C20 UNL     1      27.285   9.056  49.898  1.00  0.00     0.046 A 
HETATM   15  C21 UNL     1      27.351   9.058  48.521  1.00  0.00     0.138 A 
HETATM   16  F1  UNL     1      28.318   9.789  47.931  1.00  0.00    -0.204 F 
HETATM   17  C22 UNL     1      26.500   8.363  47.693  1.00  0.00     0.074 A 
HETATM   18 CL1  UNL     1      26.690   8.449  45.952  1.00  0.00    -0.081 Cl
HETATM   19  C23 UNL     1      25.496   7.601  48.245  1.00  0.00     0.057 A 
ENDBRANCH  11  12
BRANCH   1  20
HETATM   20  O1  UNL     1      23.087   3.841  48.881  1.00  0.00    -0.380 OA
BRANCH  20  21
HETATM   21  C2  UNL     1      22.617   2.808  48.176  1.00  0.00     0.164 C 
HETATM   22  C1  UNL     1      21.976   1.660  48.850  1.00  0.00     0.033 C 
ENDBRANCH  20  21
ENDBRANCH   1  20
BRANCH   3  23
HETATM   23  N2  UNL     1      26.393   5.021  49.565  1.00  0.00    -0.396 N 
HETATM   24  H17 UNL     1      26.970   5.573  50.260  1.00  0.00     0.156 HD
HETATM   25  H18 UNL     1      26.602   4.710  48.628  1.00  0.00     0.156 HD
ENDBRANCH   3  23
BRANCH   2  26
HETATM   26  S1  UNL     1      25.827   2.430  51.396  1.00  0.00    -0.048 SA
BRANCH  26  27
HETATM   27  C5  UNL     1      24.942   1.340  52.474  1.00  0.00     0.213 C 
HETATM   28  O2  UNL     1      23.909   1.706  53.082  1.00  0.00    -0.280 OA
BRANCH  27  29
HETATM   29  C6  UNL     1      25.491  -0.003  52.611  1.00  0.00     0.060 C 
HETATM   30  C7  UNL     1      26.370  -0.296  53.550  1.00  0.00     0.007 C 
BRANCH  30  31
HETATM   31  C8  UNL     1      27.108   0.324  54.670  1.00  0.00     0.299 C 
BRANCH  31  32
HETATM   32  N1  UNL     1      28.542   0.106  54.608  1.00  0.00     0.083 N 
HETATM   33  C9  UNL     1      29.185   1.355  54.311  1.00  0.00     0.309 C 
HETATM   34  C10 UNL     1      28.775  -0.886  53.558  1.00  0.00     0.309 C 
ENDBRANCH  31  32
ENDBRANCH  30  31
ENDBRANCH  27  29
ENDBRANCH  26  27
ENDBRANCH   2  26
TORSDOF 9
ENDMDL
MODEL 7
REMARK VINA RESULT:      -6.8      4.184      6.582
REMARK  9 active torsions:
REMARK  status: ('A' for Active; 'I' for Inactive)
REMARK    1  A    between atoms: C2_2  and  O1_3 
REMARK    2  A    between atoms: O1_3  and  C3_4 
REMARK    3  A    between atoms: C4_5  and  S1_6 
REMARK    4  A    between atoms: S1_6  and  C5_7 
REMARK    5  A    between atoms: C5_7  and  C6_9 
REMARK    6  A    between atoms: C7_10  and  C8_11 
REMARK    7  A    between atoms: C8_11  and  N1_12 
REMARK    8  A    between atoms: C11_15  and  N2_16 
REMARK    9  A    between atoms: N4_24  and  C18_25 
ROOT
HETATM    1  C3  UNL     1      22.460   4.073  49.626  1.00  0.00     0.175 C 
HETATM    2  C4  UNL     1      23.358   3.907  50.985  1.00  0.00     0.044 C 
HETATM    3  C11 UNL     1      24.243   4.959  50.735  1.00  0.00     0.069 C 
HETATM    4  C12 UNL     1      23.213   6.147  50.700  1.00  0.00     0.065 C 
HETATM    5  C13 UNL     1      21.993   5.739  51.002  1.00  0.00     0.017 C 
HETATM    6  C14 UNL     1      21.732   5.310  49.614  1.00  0.00     0.070 C 
HETATM    7  C15 UNL     1      21.936   6.619  48.912  1.00  0.00     0.026 C 
HETATM    8  C16 UNL     1      23.130   7.179  48.561  1.00  0.00     0.118 C 
HETATM    9  C17 UNL     1      23.374   7.925  47.372  1.00  0.00     0.118 C 
HETATM   10  N3  UNL     1      23.581   8.514  46.449  1.00  0.00    -0.190 NA
HETATM   11  N4  UNL     1      24.059   6.860  49.694  1.00  0.00    -0.301 N 
ENDROOT
BRANCH  11  12
HETATM   12  C18 UNL     1      25.358   7.247  49.493  1.00  0.00     0.042 A 
HETATM   13  C19 UNL     1      25.680   8.378  50.259  1.00  0.00     0.033 A 
HETATM   14  C20 UNL     1      26.953   8.958  50.181  1.00  0.00     0.046 A 
HETATM   15  C21 UNL     1      27.817   8.328  49.311  1.00  0.00     0.138 A 
HETATM   16  F1  UNL     1      29.064   8.826  49.180  1.00  0.00    -0.204 F 
HETATM   17  C22 UNL     1      27.506   7.220  48.558  1.00  0.00     0.074 A 
HETATM   18 CL1  UNL     1      28.698   6.511  47.485  1.00  0.00    -0.081 Cl
HETATM   19  C23 UNL     1      26.247   6.672  48.655  1.00  0.00     0.057 A 
ENDBRANCH  11  12
BRANCH   1  20
HETATM   20  O1  UNL     1      23.111   3.527  48.641  1.00  0.00    -0.380 OA
BRANCH  20  21
HETATM   21  C2  UNL     1      22.730   2.473  47.912  1.00  0.00     0.164 C 
HETATM   22  C1  UNL     1      21.468   1.765  48.208  1.00  0.00     0.033 C 
ENDBRANCH  20  21
ENDBRANCH   1  20
BRANCH   3  23
HETATM   23  N2  UNL     1      25.698   4.836  50.733  1.00  0.00    -0.396 N 
HETATM   24  H17 UNL     1      25.931   5.816  51.058  1.00  0.00     0.156 HD
HETATM   25  H18 UNL     1      26.294   4.056  50.496  1.00  0.00     0.156 HD
ENDBRANCH   3  23
BRANCH   2  26
HETATM   26  S1  UNL     1      23.743   3.013  52.534  1.00  0.00    -0.048 SA
BRANCH  26  27
HETATM   27  C5  UNL     1      23.300   1.316  52.296  1.00  0.00     0.213 C 
HETATM   28  O2  UNL     1      22.769   0.914  51.234  1.00  0.00    -0.280 OA
BRANCH  27  29
HETATM   29  C6  UNL     1      23.589   0.421  53.408  1.00  0.00     0.060 C 
HETATM   30  C7  UNL     1      24.812  -0.016  53.642  1.00  0.00     0.007 C 
BRANCH  30  31
HETATM   31  C8  UNL     1      26.189   0.082  53.116  1.00  0.00     0.299 C 
BRANCH  31  32
HETATM   32  N1  UNL     1      26.995   1.085  53.789  1.00  0.00     0.083 N 
HETATM   33  C9  UNL     1      27.503   2.002  52.808  1.00  0.00     0.309 C 
HETATM   34  C10 UNL     1      28.075   0.371  54.472  1.00  0.00     0.309 C 
ENDBRANCH  31  32
ENDBRANCH  30  31
ENDBRANCH  27  29
ENDBRANCH  26  27
ENDBRANCH   2  26
TORSDOF 9
ENDMDL
MODEL 8
REMARK VINA RESULT:      -6.7      2.457      4.555
REMARK  9 active torsions:
REMARK  status: ('A' for Active; 'I' for Inactive)
REMARK    1  A    between atoms: C2_2  and  O1_3 
REMARK    2  A    between atoms: O1_3  and  C3_4 
REMARK    3  A    between atoms: C4_5  and  S1_6 
REMARK    4  A    between atoms: S1_6  and  C5_7 
REMARK    5  A    between atoms: C5_7  and  C6_9 
REMARK    6  A    between atoms: C7_10  and  C8_11 
REMARK    7  A    between atoms: C8_11  and  N1_12 
REMARK    8  A    between atoms: C11_15  and  N2_16 
REMARK    9  A    between atoms: N4_24  and  C18_25 
ROOT
HETATM    1  C3  UNL     1      23.394   2.521  52.540  1.00  0.00     0.175 C 
HETATM    2  C4  UNL     1      24.305   2.654  51.186  1.00  0.00     0.044 C 
HETATM    3  C11 UNL     1      25.370   1.860  51.617  1.00  0.00     0.069 C 
HETATM    4  C12 UNL     1      24.600   0.505  51.831  1.00  0.00     0.065 C 
HETATM    5  C13 UNL     1      23.339   0.601  51.447  1.00  0.00     0.017 C 
HETATM    6  C14 UNL     1      22.931   1.178  52.743  1.00  0.00     0.070 C 
HETATM    7  C15 UNL     1      23.360   0.066  53.652  1.00  0.00     0.026 C 
HETATM    8  C16 UNL     1      24.623  -0.173  54.107  1.00  0.00     0.118 C 
HETATM    9  C17 UNL     1      24.955  -0.658  55.406  1.00  0.00     0.118 C 
HETATM   10  N3  UNL     1      25.232  -1.040  56.416  1.00  0.00    -0.190 NA
HETATM   11  N4  UNL     1      25.523   0.149  52.952  1.00  0.00    -0.301 N 
ENDROOT
BRANCH  11  12
HETATM   12  C18 UNL     1      26.862   0.075  53.233  1.00  0.00     0.042 A 
HETATM   13  C19 UNL     1      27.404  -1.152  52.822  1.00  0.00     0.033 A 
HETATM   14  C20 UNL     1      28.757  -1.448  53.041  1.00  0.00     0.046 A 
HETATM   15  C21 UNL     1      29.465  -0.451  53.676  1.00  0.00     0.138 A 
HETATM   16  F1  UNL     1      30.775  -0.659  53.923  1.00  0.00    -0.204 F 
HETATM   17  C22 UNL     1      28.937   0.753  54.082  1.00  0.00     0.074 A 
HETATM   18 CL1  UNL     1      29.948   1.942  54.882  1.00  0.00    -0.081 Cl
HETATM   19  C23 UNL     1      27.606   1.015  53.853  1.00  0.00     0.057 A 
ENDBRANCH  11  12
BRANCH   1  20
HETATM   20  O1  UNL     1      23.873   3.337  53.433  1.00  0.00    -0.380 OA
BRANCH  20  21
HETATM   21  C2  UNL     1      23.743   4.667  53.459  1.00  0.00     0.164 C 
HETATM   22  C1  UNL     1      22.945   5.369  52.433  1.00  0.00     0.033 C 
ENDBRANCH  20  21
ENDBRANCH   1  20
BRANCH   3  23
HETATM   23  N2  UNL     1      26.769   2.280  51.621  1.00  0.00    -0.396 N 
HETATM   24  H17 UNL     1      27.213   1.318  51.642  1.00  0.00     0.156 HD
HETATM   25  H18 UNL     1      27.181   3.201  51.608  1.00  0.00     0.156 HD
ENDBRANCH   3  23
BRANCH   2  26
HETATM   26  S1  UNL     1      24.577   3.354  49.517  1.00  0.00    -0.048 SA
BRANCH  26  27
HETATM   27  C5  UNL     1      22.988   3.597  48.775  1.00  0.00     0.213 C 
HETATM   28  O2  UNL     1      22.438   4.723  48.744  1.00  0.00    -0.280 OA
BRANCH  27  29
HETATM   29  C6  UNL     1      22.363   2.410  48.207  1.00  0.00     0.060 C 
HETATM   30  C7  UNL     1      21.294   1.865  48.755  1.00  0.00     0.007 C 
BRANCH  30  31
HETATM   31  C8  UNL     1      20.369   2.039  49.893  1.00  0.00     0.299 C 
BRANCH  31  32
HETATM   32  N1  UNL     1      19.407   0.960  50.027  1.00  0.00     0.083 N 
HETATM   33  C9  UNL     1      18.098   1.469  49.732  1.00  0.00     0.309 C 
HETATM   34  C10 UNL     1      19.501   0.478  51.406  1.00  0.00     0.309 C 
ENDBRANCH  31  32
ENDBRANCH  30  31
ENDBRANCH  27  29
ENDBRANCH  26  27
ENDBRANCH   2  26
TORSDOF 9
ENDMDL
MODEL 9
REMARK VINA RESULT:      -6.6      3.418      6.131
REMARK  9 active torsions:
REMARK  status: ('A' for Active; 'I' for Inactive)
REMARK    1  A    between atoms: C2_2  and  O1_3 
REMARK    2  A    between atoms: O1_3  and  C3_4 
REMARK    3  A    between atoms: C4_5  and  S1_6 
REMARK    4  A    between atoms: S1_6  and  C5_7 
REMARK    5  A    between atoms: C5_7  and  C6_9 
REMARK    6  A    between atoms: C7_10  and  C8_11 
REMARK    7  A    between atoms: C8_11  and  N1_12 
REMARK    8  A    between atoms: C11_15  and  N2_16 
REMARK    9  A    between atoms: N4_24  and  C18_25 
ROOT
HETATM    1  C3  UNL     1      23.027   2.320  52.550  1.00  0.00     0.175 C 
HETATM    2  C4  UNL     1      23.849   2.357  51.135  1.00  0.00     0.044 C 
HETATM    3  C11 UNL     1      24.924   1.564  51.540  1.00  0.00     0.069 C 
HETATM    4  C12 UNL     1      24.143   0.241  51.878  1.00  0.00     0.065 C 
HETATM    5  C13 UNL     1      22.862   0.345  51.572  1.00  0.00     0.017 C 
HETATM    6  C14 UNL     1      22.551   1.001  52.858  1.00  0.00     0.070 C 
HETATM    7  C15 UNL     1      23.017  -0.069  53.798  1.00  0.00     0.026 C 
HETATM    8  C16 UNL     1      24.302  -0.313  54.183  1.00  0.00     0.118 C 
HETATM    9  C17 UNL     1      24.709  -0.734  55.483  1.00  0.00     0.118 C 
HETATM   10  N3  UNL     1      25.044  -1.066  56.492  1.00  0.00    -0.190 NA
HETATM   11  N4  UNL     1      25.130  -0.076  52.956  1.00  0.00    -0.301 N 
ENDROOT
BRANCH  11  12
HETATM   12  C18 UNL     1      26.483  -0.166  53.154  1.00  0.00     0.042 A 
HETATM   13  C19 UNL     1      26.989  -1.388  52.685  1.00  0.00     0.033 A 
HETATM   14  C20 UNL     1      28.349  -1.698  52.816  1.00  0.00     0.046 A 
HETATM   15  C21 UNL     1      29.104  -0.720  53.427  1.00  0.00     0.138 A 
HETATM   16  F1  UNL     1      30.424  -0.943  53.589  1.00  0.00    -0.204 F 
HETATM   17  C22 UNL     1      28.612   0.479  53.889  1.00  0.00     0.074 A 
HETATM   18 CL1  UNL     1      29.680   1.643  54.650  1.00  0.00    -0.081 Cl
HETATM   19  C23 UNL     1      27.271   0.756  53.746  1.00  0.00     0.057 A 
ENDBRANCH  11  12
BRANCH   1  20
HETATM   20  O1  UNL     1      23.579   3.172  53.363  1.00  0.00    -0.380 OA
BRANCH  20  21
HETATM   21  C2  UNL     1      23.562   4.505  53.265  1.00  0.00     0.164 C 
HETATM   22  C1  UNL     1      22.557   5.189  52.426  1.00  0.00     0.033 C 
ENDBRANCH  20  21
ENDBRANCH   1  20
BRANCH   3  23
HETATM   23  N2  UNL     1      26.328   1.950  51.430  1.00  0.00    -0.396 N 
HETATM   24  H17 UNL     1      26.564   1.950  52.462  1.00  0.00     0.156 HD
HETATM   25  H18 UNL     1      26.894   2.154  50.620  1.00  0.00     0.156 HD
ENDBRANCH   3  23
BRANCH   2  26
HETATM   26  S1  UNL     1      24.024   2.959  49.416  1.00  0.00    -0.048 SA
BRANCH  26  27
HETATM   27  C5  UNL     1      24.795   4.551  49.484  1.00  0.00     0.213 C 
HETATM   28  O2  UNL     1      25.795   4.771  50.207  1.00  0.00    -0.280 OA
BRANCH  27  29
HETATM   29  C6  UNL     1      24.195   5.585  48.651  1.00  0.00     0.060 C 
HETATM   30  C7  UNL     1      24.062   6.826  49.080  1.00  0.00     0.007 C 
BRANCH  30  31
HETATM   31  C8  UNL     1      24.337   7.670  50.261  1.00  0.00     0.299 C 
BRANCH  31  32
HETATM   32  N1  UNL     1      25.202   8.800  49.975  1.00  0.00     0.083 N 
HETATM   33  C9  UNL     1      24.888   9.302  48.667  1.00  0.00     0.309 C 
HETATM   34  C10 UNL     1      26.579   8.309  50.049  1.00  0.00     0.309 C 
ENDBRANCH  31  32
ENDBRANCH  30  31
ENDBRANCH  27  29
ENDBRANCH  26  27
ENDBRANCH   2  26
TORSDOF 9
ENDMDL
