MODEL 1
REMARK VINA RESULT:      -7.9      0.000      0.000
REMARK  5 active torsions:
REMARK  status: ('A' for Active; 'I' for Inactive)
REMARK    1  A    between atoms: C3_3  and  C4_4 
REMARK       I    between atoms: C4_4  and  N1_6 
REMARK    2  A    between atoms: N1_6  and  C5_7 
REMARK    3  A    between atoms: C11_13  and  C13_16 
REMARK    4  A    between atoms: C14_17  and  C15_18 
REMARK    5  A    between atoms: C16_20  and  N3_21 
ROOT
HETATM    1  C5  UNL     1      24.218  -0.364  54.005  1.00  0.00     0.035 A 
HETATM    2  C6  UNL     1      23.468  -1.114  54.889  1.00  0.00     0.032 A 
HETATM    3  C7  UNL     1      22.094  -1.080  54.825  1.00  0.00     0.034 A 
HETATM    4  C8  UNL     1      21.434  -0.309  53.889  1.00  0.00     0.067 A 
HETATM    5  C9  UNL     1      22.225   0.424  53.028  1.00  0.00     0.007 A 
HETATM    6  C10 UNL     1      23.603   0.434  53.039  1.00  0.00     0.041 A 
HETATM    7  C11 UNL     1      21.355   1.193  52.091  1.00  0.00     0.155 A 
HETATM    8  C12 UNL     1      21.557   2.618  52.156  1.00  0.00     0.086 C 
HETATM    9  N2  UNL     1      21.714   3.755  52.205  1.00  0.00    -0.195 NA
HETATM   10  C16 UNL     1      20.001   0.775  52.568  1.00  0.00     0.130 A 
HETATM   11  N4  UNL     1      20.055  -0.053  53.558  1.00  0.00    -0.233 NA
ENDROOT
BRANCH   7  12
HETATM   12  C13 UNL     1      21.501   0.712  50.691  1.00  0.00     0.009 C 
HETATM   13  C14 UNL     1      21.664   1.595  49.698  1.00  0.00     0.002 C 
BRANCH  13  14
HETATM   14  C15 UNL     1      21.827   1.322  48.233  1.00  0.00     0.249 C 
HETATM   15  F1  UNL     1      22.899   2.007  47.712  1.00  0.00    -0.251 F 
ENDBRANCH  13  14
ENDBRANCH   7  12
BRANCH  10  16
HETATM   16  N3  UNL     1      18.842   1.295  51.924  1.00  0.00    -0.385 N 
HETATM   17  H14 UNL     1      18.479   2.247  51.677  1.00  0.00     0.157 HD
HETATM   18  H15 UNL     1      18.110   0.611  51.577  1.00  0.00     0.157 HD
ENDBRANCH  10  16
BRANCH   1  19
HETATM   19  N1  UNL     1      25.635  -0.423  54.101  1.00  0.00    -0.324 N 
HETATM   20  C4  UNL     1      26.664   0.508  54.418  1.00  0.00     0.245 C 
HETATM   21  O1  UNL     1      26.232   1.659  54.677  1.00  0.00    -0.268 OA
HETATM   22  H6  UNL     1      25.759  -1.429  53.855  1.00  0.00     0.169 HD
BRANCH  20  23
HETATM   23  C3  UNL     1      28.033   0.030  54.403  1.00  0.00     0.070 C 
HETATM   24  C2  UNL     1      28.631  -0.685  53.481  1.00  0.00    -0.026 C 
HETATM   25  C1  UNL     1      30.053  -1.073  53.664  1.00  0.00     0.036 C 
ENDBRANCH  20  23
ENDBRANCH   1  19
TORSDOF 5
ENDMDL
MODEL 2
REMARK VINA RESULT:      -7.1      2.467      3.485
REMARK  5 active torsions:
REMARK  status: ('A' for Active; 'I' for Inactive)
REMARK    1  A    between atoms: C3_3  and  C4_4 
REMARK       I    between atoms: C4_4  and  N1_6 
REMARK    2  A    between atoms: N1_6  and  C5_7 
REMARK    3  A    between atoms: C11_13  and  C13_16 
REMARK    4  A    between atoms: C14_17  and  C15_18 
REMARK    5  A    between atoms: C16_20  and  N3_21 
ROOT
HETATM    1  C5  UNL     1      24.726   1.573  52.409  1.00  0.00     0.035 A 
HETATM    2  C6  UNL     1      24.639   2.822  52.991  1.00  0.00     0.032 A 
HETATM    3  C7  UNL     1      23.491   3.568  52.846  1.00  0.00     0.034 A 
HETATM    4  C8  UNL     1      22.411   3.099  52.125  1.00  0.00     0.067 A 
HETATM    5  C9  UNL     1      22.546   1.847  51.562  1.00  0.00     0.007 A 
HETATM    6  C10 UNL     1      23.664   1.049  51.669  1.00  0.00     0.041 A 
HETATM    7  C11 UNL     1      21.295   1.499  50.826  1.00  0.00     0.155 A 
HETATM    8  C12 UNL     1      21.506   1.236  49.425  1.00  0.00     0.086 C 
HETATM    9  N2  UNL     1      21.668   1.025  48.308  1.00  0.00    -0.195 NA
HETATM   10  C16 UNL     1      20.481   2.728  51.072  1.00  0.00     0.130 A 
HETATM   11  N4  UNL     1      21.104   3.603  51.789  1.00  0.00    -0.233 NA
ENDROOT
BRANCH   7  12
HETATM   12  C13 UNL     1      20.583   0.359  51.466  1.00  0.00     0.009 C 
HETATM   13  C14 UNL     1      20.515   0.285  52.800  1.00  0.00     0.002 C 
BRANCH  13  14
HETATM   14  C15 UNL     1      19.852  -0.769  53.636  1.00  0.00     0.249 C 
HETATM   15  F1  UNL     1      20.757  -1.401  54.456  1.00  0.00    -0.251 F 
ENDBRANCH  13  14
ENDBRANCH   7  12
BRANCH  10  16
HETATM   16  N3  UNL     1      19.168   2.818  50.525  1.00  0.00    -0.385 N 
HETATM   17  H14 UNL     1      18.673   2.436  49.685  1.00  0.00     0.157 HD
HETATM   18  H15 UNL     1      18.449   3.402  51.040  1.00  0.00     0.157 HD
ENDBRANCH  10  16
BRANCH   1  19
HETATM   19  N1  UNL     1      25.927   0.831  52.579  1.00  0.00    -0.324 N 
HETATM   20  C4  UNL     1      26.316  -0.294  53.360  1.00  0.00     0.245 C 
HETATM   21  O1  UNL     1      25.388  -0.750  54.073  1.00  0.00    -0.268 OA
HETATM   22  H6  UNL     1      26.529   1.369  51.918  1.00  0.00     0.169 HD
BRANCH  20  23
HETATM   23  C3  UNL     1      27.685  -0.756  53.240  1.00  0.00     0.070 C 
HETATM   24  C2  UNL     1      28.719  -0.427  53.976  1.00  0.00    -0.026 C 
HETATM   25  C1  UNL     1      30.047  -1.022  53.681  1.00  0.00     0.036 C 
ENDBRANCH  20  23
ENDBRANCH   1  19
TORSDOF 5
ENDMDL
MODEL 3
REMARK VINA RESULT:      -7.0      3.189      7.127
REMARK  5 active torsions:
REMARK  status: ('A' for Active; 'I' for Inactive)
REMARK    1  A    between atoms: C3_3  and  C4_4 
REMARK       I    between atoms: C4_4  and  N1_6 
REMARK    2  A    between atoms: N1_6  and  C5_7 
REMARK    3  A    between atoms: C11_13  and  C13_16 
REMARK    4  A    between atoms: C14_17  and  C15_18 
REMARK    5  A    between atoms: C16_20  and  N3_21 
ROOT
HETATM    1  C5  UNL     1      22.619   1.573  52.254  1.00  0.00     0.035 A 
HETATM    2  C6  UNL     1      22.950   2.912  52.300  1.00  0.00     0.032 A 
HETATM    3  C7  UNL     1      24.146   3.304  52.857  1.00  0.00     0.034 A 
HETATM    4  C8  UNL     1      25.036   2.385  53.377  1.00  0.00     0.067 A 
HETATM    5  C9  UNL     1      24.660   1.060  53.309  1.00  0.00     0.007 A 
HETATM    6  C10 UNL     1      23.480   0.601  52.765  1.00  0.00     0.041 A 
HETATM    7  C11 UNL     1      25.730   0.211  53.911  1.00  0.00     0.155 A 
HETATM    8  C12 UNL     1      25.276  -0.583  55.024  1.00  0.00     0.086 C 
HETATM    9  N2  UNL     1      24.920  -1.218  55.913  1.00  0.00    -0.195 NA
HETATM   10  C16 UNL     1      26.720   1.259  54.309  1.00  0.00     0.130 A 
HETATM   11  N4  UNL     1      26.329   2.453  54.010  1.00  0.00    -0.233 NA
ENDROOT
BRANCH   7  12
HETATM   12  C13 UNL     1      26.382  -0.652  52.890  1.00  0.00     0.009 C 
HETATM   13  C14 UNL     1      27.097  -1.715  53.277  1.00  0.00     0.002 C 
BRANCH  13  14
HETATM   14  C15 UNL     1      27.827  -2.703  52.418  1.00  0.00     0.249 C 
HETATM   15  F1  UNL     1      28.918  -3.226  53.071  1.00  0.00    -0.251 F 
ENDBRANCH  13  14
ENDBRANCH   7  12
BRANCH  10  16
HETATM   16  N3  UNL     1      27.934   0.868  54.943  1.00  0.00    -0.385 N 
HETATM   17  H14 UNL     1      28.517  -0.002  54.986  1.00  0.00     0.157 HD
HETATM   18  H15 UNL     1      28.440   1.580  55.543  1.00  0.00     0.157 HD
ENDBRANCH  10  16
BRANCH   1  19
HETATM   19  N1  UNL     1      21.374   1.204  51.672  1.00  0.00    -0.324 N 
HETATM   20  C4  UNL     1      20.900   1.005  50.345  1.00  0.00     0.245 C 
HETATM   21  O1  UNL     1      21.779   1.196  49.468  1.00  0.00    -0.268 OA
HETATM   22  H6  UNL     1      20.823   1.102  52.553  1.00  0.00     0.169 HD
BRANCH  20  23
HETATM   23  C3  UNL     1      19.512   0.621  50.176  1.00  0.00     0.070 C 
HETATM   24  C2  UNL     1      18.655   0.255  51.098  1.00  0.00    -0.026 C 
HETATM   25  C1  UNL     1      17.267  -0.102  50.707  1.00  0.00     0.036 C 
ENDBRANCH  20  23
ENDBRANCH   1  19
TORSDOF 5
ENDMDL
MODEL 4
REMARK VINA RESULT:      -6.9      3.068      6.495
REMARK  5 active torsions:
REMARK  status: ('A' for Active; 'I' for Inactive)
REMARK    1  A    between atoms: C3_3  and  C4_4 
REMARK       I    between atoms: C4_4  and  N1_6 
REMARK    2  A    between atoms: N1_6  and  C5_7 
REMARK    3  A    between atoms: C11_13  and  C13_16 
REMARK    4  A    between atoms: C14_17  and  C15_18 
REMARK    5  A    between atoms: C16_20  and  N3_21 
ROOT
HETATM    1  C5  UNL     1      22.762   1.386  51.191  1.00  0.00     0.035 A 
HETATM    2  C6  UNL     1      21.587   1.067  51.842  1.00  0.00     0.032 A 
HETATM    3  C7  UNL     1      21.628   0.382  53.035  1.00  0.00     0.034 A 
HETATM    4  C8  UNL     1      22.825  -0.002  53.607  1.00  0.00     0.067 A 
HETATM    5  C9  UNL     1      23.971   0.338  52.918  1.00  0.00     0.007 A 
HETATM    6  C10 UNL     1      24.000   1.022  51.723  1.00  0.00     0.041 A 
HETATM    7  C11 UNL     1      25.163  -0.150  53.672  1.00  0.00     0.155 A 
HETATM    8  C12 UNL     1      25.984  -1.065  52.921  1.00  0.00     0.086 C 
HETATM    9  N2  UNL     1      26.642  -1.796  52.328  1.00  0.00    -0.195 NA
HETATM   10  C16 UNL     1      24.500  -0.793  54.848  1.00  0.00     0.130 A 
HETATM   11  N4  UNL     1      23.212  -0.705  54.803  1.00  0.00    -0.233 NA
ENDROOT
BRANCH   7  12
HETATM   12  C13 UNL     1      25.983   0.980  54.187  1.00  0.00     0.009 C 
HETATM   13  C14 UNL     1      27.147   1.279  53.598  1.00  0.00     0.002 C 
BRANCH  13  14
HETATM   14  C15 UNL     1      28.114   2.367  53.958  1.00  0.00     0.249 C 
HETATM   15  F1  UNL     1      29.359   1.857  54.242  1.00  0.00    -0.251 F 
ENDBRANCH  13  14
ENDBRANCH   7  12
BRANCH  10  16
HETATM   16  N3  UNL     1      25.302  -1.406  55.853  1.00  0.00    -0.385 N 
HETATM   17  H14 UNL     1      25.159  -2.135  56.592  1.00  0.00     0.157 HD
HETATM   18  H15 UNL     1      26.313  -1.102  55.944  1.00  0.00     0.157 HD
ENDBRANCH  10  16
BRANCH   1  19
HETATM   19  N1  UNL     1      22.681   2.094  49.960  1.00  0.00    -0.324 N 
HETATM   20  C4  UNL     1      22.881   3.445  49.558  1.00  0.00     0.245 C 
HETATM   21  O1  UNL     1      23.206   4.203  50.505  1.00  0.00    -0.268 OA
HETATM   22  H6  UNL     1      22.409   1.295  49.347  1.00  0.00     0.169 HD
BRANCH  20  23
HETATM   23  C3  UNL     1      22.691   3.766  48.157  1.00  0.00     0.070 C 
HETATM   24  C2  UNL     1      22.071   3.060  47.241  1.00  0.00    -0.026 C 
HETATM   25  C1  UNL     1      21.990   3.577  45.851  1.00  0.00     0.036 C 
ENDBRANCH  20  23
ENDBRANCH   1  19
TORSDOF 5
ENDMDL
MODEL 5
REMARK VINA RESULT:      -6.9      9.619     12.447
REMARK  5 active torsions:
REMARK  status: ('A' for Active; 'I' for Inactive)
REMARK    1  A    between atoms: C3_3  and  C4_4 
REMARK       I    between atoms: C4_4  and  N1_6 
REMARK    2  A    between atoms: N1_6  and  C5_7 
REMARK    3  A    between atoms: C11_13  and  C13_16 
REMARK    4  A    between atoms: C14_17  and  C15_18 
REMARK    5  A    between atoms: C16_20  and  N3_21 
ROOT
HETATM    1  C5  UNL     1      30.667   5.763  48.531  1.00  0.00     0.035 A 
HETATM    2  C6  UNL     1      31.582   6.499  49.256  1.00  0.00     0.032 A 
HETATM    3  C7  UNL     1      32.930   6.298  49.066  1.00  0.00     0.034 A 
HETATM    4  C8  UNL     1      33.401   5.369  48.160  1.00  0.00     0.067 A 
HETATM    5  C9  UNL     1      32.449   4.657  47.460  1.00  0.00     0.007 A 
HETATM    6  C10 UNL     1      31.087   4.810  47.601  1.00  0.00     0.041 A 
HETATM    7  C11 UNL     1      33.126   3.705  46.531  1.00  0.00     0.155 A 
HETATM    8  C12 UNL     1      32.779   2.327  46.766  1.00  0.00     0.086 C 
HETATM    9  N2  UNL     1      32.507   1.226  46.949  1.00  0.00    -0.195 NA
HETATM   10  C16 UNL     1      34.561   4.004  46.831  1.00  0.00     0.130 A 
HETATM   11  N4  UNL     1      34.701   4.921  47.729  1.00  0.00    -0.233 NA
ENDROOT
BRANCH   7  12
HETATM   12  C13 UNL     1      32.886   4.065  45.108  1.00  0.00     0.009 C 
HETATM   13  C14 UNL     1      33.102   5.319  44.694  1.00  0.00     0.002 C 
BRANCH  13  14
HETATM   14  C15 UNL     1      32.923   5.884  43.317  1.00  0.00     0.249 C 
HETATM   15  F1  UNL     1      32.988   4.900  42.359  1.00  0.00    -0.251 F 
ENDBRANCH  13  14
ENDBRANCH   7  12
BRANCH  10  16
HETATM   16  N3  UNL     1      35.582   3.291  46.139  1.00  0.00    -0.385 N 
HETATM   17  H14 UNL     1      36.459   2.783  46.404  1.00  0.00     0.157 HD
HETATM   18  H15 UNL     1      35.512   3.210  45.085  1.00  0.00     0.157 HD
ENDBRANCH  10  16
BRANCH   1  19
HETATM   19  N1  UNL     1      29.282   5.997  48.754  1.00  0.00    -0.324 N 
HETATM   20  C4  UNL     1      28.253   6.697  48.064  1.00  0.00     0.245 C 
HETATM   21  O1  UNL     1      28.647   7.242  47.002  1.00  0.00    -0.268 OA
HETATM   22  H6  UNL     1      29.186   5.473  49.651  1.00  0.00     0.169 HD
BRANCH  20  23
HETATM   23  C3  UNL     1      26.927   6.694  48.649  1.00  0.00     0.070 C 
HETATM   24  C2  UNL     1      26.221   5.665  49.052  1.00  0.00    -0.026 C 
HETATM   25  C1  UNL     1      24.870   5.885  49.628  1.00  0.00     0.036 C 
ENDBRANCH  20  23
ENDBRANCH   1  19
TORSDOF 5
ENDMDL
MODEL 6
REMARK VINA RESULT:      -6.8      4.185      5.535
REMARK  5 active torsions:
REMARK  status: ('A' for Active; 'I' for Inactive)
REMARK    1  A    between atoms: C3_3  and  C4_4 
REMARK       I    between atoms: C4_4  and  N1_6 
REMARK    2  A    between atoms: N1_6  and  C5_7 
REMARK    3  A    between atoms: C11_13  and  C13_16 
REMARK    4  A    between atoms: C14_17  and  C15_18 
REMARK    5  A    between atoms: C16_20  and  N3_21 
ROOT
HETATM    1  C5  UNL     1      24.176   4.551  50.869  1.00  0.00     0.035 A 
HETATM    2  C6  UNL     1      23.538   5.426  51.726  1.00  0.00     0.032 A 
HETATM    3  C7  UNL     1      22.388   5.036  52.373  1.00  0.00     0.034 A 
HETATM    4  C8  UNL     1      21.846   3.779  52.189  1.00  0.00     0.067 A 
HETATM    5  C9  UNL     1      22.518   2.941  51.323  1.00  0.00     0.007 A 
HETATM    6  C10 UNL     1      23.672   3.269  50.645  1.00  0.00     0.041 A 
HETATM    7  C11 UNL     1      21.801   1.635  51.242  1.00  0.00     0.155 A 
HETATM    8  C12 UNL     1      21.370   1.297  49.909  1.00  0.00     0.086 C 
HETATM    9  N2  UNL     1      21.023   1.023  48.849  1.00  0.00    -0.195 NA
HETATM   10  C16 UNL     1      20.661   1.890  52.176  1.00  0.00     0.130 A 
HETATM   11  N4  UNL     1      20.695   3.073  52.692  1.00  0.00    -0.233 NA
ENDROOT
BRANCH   7  12
HETATM   12  C13 UNL     1      22.612   0.530  51.821  1.00  0.00     0.009 C 
HETATM   13  C14 UNL     1      23.174   0.680  53.026  1.00  0.00     0.002 C 
BRANCH  13  14
HETATM   14  C15 UNL     1      24.020  -0.301  53.781  1.00  0.00     0.249 C 
HETATM   15  F1  UNL     1      25.015  -0.821  52.987  1.00  0.00    -0.251 F 
ENDBRANCH  13  14
ENDBRANCH   7  12
BRANCH  10  16
HETATM   16  N3  UNL     1      19.699   0.864  52.399  1.00  0.00    -0.385 N 
HETATM   17  H14 UNL     1      19.271   0.399  53.235  1.00  0.00     0.157 HD
HETATM   18  H15 UNL     1      19.254   0.400  51.556  1.00  0.00     0.157 HD
ENDBRANCH  10  16
BRANCH   1  19
HETATM   19  N1  UNL     1      25.362   4.988  50.217  1.00  0.00    -0.324 N 
HETATM   20  C4  UNL     1      25.649   5.738  49.041  1.00  0.00     0.245 C 
HETATM   21  O1  UNL     1      24.620   6.109  48.423  1.00  0.00    -0.268 OA
HETATM   22  H6  UNL     1      26.056   4.582  50.881  1.00  0.00     0.169 HD
BRANCH  20  23
HETATM   23  C3  UNL     1      27.042   5.972  48.715  1.00  0.00     0.070 C 
HETATM   24  C2  UNL     1      27.987   5.085  48.514  1.00  0.00    -0.026 C 
HETATM   25  C1  UNL     1      29.362   5.542  48.188  1.00  0.00     0.036 C 
ENDBRANCH  20  23
ENDBRANCH   1  19
TORSDOF 5
ENDMDL
MODEL 7
REMARK VINA RESULT:      -6.7      3.462      6.870
REMARK  5 active torsions:
REMARK  status: ('A' for Active; 'I' for Inactive)
REMARK    1  A    between atoms: C3_3  and  C4_4 
REMARK       I    between atoms: C4_4  and  N1_6 
REMARK    2  A    between atoms: N1_6  and  C5_7 
REMARK    3  A    between atoms: C11_13  and  C13_16 
REMARK    4  A    between atoms: C14_17  and  C15_18 
REMARK    5  A    between atoms: C16_20  and  N3_21 
ROOT
HETATM    1  C5  UNL     1      21.222   1.007  50.525  1.00  0.00     0.035 A 
HETATM    2  C6  UNL     1      21.205   1.247  49.166  1.00  0.00     0.032 A 
HETATM    3  C7  UNL     1      22.173   2.042  48.597  1.00  0.00     0.034 A 
HETATM    4  C8  UNL     1      23.175   2.614  49.355  1.00  0.00     0.067 A 
HETATM    5  C9  UNL     1      23.150   2.347  50.709  1.00  0.00     0.007 A 
HETATM    6  C10 UNL     1      22.211   1.560  51.340  1.00  0.00     0.041 A 
HETATM    7  C11 UNL     1      24.294   3.039  51.371  1.00  0.00     0.155 A 
HETATM    8  C12 UNL     1      23.890   3.968  52.395  1.00  0.00     0.086 C 
HETATM    9  N2  UNL     1      23.574   4.711  53.212  1.00  0.00    -0.195 NA
HETATM   10  C16 UNL     1      24.928   3.708  50.193  1.00  0.00     0.130 A 
HETATM   11  N4  UNL     1      24.305   3.468  49.088  1.00  0.00    -0.233 NA
ENDROOT
BRANCH   7  12
HETATM   12  C13 UNL     1      25.281   2.066  51.913  1.00  0.00     0.009 C 
HETATM   13  C14 UNL     1      25.253   1.745  53.212  1.00  0.00     0.002 C 
BRANCH  13  14
HETATM   14  C15 UNL     1      26.149   0.797  53.951  1.00  0.00     0.249 C 
HETATM   15  F1  UNL     1      25.425  -0.055  54.752  1.00  0.00    -0.251 F 
ENDBRANCH  13  14
ENDBRANCH   7  12
BRANCH  10  16
HETATM   16  N3  UNL     1      26.095   4.503  50.386  1.00  0.00    -0.385 N 
HETATM   17  H14 UNL     1      27.071   4.339  50.729  1.00  0.00     0.157 HD
HETATM   18  H15 UNL     1      26.046   5.534  50.147  1.00  0.00     0.157 HD
ENDBRANCH  10  16
BRANCH   1  19
HETATM   19  N1  UNL     1      20.205   0.181  51.079  1.00  0.00    -0.324 N 
HETATM   20  C4  UNL     1      18.971   0.413  51.749  1.00  0.00     0.245 C 
HETATM   21  O1  UNL     1      18.703   1.632  51.891  1.00  0.00    -0.268 OA
HETATM   22  H6  UNL     1      20.626  -0.746  50.852  1.00  0.00     0.169 HD
BRANCH  20  23
HETATM   23  C3  UNL     1      18.204  -0.744  52.168  1.00  0.00     0.070 C 
HETATM   24  C2  UNL     1      18.313  -1.427  53.282  1.00  0.00    -0.026 C 
HETATM   25  C1  UNL     1      17.420  -2.591  53.516  1.00  0.00     0.036 C 
ENDBRANCH  20  23
ENDBRANCH   1  19
TORSDOF 5
ENDMDL
MODEL 8
REMARK VINA RESULT:      -6.5      3.261      4.739
REMARK  5 active torsions:
REMARK  status: ('A' for Active; 'I' for Inactive)
REMARK    1  A    between atoms: C3_3  and  C4_4 
REMARK       I    between atoms: C4_4  and  N1_6 
REMARK    2  A    between atoms: N1_6  and  C5_7 
REMARK    3  A    between atoms: C11_13  and  C13_16 
REMARK    4  A    between atoms: C14_17  and  C15_18 
REMARK    5  A    between atoms: C16_20  and  N3_21 
ROOT
HETATM    1  C5  UNL     1      25.976   2.446  50.788  1.00  0.00     0.035 A 
HETATM    2  C6  UNL     1      26.606   3.538  50.225  1.00  0.00     0.032 A 
HETATM    3  C7  UNL     1      25.878   4.453  49.500  1.00  0.00     0.034 A 
HETATM    4  C8  UNL     1      24.517   4.309  49.316  1.00  0.00     0.067 A 
HETATM    5  C9  UNL     1      23.932   3.202  49.896  1.00  0.00     0.007 A 
HETATM    6  C10 UNL     1      24.603   2.251  50.634  1.00  0.00     0.041 A 
HETATM    7  C11 UNL     1      22.469   3.204  49.601  1.00  0.00     0.155 A 
HETATM    8  C12 UNL     1      22.024   2.031  48.893  1.00  0.00     0.086 C 
HETATM    9  N2  UNL     1      21.663   1.098  48.328  1.00  0.00    -0.195 NA
HETATM   10  C16 UNL     1      22.355   4.454  48.788  1.00  0.00     0.130 A 
HETATM   11  N4  UNL     1      23.488   5.055  48.637  1.00  0.00    -0.233 NA
ENDROOT
BRANCH   7  12
HETATM   12  C13 UNL     1      21.663   3.402  50.836  1.00  0.00     0.009 C 
HETATM   13  C14 UNL     1      21.042   2.358  51.398  1.00  0.00     0.002 C 
BRANCH  13  14
HETATM   14  C15 UNL     1      20.189   2.343  52.631  1.00  0.00     0.249 C 
HETATM   15  F1  UNL     1      20.641   1.417  53.542  1.00  0.00    -0.251 F 
ENDBRANCH  13  14
ENDBRANCH   7  12
BRANCH  10  16
HETATM   16  N3  UNL     1      21.081   4.845  48.284  1.00  0.00    -0.385 N 
HETATM   17  H14 UNL     1      20.688   5.108  47.349  1.00  0.00     0.157 HD
HETATM   18  H15 UNL     1      20.271   4.914  48.965  1.00  0.00     0.157 HD
ENDBRANCH  10  16
BRANCH   1  19
HETATM   19  N1  UNL     1      26.761   1.521  51.530  1.00  0.00    -0.324 N 
HETATM   20  C4  UNL     1      27.122   1.374  52.899  1.00  0.00     0.245 C 
HETATM   21  O1  UNL     1      26.638   2.266  53.640  1.00  0.00    -0.268 OA
HETATM   22  H6  UNL     1      27.046   0.901  50.740  1.00  0.00     0.169 HD
BRANCH  20  23
HETATM   23  C3  UNL     1      27.971   0.254  53.255  1.00  0.00     0.070 C 
HETATM   24  C2  UNL     1      29.262   0.257  53.484  1.00  0.00    -0.026 C 
HETATM   25  C1  UNL     1      29.945  -1.013  53.839  1.00  0.00     0.036 C 
ENDBRANCH  20  23
ENDBRANCH   1  19
TORSDOF 5
ENDMDL
MODEL 9
REMARK VINA RESULT:      -6.5     11.143     13.184
REMARK  5 active torsions:
REMARK  status: ('A' for Active; 'I' for Inactive)
REMARK    1  A    between atoms: C3_3  and  C4_4 
REMARK       I    between atoms: C4_4  and  N1_6 
REMARK    2  A    between atoms: N1_6  and  C5_7 
REMARK    3  A    between atoms: C11_13  and  C13_16 
REMARK    4  A    between atoms: C14_17  and  C15_18 
REMARK    5  A    between atoms: C16_20  and  N3_21 
ROOT
HETATM    1  C5  UNL     1      33.255   4.648  44.992  1.00  0.00     0.035 A 
HETATM    2  C6  UNL     1      34.410   4.374  45.698  1.00  0.00     0.032 A 
HETATM    3  C7  UNL     1      34.530   4.787  47.005  1.00  0.00     0.034 A 
HETATM    4  C8  UNL     1      33.517   5.477  47.640  1.00  0.00     0.067 A 
HETATM    5  C9  UNL     1      32.383   5.728  46.895  1.00  0.00     0.007 A 
HETATM    6  C10 UNL     1      32.199   5.342  45.585  1.00  0.00     0.041 A 
HETATM    7  C11 UNL     1      31.398   6.476  47.730  1.00  0.00     0.155 A 
HETATM    8  C12 UNL     1      31.031   7.756  47.180  1.00  0.00     0.086 C 
HETATM    9  N2  UNL     1      30.736   8.777  46.746  1.00  0.00    -0.195 NA
HETATM   10  C16 UNL     1      32.156   6.589  49.014  1.00  0.00     0.130 A 
HETATM   11  N4  UNL     1      33.322   6.036  48.954  1.00  0.00    -0.233 NA
ENDROOT
BRANCH   7  12
HETATM   12  C13 UNL     1      30.183   5.661  48.002  1.00  0.00     0.009 C 
HETATM   13  C14 UNL     1      28.996   6.263  48.137  1.00  0.00     0.002 C 
BRANCH  13  14
HETATM   14  C15 UNL     1      27.663   5.632  48.412  1.00  0.00     0.249 C 
HETATM   15  F1  UNL     1      27.774   4.269  48.552  1.00  0.00    -0.251 F 
ENDBRANCH  13  14
ENDBRANCH   7  12
BRANCH  10  16
HETATM   16  N3  UNL     1      31.559   7.257  50.121  1.00  0.00    -0.385 N 
HETATM   17  H14 UNL     1      31.610   7.181  51.165  1.00  0.00     0.157 HD
HETATM   18  H15 UNL     1      30.876   8.043  49.925  1.00  0.00     0.157 HD
ENDBRANCH  10  16
BRANCH   1  19
HETATM   19  N1  UNL     1      33.166   4.207  43.643  1.00  0.00    -0.324 N 
HETATM   20  C4  UNL     1      33.587   4.720  42.384  1.00  0.00     0.245 C 
HETATM   21  O1  UNL     1      34.180   5.824  42.469  1.00  0.00    -0.268 OA
HETATM   22  H6  UNL     1      32.659   3.311  43.813  1.00  0.00     0.169 HD
BRANCH  20  23
HETATM   23  C3  UNL     1      33.290   3.934  41.203  1.00  0.00     0.070 C 
HETATM   24  C2  UNL     1      34.108   3.189  40.499  1.00  0.00    -0.026 C 
HETATM   25  C1  UNL     1      33.595   2.459  39.312  1.00  0.00     0.036 C 
ENDBRANCH  20  23
ENDBRANCH   1  19
TORSDOF 5
ENDMDL
