MODEL 1
REMARK VINA RESULT:     -11.0      0.000      0.000
REMARK  0 active torsions:
REMARK  status: ('A' for Active; 'I' for Inactive)
ROOT
HETATM    1  C1  UNL     1      20.462   3.284  52.470  1.00  0.00     0.065 C 
HETATM    2  C2  UNL     1      21.310   2.453  51.568  1.00  0.00     0.241 C 
HETATM    3  O1  UNL     1      20.836   1.095  51.610  1.00  0.00    -0.324 OA
HETATM    4  C3  UNL     1      21.124   0.146  52.641  1.00  0.00     0.082 A 
HETATM    5  C4  UNL     1      20.168  -0.616  53.278  1.00  0.00     0.038 A 
HETATM    6  C5  UNL     1      20.548  -1.480  54.268  1.00  0.00     0.003 A 
HETATM    7  C6  UNL     1      21.841  -1.663  54.700  1.00  0.00     0.001 A 
HETATM    8  C7  UNL     1      22.769  -0.880  54.034  1.00  0.00     0.015 A 
HETATM    9  C8  UNL     1      22.413  -0.008  53.029  1.00  0.00     0.006 A 
HETATM   10  C9  UNL     1      23.669   0.582  52.513  1.00  0.00    -0.017 C 
HETATM   11  C10 UNL     1      24.687  -0.018  53.019  1.00  0.00    -0.017 C 
HETATM   12  C11 UNL     1      25.360  -0.957  53.795  1.00  0.00     0.162 C 
HETATM   13  N1  UNL     1      26.151  -0.296  54.822  1.00  0.00    -0.364 N 
HETATM   14  C12 UNL     1      26.577   0.867  54.134  1.00  0.00     0.186 C 
HETATM   15  O2  UNL     1      27.612   1.283  54.818  1.00  0.00    -0.172 OA
HETATM   16  C13 UNL     1      25.666   1.100  52.950  1.00  0.00     0.027 C 
HETATM   17  C14 UNL     1      26.164   2.223  52.400  1.00  0.00     0.030 C 
HETATM   18  C15 UNL     1      25.892   3.105  51.304  1.00  0.00    -0.007 A 
HETATM   19  C16 UNL     1      26.802   3.385  50.284  1.00  0.00     0.014 A 
HETATM   20  C17 UNL     1      26.662   4.168  49.162  1.00  0.00     0.001 A 
HETATM   21  C18 UNL     1      25.415   4.727  49.100  1.00  0.00     0.002 A 
HETATM   22  C19 UNL     1      24.430   4.528  50.043  1.00  0.00     0.032 A 
HETATM   23  C20 UNL     1      24.655   3.719  51.151  1.00  0.00     0.058 A 
HETATM   24  N2  UNL     1      23.358   3.757  51.831  1.00  0.00    -0.300 N 
HETATM   25  N3  UNL     1      22.678   2.588  51.888  1.00  0.00    -0.294 N 
HETATM   26  C21 UNL     1      23.489   1.535  51.404  1.00  0.00     0.185 C 
HETATM   27  H11 UNL     1      26.197  -0.792  55.715  1.00  0.00     0.162 HD
HETATM   28  H17 UNL     1      23.054   4.687  52.219  1.00  0.00     0.187 HD
ENDROOT
TORSDOF 0
ENDMDL
MODEL 2
REMARK VINA RESULT:     -10.2      2.185      4.004
REMARK  0 active torsions:
REMARK  status: ('A' for Active; 'I' for Inactive)
ROOT
HETATM    1  C1  UNL     1      23.681   4.953  52.206  1.00  0.00     0.065 C 
HETATM    2  C2  UNL     1      24.202   3.707  51.574  1.00  0.00     0.241 C 
HETATM    3  O1  UNL     1      23.280   3.288  50.552  1.00  0.00    -0.324 OA
HETATM    4  C3  UNL     1      22.057   2.581  50.774  1.00  0.00     0.082 A 
HETATM    5  C4  UNL     1      20.842   2.950  50.236  1.00  0.00     0.038 A 
HETATM    6  C5  UNL     1      19.727   2.215  50.530  1.00  0.00     0.003 A 
HETATM    7  C6  UNL     1      19.706   1.107  51.344  1.00  0.00     0.001 A 
HETATM    8  C7  UNL     1      20.945   0.770  51.862  1.00  0.00     0.015 A 
HETATM    9  C8  UNL     1      22.084   1.488  51.575  1.00  0.00     0.006 A 
HETATM   10  C9  UNL     1      23.207   0.787  52.237  1.00  0.00    -0.017 C 
HETATM   11  C10 UNL     1      22.814  -0.343  52.709  1.00  0.00    -0.017 C 
HETATM   12  C11 UNL     1      21.918  -1.374  52.972  1.00  0.00     0.162 C 
HETATM   13  N1  UNL     1      21.732  -1.533  54.407  1.00  0.00    -0.364 N 
HETATM   14  C12 UNL     1      23.034  -1.244  54.886  1.00  0.00     0.186 C 
HETATM   15  O2  UNL     1      23.060  -1.771  56.082  1.00  0.00    -0.172 OA
HETATM   16  C13 UNL     1      23.788  -0.473  53.827  1.00  0.00     0.027 C 
HETATM   17  C14 UNL     1      24.985  -0.254  54.403  1.00  0.00     0.030 C 
HETATM   18  C15 UNL     1      26.227   0.396  54.108  1.00  0.00    -0.007 A 
HETATM   19  C16 UNL     1      27.462  -0.253  54.097  1.00  0.00     0.014 A 
HETATM   20  C17 UNL     1      28.714   0.230  53.792  1.00  0.00     0.001 A 
HETATM   21  C18 UNL     1      28.666   1.555  53.458  1.00  0.00     0.002 A 
HETATM   22  C19 UNL     1      27.510   2.305  53.432  1.00  0.00     0.032 A 
HETATM   23  C20 UNL     1      26.283   1.738  53.754  1.00  0.00     0.058 A 
HETATM   24  N2  UNL     1      25.360   2.858  53.548  1.00  0.00    -0.300 N 
HETATM   25  N3  UNL     1      24.464   2.717  52.544  1.00  0.00    -0.294 N 
HETATM   26  C21 UNL     1      24.528   1.403  52.023  1.00  0.00     0.185 C 
HETATM   27  H11 UNL     1      20.784  -1.789  54.692  1.00  0.00     0.162 HD
HETATM   28  H17 UNL     1      25.466   3.684  54.192  1.00  0.00     0.187 HD
ENDROOT
TORSDOF 0
ENDMDL
MODEL 3
REMARK VINA RESULT:     -10.2      1.638      5.467
REMARK  0 active torsions:
REMARK  status: ('A' for Active; 'I' for Inactive)
ROOT
HETATM    1  C1  UNL     1      21.864   2.276  48.373  1.00  0.00     0.065 C 
HETATM    2  C2  UNL     1      21.963   2.697  49.800  1.00  0.00     0.241 C 
HETATM    3  O1  UNL     1      22.727   3.915  49.870  1.00  0.00    -0.324 OA
HETATM    4  C3  UNL     1      24.153   4.007  49.816  1.00  0.00     0.082 A 
HETATM    5  C4  UNL     1      24.841   4.867  48.987  1.00  0.00     0.038 A 
HETATM    6  C5  UNL     1      26.208   4.859  48.997  1.00  0.00     0.003 A 
HETATM    7  C6  UNL     1      26.986   4.042  49.784  1.00  0.00     0.001 A 
HETATM    8  C7  UNL     1      26.257   3.195  50.601  1.00  0.00     0.015 A 
HETATM    9  C8  UNL     1      24.879   3.188  50.616  1.00  0.00     0.006 A 
HETATM   10  C9  UNL     1      24.469   2.222  51.658  1.00  0.00    -0.017 C 
HETATM   11  C10 UNL     1      25.490   1.833  52.336  1.00  0.00    -0.017 C 
HETATM   12  C11 UNL     1      26.829   1.784  52.713  1.00  0.00     0.162 C 
HETATM   13  N1  UNL     1      27.369   0.449  52.504  1.00  0.00    -0.364 N 
HETATM   14  C12 UNL     1      26.247  -0.354  52.831  1.00  0.00     0.186 C 
HETATM   15  O2  UNL     1      26.759  -1.531  53.082  1.00  0.00    -0.172 OA
HETATM   16  C13 UNL     1      24.995   0.489  52.741  1.00  0.00     0.027 C 
HETATM   17  C14 UNL     1      24.019  -0.382  53.056  1.00  0.00     0.030 C 
HETATM   18  C15 UNL     1      22.592  -0.411  53.182  1.00  0.00    -0.007 A 
HETATM   19  C16 UNL     1      21.919  -0.759  54.354  1.00  0.00     0.014 A 
HETATM   20  C17 UNL     1      20.571  -0.787  54.627  1.00  0.00     0.001 A 
HETATM   21  C18 UNL     1      19.837  -0.404  53.539  1.00  0.00     0.002 A 
HETATM   22  C19 UNL     1      20.383  -0.038  52.327  1.00  0.00     0.032 A 
HETATM   23  C20 UNL     1      21.759  -0.036  52.134  1.00  0.00     0.058 A 
HETATM   24  N2  UNL     1      21.879   0.453  50.759  1.00  0.00    -0.300 N 
HETATM   25  N3  UNL     1      22.478   1.657  50.602  1.00  0.00    -0.294 N 
HETATM   26  C21 UNL     1      23.013   2.092  51.838  1.00  0.00     0.185 C 
HETATM   27  H11 UNL     1      28.342   0.422  52.196  1.00  0.00     0.162 HD
HETATM   28  H17 UNL     1      21.490  -0.165  50.000  1.00  0.00     0.187 HD
ENDROOT
TORSDOF 0
ENDMDL
MODEL 4
REMARK VINA RESULT:      -9.7      2.046      4.723
REMARK  0 active torsions:
REMARK  status: ('A' for Active; 'I' for Inactive)
ROOT
HETATM    1  C1  UNL     1      22.680  -1.286  52.946  1.00  0.00     0.065 C 
HETATM    2  C2  UNL     1      23.191  -0.066  53.634  1.00  0.00     0.241 C 
HETATM    3  O1  UNL     1      22.113   0.880  53.757  1.00  0.00    -0.324 OA
HETATM    4  C3  UNL     1      21.644   1.745  52.720  1.00  0.00     0.082 A 
HETATM    5  C4  UNL     1      20.318   1.882  52.369  1.00  0.00     0.038 A 
HETATM    6  C5  UNL     1      19.977   2.722  51.345  1.00  0.00     0.003 A 
HETATM    7  C6  UNL     1      20.868   3.467  50.608  1.00  0.00     0.001 A 
HETATM    8  C7  UNL     1      22.188   3.302  50.993  1.00  0.00     0.015 A 
HETATM    9  C8  UNL     1      22.556   2.467  52.026  1.00  0.00     0.006 A 
HETATM   10  C9  UNL     1      24.019   2.615  52.190  1.00  0.00    -0.017 C 
HETATM   11  C10 UNL     1      24.457   3.582  51.465  1.00  0.00    -0.017 C 
HETATM   12  C11 UNL     1      24.375   4.651  50.577  1.00  0.00     0.162 C 
HETATM   13  N1  UNL     1      25.122   4.362  49.362  1.00  0.00    -0.364 N 
HETATM   14  C12 UNL     1      26.216   3.624  49.882  1.00  0.00     0.186 C 
HETATM   15  O2  UNL     1      27.127   3.700  48.947  1.00  0.00    -0.172 OA
HETATM   16  C13 UNL     1      25.846   3.093  51.248  1.00  0.00     0.027 C 
HETATM   17  C14 UNL     1      26.946   2.412  51.618  1.00  0.00     0.030 C 
HETATM   18  C15 UNL     1      27.411   1.619  52.717  1.00  0.00    -0.007 A 
HETATM   19  C16 UNL     1      28.551   1.915  53.466  1.00  0.00     0.014 A 
HETATM   20  C17 UNL     1      29.083   1.275  54.560  1.00  0.00     0.001 A 
HETATM   21  C18 UNL     1      28.330   0.190  54.915  1.00  0.00     0.002 A 
HETATM   22  C19 UNL     1      27.185  -0.207  54.256  1.00  0.00     0.032 A 
HETATM   23  C20 UNL     1      26.714   0.499  53.156  1.00  0.00     0.058 A 
HETATM   24  N2  UNL     1      25.488  -0.229  52.822  1.00  0.00    -0.300 N 
HETATM   25  N3  UNL     1      24.327   0.450  52.976  1.00  0.00    -0.294 N 
HETATM   26  C21 UNL     1      24.600   1.806  53.276  1.00  0.00     0.185 C 
HETATM   27  H11 UNL     1      24.707   4.729  48.504  1.00  0.00     0.162 HD
HETATM   28  H17 UNL     1      25.602  -1.222  52.491  1.00  0.00     0.187 HD
ENDROOT
TORSDOF 0
ENDMDL
MODEL 5
REMARK VINA RESULT:      -9.7      2.123      5.669
REMARK  0 active torsions:
REMARK  status: ('A' for Active; 'I' for Inactive)
ROOT
HETATM    1  C1  UNL     1      22.611  -1.015  55.290  1.00  0.00     0.065 C 
HETATM    2  C2  UNL     1      22.695  -0.948  53.803  1.00  0.00     0.241 C 
HETATM    3  O1  UNL     1      24.072  -1.096  53.410  1.00  0.00    -0.324 OA
HETATM    4  C3  UNL     1      25.061  -0.065  53.444  1.00  0.00     0.082 A 
HETATM    5  C4  UNL     1      26.309  -0.209  54.013  1.00  0.00     0.038 A 
HETATM    6  C5  UNL     1      27.174   0.849  54.011  1.00  0.00     0.003 A 
HETATM    7  C6  UNL     1      26.904   2.087  53.477  1.00  0.00     0.001 A 
HETATM    8  C7  UNL     1      25.643   2.190  52.915  1.00  0.00     0.015 A 
HETATM    9  C8  UNL     1      24.755   1.137  52.897  1.00  0.00     0.006 A 
HETATM   10  C9  UNL     1      23.563   1.598  52.151  1.00  0.00    -0.017 C 
HETATM   11  C10 UNL     1      23.788   2.741  51.608  1.00  0.00    -0.017 C 
HETATM   12  C11 UNL     1      24.530   3.866  51.263  1.00  0.00     0.162 C 
HETATM   13  N1  UNL     1      23.927   5.066  51.826  1.00  0.00    -0.364 N 
HETATM   14  C12 UNL     1      22.548   4.753  51.724  1.00  0.00     0.186 C 
HETATM   15  O2  UNL     1      21.951   5.914  51.800  1.00  0.00    -0.172 OA
HETATM   16  C13 UNL     1      22.392   3.257  51.578  1.00  0.00     0.027 C 
HETATM   17  C14 UNL     1      21.058   3.096  51.505  1.00  0.00     0.030 C 
HETATM   18  C15 UNL     1      20.099   2.038  51.386  1.00  0.00    -0.007 A 
HETATM   19  C16 UNL     1      19.172   1.939  50.348  1.00  0.00     0.014 A 
HETATM   20  C17 UNL     1      18.234   0.967  50.087  1.00  0.00     0.001 A 
HETATM   21  C18 UNL     1      18.271  -0.024  51.029  1.00  0.00     0.002 A 
HETATM   22  C19 UNL     1      19.139  -0.041  52.100  1.00  0.00     0.032 A 
HETATM   23  C20 UNL     1      20.059   0.983  52.290  1.00  0.00     0.058 A 
HETATM   24  N2  UNL     1      20.781   0.534  53.483  1.00  0.00    -0.300 N 
HETATM   25  N3  UNL     1      22.088   0.228  53.313  1.00  0.00    -0.294 N 
HETATM   26  C21 UNL     1      22.499   0.588  52.008  1.00  0.00     0.185 C 
HETATM   27  H11 UNL     1      24.593   5.777  52.134  1.00  0.00     0.162 HD
HETATM   28  H17 UNL     1      20.229   0.482  54.379  1.00  0.00     0.187 HD
ENDROOT
TORSDOF 0
ENDMDL
MODEL 6
REMARK VINA RESULT:      -9.6      1.831      4.365
REMARK  0 active torsions:
REMARK  status: ('A' for Active; 'I' for Inactive)
ROOT
HETATM    1  C1  UNL     1      27.909   0.408  52.379  1.00  0.00     0.065 C 
HETATM    2  C2  UNL     1      27.020   1.562  52.698  1.00  0.00     0.241 C 
HETATM    3  O1  UNL     1      26.393   1.324  53.972  1.00  0.00    -0.324 OA
HETATM    4  C3  UNL     1      25.261   0.480  54.196  1.00  0.00     0.082 A 
HETATM    5  C4  UNL     1      25.201  -0.488  55.176  1.00  0.00     0.038 A 
HETATM    6  C5  UNL     1      24.077  -1.257  55.292  1.00  0.00     0.003 A 
HETATM    7  C6  UNL     1      22.964  -1.151  54.492  1.00  0.00     0.001 A 
HETATM    8  C7  UNL     1      23.064  -0.168  53.522  1.00  0.00     0.015 A 
HETATM    9  C8  UNL     1      24.182   0.626  53.389  1.00  0.00     0.006 A 
HETATM   10  C9  UNL     1      23.888   1.598  52.313  1.00  0.00    -0.017 C 
HETATM   11  C10 UNL     1      22.652   1.525  51.968  1.00  0.00    -0.017 C 
HETATM   12  C11 UNL     1      21.339   1.066  52.013  1.00  0.00     0.162 C 
HETATM   13  N1  UNL     1      20.976   0.437  50.752  1.00  0.00    -0.364 N 
HETATM   14  C12 UNL     1      21.681   1.248  49.828  1.00  0.00     0.186 C 
HETATM   15  O2  UNL     1      21.082   1.028  48.687  1.00  0.00    -0.172 OA
HETATM   16  C13 UNL     1      22.782   1.983  50.558  1.00  0.00     0.027 C 
HETATM   17  C14 UNL     1      23.373   2.695  49.580  1.00  0.00     0.030 C 
HETATM   18  C15 UNL     1      24.467   3.605  49.412  1.00  0.00    -0.007 A 
HETATM   19  C16 UNL     1      24.332   4.902  48.916  1.00  0.00     0.014 A 
HETATM   20  C17 UNL     1      25.277   5.887  48.745  1.00  0.00     0.001 A 
HETATM   21  C18 UNL     1      26.515   5.462  49.141  1.00  0.00     0.002 A 
HETATM   22  C19 UNL     1      26.777   4.206  49.646  1.00  0.00     0.032 A 
HETATM   23  C20 UNL     1      25.761   3.267  49.788  1.00  0.00     0.058 A 
HETATM   24  N2  UNL     1      26.469   2.134  50.389  1.00  0.00    -0.300 N 
HETATM   25  N3  UNL     1      26.106   1.804  51.651  1.00  0.00    -0.294 N 
HETATM   26  C21 UNL     1      24.973   2.557  52.038  1.00  0.00     0.185 C 
HETATM   27  H11 UNL     1      20.356  -0.371  50.838  1.00  0.00     0.162 HD
HETATM   28  H17 UNL     1      27.203   1.666  49.798  1.00  0.00     0.187 HD
ENDROOT
TORSDOF 0
ENDMDL
MODEL 7
REMARK VINA RESULT:      -8.8      6.970      9.783
REMARK  0 active torsions:
REMARK  status: ('A' for Active; 'I' for Inactive)
ROOT
HETATM    1  C1  UNL     1      27.223   9.557  50.436  1.00  0.00     0.065 C 
HETATM    2  C2  UNL     1      27.669   9.386  49.023  1.00  0.00     0.241 C 
HETATM    3  O1  UNL     1      26.847   8.382  48.398  1.00  0.00    -0.324 OA
HETATM    4  C3  UNL     1      27.004   6.969  48.546  1.00  0.00     0.082 A 
HETATM    5  C4  UNL     1      25.975   6.106  48.858  1.00  0.00     0.038 A 
HETATM    6  C5  UNL     1      26.238   4.771  48.999  1.00  0.00     0.003 A 
HETATM    7  C6  UNL     1      27.477   4.193  48.853  1.00  0.00     0.001 A 
HETATM    8  C7  UNL     1      28.481   5.093  48.539  1.00  0.00     0.015 A 
HETATM    9  C8  UNL     1      28.242   6.441  48.385  1.00  0.00     0.006 A 
HETATM   10  C9  UNL     1      29.524   7.057  47.979  1.00  0.00    -0.017 C 
HETATM   11  C10 UNL     1      30.397   6.148  47.724  1.00  0.00    -0.017 C 
HETATM   12  C11 UNL     1      30.887   4.854  47.574  1.00  0.00     0.162 C 
HETATM   13  N1  UNL     1      31.968   4.606  48.516  1.00  0.00    -0.364 N 
HETATM   14  C12 UNL     1      32.598   5.876  48.549  1.00  0.00     0.186 C 
HETATM   15  O2  UNL     1      33.794   5.627  49.017  1.00  0.00    -0.172 OA
HETATM   16  C13 UNL     1      31.629   6.920  48.045  1.00  0.00     0.027 C 
HETATM   17  C14 UNL     1      32.335   8.062  48.139  1.00  0.00     0.030 C 
HETATM   18  C15 UNL     1      32.165   9.464  47.898  1.00  0.00    -0.007 A 
HETATM   19  C16 UNL     1      32.962  10.207  47.027  1.00  0.00     0.014 A 
HETATM   20  C17 UNL     1      32.886  11.533  46.669  1.00  0.00     0.001 A 
HETATM   21  C18 UNL     1      31.848  12.159  47.303  1.00  0.00     0.002 A 
HETATM   22  C19 UNL     1      30.991  11.535  48.185  1.00  0.00     0.032 A 
HETATM   23  C20 UNL     1      31.138  10.188  48.491  1.00  0.00     0.058 A 
HETATM   24  N2  UNL     1      30.013   9.952  49.400  1.00  0.00    -0.300 N 
HETATM   25  N3  UNL     1      29.051   9.111  48.956  1.00  0.00    -0.294 N 
HETATM   26  C21 UNL     1      29.461   8.510  47.743  1.00  0.00     0.185 C 
HETATM   27  H11 UNL     1      32.002   3.657  48.892  1.00  0.00     0.162 HD
HETATM   28  H17 UNL     1      30.038  10.455  50.325  1.00  0.00     0.187 HD
ENDROOT
TORSDOF 0
ENDMDL
MODEL 8
REMARK VINA RESULT:      -8.8      2.295      5.654
REMARK  0 active torsions:
REMARK  status: ('A' for Active; 'I' for Inactive)
ROOT
HETATM    1  C1  UNL     1      18.559   1.136  50.018  1.00  0.00     0.065 C 
HETATM    2  C2  UNL     1      18.993   1.632  51.356  1.00  0.00     0.241 C 
HETATM    3  O1  UNL     1      18.641   3.023  51.470  1.00  0.00    -0.324 OA
HETATM    4  C3  UNL     1      19.373   4.114  50.905  1.00  0.00     0.082 A 
HETATM    5  C4  UNL     1      18.803   5.120  50.155  1.00  0.00     0.038 A 
HETATM    6  C5  UNL     1      19.598   6.108  49.642  1.00  0.00     0.003 A 
HETATM    7  C6  UNL     1      20.961   6.189  49.810  1.00  0.00     0.001 A 
HETATM    8  C7  UNL     1      21.493   5.160  50.569  1.00  0.00     0.015 A 
HETATM    9  C8  UNL     1      20.713   4.159  51.104  1.00  0.00     0.006 A 
HETATM   10  C9  UNL     1      21.613   3.302  51.907  1.00  0.00    -0.017 C 
HETATM   11  C10 UNL     1      22.775   3.841  52.006  1.00  0.00    -0.017 C 
HETATM   12  C11 UNL     1      23.752   4.815  51.816  1.00  0.00     0.162 C 
HETATM   13  N1  UNL     1      24.866   4.276  51.051  1.00  0.00    -0.364 N 
HETATM   14  C12 UNL     1      24.916   2.945  51.540  1.00  0.00     0.186 C 
HETATM   15  O2  UNL     1      26.121   2.538  51.236  1.00  0.00    -0.172 OA
HETATM   16  C13 UNL     1      23.587   2.604  52.174  1.00  0.00     0.027 C 
HETATM   17  C14 UNL     1      23.760   1.332  52.578  1.00  0.00     0.030 C 
HETATM   18  C15 UNL     1      23.018   0.290  53.223  1.00  0.00    -0.007 A 
HETATM   19  C16 UNL     1      23.410  -0.323  54.414  1.00  0.00     0.014 A 
HETATM   20  C17 UNL     1      22.781  -1.294  55.159  1.00  0.00     0.001 A 
HETATM   21  C18 UNL     1      21.597  -1.669  54.587  1.00  0.00     0.002 A 
HETATM   22  C19 UNL     1      21.102  -1.139  53.414  1.00  0.00     0.032 A 
HETATM   23  C20 UNL     1      21.802  -0.158  52.722  1.00  0.00     0.058 A 
HETATM   24  N2  UNL     1      20.903   0.132  51.602  1.00  0.00    -0.300 N 
HETATM   25  N3  UNL     1      20.362   1.372  51.574  1.00  0.00    -0.294 N 
HETATM   26  C21 UNL     1      20.947   2.174  52.582  1.00  0.00     0.185 C 
HETATM   27  H11 UNL     1      25.301   4.934  50.402  1.00  0.00     0.162 HD
HETATM   28  H17 UNL     1      20.746  -0.644  50.908  1.00  0.00     0.187 HD
ENDROOT
TORSDOF 0
ENDMDL
MODEL 9
REMARK VINA RESULT:      -8.7      1.899      4.883
REMARK  0 active torsions:
REMARK  status: ('A' for Active; 'I' for Inactive)
ROOT
HETATM    1  C1  UNL     1      26.792   2.770  49.333  1.00  0.00     0.065 C 
HETATM    2  C2  UNL     1      26.132   3.379  50.523  1.00  0.00     0.241 C 
HETATM    3  O1  UNL     1      26.753   2.858  51.712  1.00  0.00    -0.324 OA
HETATM    4  C3  UNL     1      26.483   1.583  52.301  1.00  0.00     0.082 A 
HETATM    5  C4  UNL     1      27.457   0.680  52.670  1.00  0.00     0.038 A 
HETATM    6  C5  UNL     1      27.089  -0.524  53.205  1.00  0.00     0.003 A 
HETATM    7  C6  UNL     1      25.792  -0.929  53.413  1.00  0.00     0.001 A 
HETATM    8  C7  UNL     1      24.845   0.006  53.030  1.00  0.00     0.015 A 
HETATM    9  C8  UNL     1      25.190   1.228  52.495  1.00  0.00     0.006 A 
HETATM   10  C9  UNL     1      23.928   1.972  52.289  1.00  0.00    -0.017 C 
HETATM   11  C10 UNL     1      22.943   1.343  52.824  1.00  0.00    -0.017 C 
HETATM   12  C11 UNL     1      22.313   0.329  53.541  1.00  0.00     0.162 C 
HETATM   13  N1  UNL     1      21.361  -0.375  52.696  1.00  0.00    -0.364 N 
HETATM   14  C12 UNL     1      20.869   0.685  51.894  1.00  0.00     0.186 C 
HETATM   15  O2  UNL     1      19.735   0.232  51.425  1.00  0.00    -0.172 OA
HETATM   16  C13 UNL     1      21.852   1.833  51.938  1.00  0.00     0.027 C 
HETATM   17  C14 UNL     1      21.281   2.754  51.139  1.00  0.00     0.030 C 
HETATM   18  C15 UNL     1      21.550   4.068  50.637  1.00  0.00    -0.007 A 
HETATM   19  C16 UNL     1      20.711   5.165  50.837  1.00  0.00     0.014 A 
HETATM   20  C17 UNL     1      20.863   6.478  50.455  1.00  0.00     0.001 A 
HETATM   21  C18 UNL     1      22.038   6.665  49.780  1.00  0.00     0.002 A 
HETATM   22  C19 UNL     1      22.949   5.663  49.519  1.00  0.00     0.032 A 
HETATM   23  C20 UNL     1      22.717   4.360  49.943  1.00  0.00     0.058 A 
HETATM   24  N2  UNL     1      23.933   3.671  49.503  1.00  0.00    -0.300 N 
HETATM   25  N3  UNL     1      24.735   3.189  50.482  1.00  0.00    -0.294 N 
HETATM   26  C21 UNL     1      24.097   3.328  51.737  1.00  0.00     0.185 C 
HETATM   27  H11 UNL     1      21.290  -1.379  52.872  1.00  0.00     0.162 HD
HETATM   28  H17 UNL     1      24.091   3.605  48.464  1.00  0.00     0.187 HD
ENDROOT
TORSDOF 0
ENDMDL
