MODEL 1
REMARK VINA RESULT:      -8.4      0.000      0.000
REMARK  3 active torsions:
REMARK  status: ('A' for Active; 'I' for Inactive)
REMARK    1  A    between atoms: C6_8  and  N3_9 
REMARK    2  A    between atoms: N3_9  and  C7_10 
REMARK    3  A    between atoms: C15_19  and  N4_20 
ROOT
HETATM    1  C1  UNL     1      22.261   5.016  46.882  1.00  0.00     0.046 C 
HETATM    2  C2  UNL     1      22.740   4.551  48.236  1.00  0.00    -0.058 C 
HETATM    3  C3  UNL     1      22.986   3.287  48.504  1.00  0.00     0.037 C 
HETATM    4  C4  UNL     1      23.462   2.853  49.828  1.00  0.00     0.070 A 
HETATM    5  N1  UNL     1      22.568   1.950  50.234  1.00  0.00    -0.241 NA
HETATM    6  C5  UNL     1      22.651   1.289  51.399  1.00  0.00     0.235 A 
HETATM    7  N2  UNL     1      23.702   1.572  52.180  1.00  0.00    -0.224 NA
HETATM    8  C6  UNL     1      24.584   2.486  51.744  1.00  0.00     0.140 A 
HETATM    9  C14 UNL     1      24.575   3.222  50.545  1.00  0.00     0.049 A 
HETATM   10  C15 UNL     1      25.709   4.141  50.444  1.00  0.00     0.259 C 
HETATM   11  C16 UNL     1      25.283   5.566  50.076  1.00  0.00     0.066 C 
HETATM   12  C17 UNL     1      24.931   5.693  48.644  1.00  0.00     0.170 C 
HETATM   13  O1  UNL     1      23.798   6.569  48.556  1.00  0.00    -0.387 OA
HETATM   14  C18 UNL     1      22.770   5.762  49.158  1.00  0.00     0.201 C 
ENDROOT
BRANCH   8  15
HETATM   15  N3  UNL     1      25.641   2.637  52.729  1.00  0.00    -0.340 N 
HETATM   16  H6  UNL     1      26.000   3.328  53.447  1.00  0.00     0.167 HD
BRANCH  15  17
HETATM   17  C7  UNL     1      26.624   1.633  52.946  1.00  0.00     0.035 A 
HETATM   18  C8  UNL     1      27.861   2.080  53.426  1.00  0.00     0.030 A 
HETATM   19  C9  UNL     1      28.916   1.216  53.655  1.00  0.00     0.011 A 
HETATM   20  C10 UNL     1      28.792  -0.145  53.415  1.00  0.00    -0.040 A 
HETATM   21  C11 UNL     1      29.864  -1.147  53.630  1.00  0.00     0.050 C 
HETATM   22  C12 UNL     1      27.586  -0.616  52.943  1.00  0.00     0.042 A 
HETATM   23 CL1  UNL     1      27.272  -2.314  52.591  1.00  0.00    -0.084 Cl
HETATM   24  C13 UNL     1      26.561   0.274  52.728  1.00  0.00     0.053 A 
ENDBRANCH  15  17
ENDBRANCH   8  15
BRANCH  10  25
HETATM   25  N4  UNL     1      26.661   3.729  49.416  1.00  0.00     0.087 N 
HETATM   26  H14 UNL     1      26.191   3.744  48.463  1.00  0.00     0.313 HD
HETATM   27  H15 UNL     1      27.513   4.331  49.420  1.00  0.00     0.313 HD
ENDBRANCH  10  25
TORSDOF 3
ENDMDL
MODEL 2
REMARK VINA RESULT:      -8.4      1.903      2.992
REMARK  3 active torsions:
REMARK  status: ('A' for Active; 'I' for Inactive)
REMARK    1  A    between atoms: C6_8  and  N3_9 
REMARK    2  A    between atoms: N3_9  and  C7_10 
REMARK    3  A    between atoms: C15_19  and  N4_20 
ROOT
HETATM    1  C1  UNL     1      20.908   3.128  47.893  1.00  0.00     0.046 C 
HETATM    2  C2  UNL     1      22.120   2.865  48.753  1.00  0.00    -0.058 C 
HETATM    3  C3  UNL     1      23.063   3.762  48.942  1.00  0.00     0.037 C 
HETATM    4  C4  UNL     1      24.235   3.491  49.791  1.00  0.00     0.070 A 
HETATM    5  N1  UNL     1      25.286   3.700  49.000  1.00  0.00    -0.241 NA
HETATM    6  C5  UNL     1      26.561   3.579  49.404  1.00  0.00     0.235 A 
HETATM    7  N2  UNL     1      26.758   3.227  50.681  1.00  0.00    -0.224 NA
HETATM    8  C6  UNL     1      25.678   3.023  51.453  1.00  0.00     0.140 A 
HETATM    9  C14 UNL     1      24.316   3.127  51.114  1.00  0.00     0.049 A 
HETATM   10  C15 UNL     1      23.434   2.804  52.236  1.00  0.00     0.259 C 
HETATM   11  C16 UNL     1      22.352   1.785  51.861  1.00  0.00     0.066 C 
HETATM   12  C17 UNL     1      21.266   2.390  51.059  1.00  0.00     0.170 C 
HETATM   13  O1  UNL     1      20.884   1.433  50.061  1.00  0.00    -0.387 OA
HETATM   14  C18 UNL     1      22.051   1.417  49.222  1.00  0.00     0.201 C 
ENDROOT
BRANCH   8  15
HETATM   15  N3  UNL     1      26.109   2.660  52.792  1.00  0.00    -0.340 N 
HETATM   16  H6  UNL     1      25.986   2.956  53.801  1.00  0.00     0.167 HD
BRANCH  15  17
HETATM   17  C7  UNL     1      27.000   1.579  53.034  1.00  0.00     0.035 A 
HETATM   18  C8  UNL     1      28.240   1.919  53.586  1.00  0.00     0.030 A 
HETATM   19  C9  UNL     1      29.213   0.971  53.848  1.00  0.00     0.011 A 
HETATM   20  C10 UNL     1      28.998  -0.372  53.570  1.00  0.00    -0.040 A 
HETATM   21  C11 UNL     1      29.978  -1.457  53.815  1.00  0.00     0.050 C 
HETATM   22  C12 UNL     1      27.786  -0.738  53.026  1.00  0.00     0.042 A 
HETATM   23 CL1  UNL     1      27.362  -2.399  52.619  1.00  0.00    -0.084 Cl
HETATM   24  C13 UNL     1      26.845   0.233  52.781  1.00  0.00     0.053 A 
ENDBRANCH  15  17
ENDBRANCH   8  15
BRANCH  10  25
HETATM   25  N4  UNL     1      22.723   3.979  52.732  1.00  0.00     0.087 N 
HETATM   26  H14 UNL     1      22.192   4.441  51.937  1.00  0.00     0.313 HD
HETATM   27  H15 UNL     1      22.080   3.734  53.516  1.00  0.00     0.313 HD
ENDBRANCH  10  25
TORSDOF 3
ENDMDL
MODEL 3
REMARK VINA RESULT:      -8.3      1.949      3.013
REMARK  3 active torsions:
REMARK  status: ('A' for Active; 'I' for Inactive)
REMARK    1  A    between atoms: C6_8  and  N3_9 
REMARK    2  A    between atoms: N3_9  and  C7_10 
REMARK    3  A    between atoms: C15_19  and  N4_20 
ROOT
HETATM    1  C1  UNL     1      21.469   6.010  48.619  1.00  0.00     0.046 C 
HETATM    2  C2  UNL     1      22.443   5.084  49.307  1.00  0.00    -0.058 C 
HETATM    3  C3  UNL     1      23.711   5.388  49.476  1.00  0.00     0.037 C 
HETATM    4  C4  UNL     1      24.644   4.476  50.158  1.00  0.00     0.070 A 
HETATM    5  N1  UNL     1      25.623   4.266  49.278  1.00  0.00    -0.241 NA
HETATM    6  C5  UNL     1      26.695   3.497  49.522  1.00  0.00     0.235 A 
HETATM    7  N2  UNL     1      26.761   2.920  50.730  1.00  0.00    -0.224 NA
HETATM    8  C6  UNL     1      25.759   3.150  51.594  1.00  0.00     0.140 A 
HETATM    9  C14 UNL     1      24.606   3.937  51.422  1.00  0.00     0.049 A 
HETATM   10  C15 UNL     1      23.737   3.921  52.599  1.00  0.00     0.259 C 
HETATM   11  C16 UNL     1      22.278   3.605  52.252  1.00  0.00     0.066 C 
HETATM   12  C17 UNL     1      21.585   4.760  51.638  1.00  0.00     0.170 C 
HETATM   13  O1  UNL     1      20.734   4.249  50.602  1.00  0.00    -0.387 OA
HETATM   14  C18 UNL     1      21.701   3.796  49.639  1.00  0.00     0.201 C 
ENDROOT
BRANCH   8  15
HETATM   15  N3  UNL     1      26.028   2.444  52.835  1.00  0.00    -0.340 N 
HETATM   16  H6  UNL     1      25.892   2.543  53.881  1.00  0.00     0.167 HD
BRANCH  15  17
HETATM   17  C7  UNL     1      26.691   1.187  52.864  1.00  0.00     0.035 A 
HETATM   18  C8  UNL     1      25.913   0.075  52.520  1.00  0.00     0.030 A 
HETATM   19  C9  UNL     1      26.422  -1.211  52.532  1.00  0.00     0.011 A 
HETATM   20  C10 UNL     1      27.740  -1.456  52.892  1.00  0.00    -0.040 A 
HETATM   21  C11 UNL     1      28.373  -2.796  52.936  1.00  0.00     0.050 C 
HETATM   22  C12 UNL     1      28.531  -0.381  53.237  1.00  0.00     0.042 A 
HETATM   23 CL1  UNL     1      30.221  -0.528  53.715  1.00  0.00    -0.084 Cl
HETATM   24  C13 UNL     1      27.989   0.881  53.211  1.00  0.00     0.053 A 
ENDBRANCH  15  17
ENDBRANCH   8  15
BRANCH  10  25
HETATM   25  N4  UNL     1      23.715   5.211  53.284  1.00  0.00     0.087 N 
HETATM   26  H14 UNL     1      24.444   5.857  52.859  1.00  0.00     0.313 HD
HETATM   27  H15 UNL     1      22.768   5.646  53.249  1.00  0.00     0.313 HD
ENDBRANCH  10  25
TORSDOF 3
ENDMDL
MODEL 4
REMARK VINA RESULT:      -8.2      3.015      5.664
REMARK  3 active torsions:
REMARK  status: ('A' for Active; 'I' for Inactive)
REMARK    1  A    between atoms: C6_8  and  N3_9 
REMARK    2  A    between atoms: N3_9  and  C7_10 
REMARK    3  A    between atoms: C15_19  and  N4_20 
ROOT
HETATM    1  C1  UNL     1      27.147   4.394  49.108  1.00  0.00     0.046 C 
HETATM    2  C2  UNL     1      26.275   3.456  49.907  1.00  0.00    -0.058 C 
HETATM    3  C3  UNL     1      26.717   2.793  50.952  1.00  0.00     0.037 C 
HETATM    4  C4  UNL     1      25.849   1.889  51.725  1.00  0.00     0.070 A 
HETATM    5  N1  UNL     1      26.471   0.710  51.697  1.00  0.00    -0.241 NA
HETATM    6  C5  UNL     1      26.011  -0.391  52.311  1.00  0.00     0.235 A 
HETATM    7  N2  UNL     1      24.858  -0.270  52.983  1.00  0.00    -0.224 NA
HETATM    8  C6  UNL     1      24.256   0.930  52.991  1.00  0.00     0.140 A 
HETATM    9  C14 UNL     1      24.665   2.129  52.379  1.00  0.00     0.049 A 
HETATM   10  C15 UNL     1      23.720   3.223  52.605  1.00  0.00     0.259 C 
HETATM   11  C16 UNL     1      23.328   3.941  51.309  1.00  0.00     0.066 C 
HETATM   12  C17 UNL     1      24.398   4.840  50.821  1.00  0.00     0.170 C 
HETATM   13  O1  UNL     1      24.431   4.732  49.391  1.00  0.00    -0.387 OA
HETATM   14  C18 UNL     1      24.917   3.389  49.220  1.00  0.00     0.201 C 
ENDROOT
BRANCH   8  15
HETATM   15  N3  UNL     1      23.036   0.846  53.776  1.00  0.00    -0.340 N 
HETATM   16  H6  UNL     1      22.697   0.928  54.776  1.00  0.00     0.167 HD
BRANCH  15  17
HETATM   17  C7  UNL     1      21.774   0.562  53.187  1.00  0.00     0.035 A 
HETATM   18  C8  UNL     1      20.864  -0.133  53.992  1.00  0.00     0.030 A 
HETATM   19  C9  UNL     1      19.610  -0.499  53.538  1.00  0.00     0.011 A 
HETATM   20  C10 UNL     1      19.197  -0.192  52.249  1.00  0.00    -0.040 A 
HETATM   21  C11 UNL     1      17.876  -0.543  51.674  1.00  0.00     0.050 C 
HETATM   22  C12 UNL     1      20.071   0.492  51.432  1.00  0.00     0.042 A 
HETATM   23 CL1  UNL     1      19.695   0.955  49.773  1.00  0.00    -0.084 Cl
HETATM   24  C13 UNL     1      21.308   0.839  51.920  1.00  0.00     0.053 A 
ENDBRANCH  15  17
ENDBRANCH   8  15
BRANCH  10  25
HETATM   25  N4  UNL     1      24.269   4.253  53.483  1.00  0.00     0.087 N 
HETATM   26  H14 UNL     1      24.900   4.902  52.926  1.00  0.00     0.313 HD
HETATM   27  H15 UNL     1      23.515   4.789  53.963  1.00  0.00     0.313 HD
ENDBRANCH  10  25
TORSDOF 3
ENDMDL
MODEL 5
REMARK VINA RESULT:      -8.1      3.558      6.647
REMARK  3 active torsions:
REMARK  status: ('A' for Active; 'I' for Inactive)
REMARK    1  A    between atoms: C6_8  and  N3_9 
REMARK    2  A    between atoms: N3_9  and  C7_10 
REMARK    3  A    between atoms: C15_19  and  N4_20 
ROOT
HETATM    1  C1  UNL     1      23.094  -1.100  55.073  1.00  0.00     0.046 C 
HETATM    2  C2  UNL     1      23.657  -0.389  53.866  1.00  0.00    -0.058 C 
HETATM    3  C3  UNL     1      23.164   0.745  53.418  1.00  0.00     0.037 C 
HETATM    4  C4  UNL     1      23.731   1.429  52.244  1.00  0.00     0.070 A 
HETATM    5  N1  UNL     1      22.711   1.558  51.396  1.00  0.00    -0.241 NA
HETATM    6  C5  UNL     1      22.807   2.156  50.198  1.00  0.00     0.235 A 
HETATM    7  N2  UNL     1      24.008   2.643  49.862  1.00  0.00    -0.224 NA
HETATM    8  C6  UNL     1      25.016   2.498  50.737  1.00  0.00     0.140 A 
HETATM    9  C14 UNL     1      25.005   1.888  52.005  1.00  0.00     0.049 A 
HETATM   10  C15 UNL     1      26.318   1.913  52.649  1.00  0.00     0.259 C 
HETATM   11  C16 UNL     1      26.746   0.536  53.170  1.00  0.00     0.066 C 
HETATM   12  C17 UNL     1      26.037   0.163  54.415  1.00  0.00     0.170 C 
HETATM   13  O1  UNL     1      25.742  -1.239  54.337  1.00  0.00    -0.387 OA
HETATM   14  C18 UNL     1      24.761  -1.263  53.286  1.00  0.00     0.201 C 
ENDROOT
BRANCH   8  15
HETATM   15  N3  UNL     1      26.219   3.097  50.185  1.00  0.00    -0.340 N 
HETATM   16  H6  UNL     1      27.226   2.858  49.962  1.00  0.00     0.167 HD
BRANCH  15  17
HETATM   17  C7  UNL     1      26.260   4.449  49.748  1.00  0.00     0.035 A 
HETATM   18  C8  UNL     1      27.276   4.769  48.840  1.00  0.00     0.030 A 
HETATM   19  C9  UNL     1      27.451   6.053  48.354  1.00  0.00     0.011 A 
HETATM   20  C10 UNL     1      26.617   7.088  48.751  1.00  0.00    -0.040 A 
HETATM   21  C11 UNL     1      26.726   8.492  48.286  1.00  0.00     0.050 C 
HETATM   22  C12 UNL     1      25.606   6.804  49.644  1.00  0.00     0.042 A 
HETATM   23 CL1  UNL     1      24.467   8.009  50.242  1.00  0.00    -0.084 Cl
HETATM   24  C13 UNL     1      25.465   5.517  50.104  1.00  0.00     0.053 A 
ENDBRANCH  15  17
ENDBRANCH   8  15
BRANCH  10  25
HETATM   25  N4  UNL     1      26.347   2.805  53.805  1.00  0.00     0.087 N 
HETATM   26  H14 UNL     1      26.081   2.267  54.682  1.00  0.00     0.313 HD
HETATM   27  H15 UNL     1      27.280   3.258  53.916  1.00  0.00     0.313 HD
ENDBRANCH  10  25
TORSDOF 3
ENDMDL
MODEL 6
REMARK VINA RESULT:      -8.1      2.041      3.391
REMARK  3 active torsions:
REMARK  status: ('A' for Active; 'I' for Inactive)
REMARK    1  A    between atoms: C6_8  and  N3_9 
REMARK    2  A    between atoms: N3_9  and  C7_10 
REMARK    3  A    between atoms: C15_19  and  N4_20 
ROOT
HETATM    1  C1  UNL     1      24.103   8.795  47.202  1.00  0.00     0.046 C 
HETATM    2  C2  UNL     1      24.412   7.482  47.879  1.00  0.00    -0.058 C 
HETATM    3  C3  UNL     1      25.573   7.232  48.444  1.00  0.00     0.037 C 
HETATM    4  C4  UNL     1      25.854   5.949  49.109  1.00  0.00     0.070 A 
HETATM    5  N1  UNL     1      26.937   5.475  48.494  1.00  0.00    -0.241 NA
HETATM    6  C5  UNL     1      27.536   4.319  48.821  1.00  0.00     0.235 A 
HETATM    7  N2  UNL     1      26.992   3.621  49.827  1.00  0.00    -0.224 NA
HETATM    8  C6  UNL     1      25.900   4.125  50.425  1.00  0.00     0.140 A 
HETATM    9  C14 UNL     1      25.212   5.320  50.149  1.00  0.00     0.049 A 
HETATM   10  C15 UNL     1      24.049   5.509  51.016  1.00  0.00     0.259 C 
HETATM   11  C16 UNL     1      22.776   5.845  50.230  1.00  0.00     0.066 C 
HETATM   12  C17 UNL     1      22.766   7.246  49.752  1.00  0.00     0.170 C 
HETATM   13  O1  UNL     1      22.193   7.246  48.437  1.00  0.00    -0.387 OA
HETATM   14  C18 UNL     1      23.211   6.566  47.684  1.00  0.00     0.201 C 
ENDROOT
BRANCH   8  15
HETATM   15  N3  UNL     1      25.479   3.225  51.485  1.00  0.00    -0.340 N 
HETATM   16  H6  UNL     1      24.639   3.011  52.094  1.00  0.00     0.167 HD
BRANCH  15  17
HETATM   17  C7  UNL     1      26.342   2.233  52.026  1.00  0.00     0.035 A 
HETATM   18  C8  UNL     1      26.055   0.910  51.671  1.00  0.00     0.030 A 
HETATM   19  C9  UNL     1      26.796  -0.156  52.147  1.00  0.00     0.011 A 
HETATM   20  C10 UNL     1      27.866   0.042  53.008  1.00  0.00    -0.040 A 
HETATM   21  C11 UNL     1      28.716  -1.035  53.569  1.00  0.00     0.050 C 
HETATM   22  C12 UNL     1      28.173   1.334  53.376  1.00  0.00     0.042 A 
HETATM   23 CL1  UNL     1      29.500   1.750  54.460  1.00  0.00    -0.084 Cl
HETATM   24  C13 UNL     1      27.414   2.367  52.882  1.00  0.00     0.053 A 
ENDBRANCH  15  17
ENDBRANCH   8  15
BRANCH  10  25
HETATM   25  N4  UNL     1      24.238   6.607  51.960  1.00  0.00     0.087 N 
HETATM   26  H14 UNL     1      25.223   6.995  51.869  1.00  0.00     0.313 HD
HETATM   27  H15 UNL     1      23.529   7.359  51.819  1.00  0.00     0.313 HD
ENDBRANCH  10  25
TORSDOF 3
ENDMDL
MODEL 7
REMARK VINA RESULT:      -7.9      3.798      6.509
REMARK  3 active torsions:
REMARK  status: ('A' for Active; 'I' for Inactive)
REMARK    1  A    between atoms: C6_8  and  N3_9 
REMARK    2  A    between atoms: N3_9  and  C7_10 
REMARK    3  A    between atoms: C15_19  and  N4_20 
ROOT
HETATM    1  C1  UNL     1      21.628  -2.044  54.434  1.00  0.00     0.046 C 
HETATM    2  C2  UNL     1      22.146  -0.706  53.967  1.00  0.00    -0.058 C 
HETATM    3  C3  UNL     1      23.308  -0.565  53.369  1.00  0.00     0.037 C 
HETATM    4  C4  UNL     1      23.794   0.748  52.912  1.00  0.00     0.070 A 
HETATM    5  N1  UNL     1      24.970   0.908  53.518  1.00  0.00    -0.241 NA
HETATM    6  C5  UNL     1      25.757   1.982  53.348  1.00  0.00     0.235 A 
HETATM    7  N2  UNL     1      25.311   2.932  52.516  1.00  0.00    -0.224 NA
HETATM    8  C6  UNL     1      24.122   2.741  51.922  1.00  0.00     0.140 A 
HETATM    9  C14 UNL     1      23.237   1.654  52.042  1.00  0.00     0.049 A 
HETATM   10  C15 UNL     1      22.024   1.829  51.243  1.00  0.00     0.259 C 
HETATM   11  C16 UNL     1      20.745   1.585  52.050  1.00  0.00     0.066 C 
HETATM   12  C17 UNL     1      20.496   0.145  52.285  1.00  0.00     0.170 C 
HETATM   13  O1  UNL     1      19.986   0.009  53.619  1.00  0.00    -0.387 OA
HETATM   14  C18 UNL     1      21.143   0.356  54.401  1.00  0.00     0.201 C 
ENDROOT
BRANCH   8  15
HETATM   15  N3  UNL     1      23.830   3.876  51.062  1.00  0.00    -0.340 N 
HETATM   16  H6  UNL     1      23.014   4.460  50.723  1.00  0.00     0.167 HD
BRANCH  15  17
HETATM   17  C7  UNL     1      24.846   4.564  50.344  1.00  0.00     0.035 A 
HETATM   18  C8  UNL     1      25.763   3.760  49.657  1.00  0.00     0.030 A 
HETATM   19  C9  UNL     1      26.818   4.295  48.940  1.00  0.00     0.011 A 
HETATM   20  C10 UNL     1      27.015   5.667  48.873  1.00  0.00    -0.040 A 
HETATM   21  C11 UNL     1      28.114   6.331  48.132  1.00  0.00     0.050 C 
HETATM   22  C12 UNL     1      26.129   6.485  49.539  1.00  0.00     0.042 A 
HETATM   23 CL1  UNL     1      26.244   8.244  49.548  1.00  0.00    -0.084 Cl
HETATM   24  C13 UNL     1      25.093   5.916  50.239  1.00  0.00     0.053 A 
ENDBRANCH  15  17
ENDBRANCH   8  15
BRANCH  10  25
HETATM   25  N4  UNL     1      21.969   0.902  50.116  1.00  0.00     0.087 N 
HETATM   26  H14 UNL     1      22.943   0.765  49.713  1.00  0.00     0.313 HD
HETATM   27  H15 UNL     1      21.550  -0.012  50.393  1.00  0.00     0.313 HD
ENDBRANCH  10  25
TORSDOF 3
ENDMDL
MODEL 8
REMARK VINA RESULT:      -7.8      2.429      3.300
REMARK  3 active torsions:
REMARK  status: ('A' for Active; 'I' for Inactive)
REMARK    1  A    between atoms: C6_8  and  N3_9 
REMARK    2  A    between atoms: N3_9  and  C7_10 
REMARK    3  A    between atoms: C15_19  and  N4_20 
ROOT
HETATM    1  C1  UNL     1      18.627   1.214  49.986  1.00  0.00     0.046 C 
HETATM    2  C2  UNL     1      19.805   1.274  50.928  1.00  0.00    -0.058 C 
HETATM    3  C3  UNL     1      20.687   0.304  51.022  1.00  0.00     0.037 C 
HETATM    4  C4  UNL     1      21.836   0.384  51.940  1.00  0.00     0.070 A 
HETATM    5  N1  UNL     1      21.731  -0.696  52.715  1.00  0.00    -0.241 NA
HETATM    6  C5  UNL     1      22.608  -1.008  53.682  1.00  0.00     0.235 A 
HETATM    7  N2  UNL     1      23.638  -0.170  53.857  1.00  0.00    -0.224 NA
HETATM    8  C6  UNL     1      23.715   0.909  53.061  1.00  0.00     0.140 A 
HETATM    9  C14 UNL     1      22.846   1.311  52.030  1.00  0.00     0.049 A 
HETATM   10  C15 UNL     1      23.264   2.566  51.404  1.00  0.00     0.259 C 
HETATM   11  C16 UNL     1      22.126   3.588  51.312  1.00  0.00     0.066 C 
HETATM   12  C17 UNL     1      21.165   3.260  50.235  1.00  0.00     0.170 C 
HETATM   13  O1  UNL     1      19.851   3.565  50.724  1.00  0.00    -0.387 OA
HETATM   14  C18 UNL     1      19.686   2.559  51.738  1.00  0.00     0.201 C 
ENDROOT
BRANCH   8  15
HETATM   15  N3  UNL     1      24.899   1.675  53.409  1.00  0.00    -0.340 N 
HETATM   16  H6  UNL     1      25.189   2.655  53.688  1.00  0.00     0.167 HD
BRANCH  15  17
HETATM   17  C7  UNL     1      26.197   1.096  53.432  1.00  0.00     0.035 A 
HETATM   18  C8  UNL     1      27.254   1.970  53.712  1.00  0.00     0.030 A 
HETATM   19  C9  UNL     1      28.571   1.547  53.739  1.00  0.00     0.011 A 
HETATM   20  C10 UNL     1      28.903   0.224  53.486  1.00  0.00    -0.040 A 
HETATM   21  C11 UNL     1      30.282  -0.322  53.492  1.00  0.00     0.050 C 
HETATM   22  C12 UNL     1      27.884  -0.661  53.208  1.00  0.00     0.042 A 
HETATM   23 CL1  UNL     1      28.144  -2.371  52.866  1.00  0.00    -0.084 Cl
HETATM   24  C13 UNL     1      26.589  -0.203  53.190  1.00  0.00     0.053 A 
ENDBRANCH  15  17
ENDBRANCH   8  15
BRANCH  10  25
HETATM   25  N4  UNL     1      23.736   2.368  50.036  1.00  0.00     0.087 N 
HETATM   26  H14 UNL     1      23.176   1.594  49.570  1.00  0.00     0.313 HD
HETATM   27  H15 UNL     1      23.684   3.250  49.482  1.00  0.00     0.313 HD
ENDBRANCH  10  25
TORSDOF 3
ENDMDL
MODEL 9
REMARK VINA RESULT:      -7.7      3.827      7.351
REMARK  3 active torsions:
REMARK  status: ('A' for Active; 'I' for Inactive)
REMARK    1  A    between atoms: C6_8  and  N3_9 
REMARK    2  A    between atoms: N3_9  and  C7_10 
REMARK    3  A    between atoms: C15_19  and  N4_20 
ROOT
HETATM    1  C1  UNL     1      28.348   0.233  55.001  1.00  0.00     0.046 C 
HETATM    2  C2  UNL     1      27.112   0.180  54.136  1.00  0.00    -0.058 C 
HETATM    3  C3  UNL     1      25.897   0.279  54.629  1.00  0.00     0.037 C 
HETATM    4  C4  UNL     1      24.703   0.234  53.769  1.00  0.00     0.070 A 
HETATM    5  N1  UNL     1      23.970  -0.769  54.252  1.00  0.00    -0.241 NA
HETATM    6  C5  UNL     1      22.777  -1.129  53.754  1.00  0.00     0.235 A 
HETATM    7  N2  UNL     1      22.320  -0.422  52.711  1.00  0.00    -0.224 NA
HETATM    8  C6  UNL     1      23.082   0.582  52.248  1.00  0.00     0.140 A 
HETATM    9  C14 UNL     1      24.336   1.025  52.706  1.00  0.00     0.049 A 
HETATM   10  C15 UNL     1      24.855   2.144  51.920  1.00  0.00     0.259 C 
HETATM   11  C16 UNL     1      26.297   1.917  51.452  1.00  0.00     0.066 C 
HETATM   12  C17 UNL     1      27.277   2.108  52.546  1.00  0.00     0.170 C 
HETATM   13  O1  UNL     1      28.292   1.106  52.392  1.00  0.00    -0.387 OA
HETATM   14  C18 UNL     1      27.559  -0.091  52.705  1.00  0.00     0.201 C 
ENDROOT
BRANCH   8  15
HETATM   15  N3  UNL     1      22.405   1.218  51.131  1.00  0.00    -0.340 N 
HETATM   16  H6  UNL     1      22.595   1.570  50.150  1.00  0.00     0.167 HD
BRANCH  15  17
HETATM   17  C7  UNL     1      21.028   1.570  51.179  1.00  0.00     0.035 A 
HETATM   18  C8  UNL     1      20.727   2.780  51.814  1.00  0.00     0.030 A 
HETATM   19  C9  UNL     1      19.428   3.232  51.958  1.00  0.00     0.011 A 
HETATM   20  C10 UNL     1      18.356   2.496  51.473  1.00  0.00    -0.040 A 
HETATM   21  C11 UNL     1      16.933   2.897  51.580  1.00  0.00     0.050 C 
HETATM   22  C12 UNL     1      18.621   1.299  50.842  1.00  0.00     0.042 A 
HETATM   23 CL1  UNL     1      17.370   0.252  50.174  1.00  0.00    -0.084 Cl
HETATM   24  C13 UNL     1      19.925   0.885  50.719  1.00  0.00     0.053 A 
ENDBRANCH  15  17
ENDBRANCH   8  15
BRANCH  10  25
HETATM   25  N4  UNL     1      24.872   3.390  52.680  1.00  0.00     0.087 N 
HETATM   26  H14 UNL     1      24.285   4.123  52.184  1.00  0.00     0.313 HD
HETATM   27  H15 UNL     1      24.539   3.246  53.658  1.00  0.00     0.313 HD
ENDBRANCH  10  25
TORSDOF 3
ENDMDL
