MODEL 1
REMARK VINA RESULT:      -6.9      0.000      0.000
REMARK  10 active torsions:
REMARK  status: ('A' for Active; 'I' for Inactive)
REMARK    1  A    between atoms: C2_2  and  N1_3 
REMARK    2  A    between atoms: N1_3  and  C3_4 
REMARK    3  A    between atoms: N1_3  and  C15_22 
REMARK    4  A    between atoms: C3_4  and  C4_5 
REMARK    5  A    between atoms: C5_6  and  N2_7 
REMARK    6  A    between atoms: C7_9  and  N3_10 
REMARK    7  A    between atoms: N3_10  and  C8_11 
REMARK    8  A    between atoms: C15_22  and  C16_23 
REMARK    9  A    between atoms: C16_23  and  C17_24 
REMARK   10  A    between atoms: C17_24  and  N6_25 
ROOT
HETATM    1  N2  UNL     1      26.661   4.546  49.375  1.00  0.00    -0.273 N 
HETATM    2  C6  UNL     1      26.501   3.193  49.855  1.00  0.00     0.228 A 
HETATM    3  C7  UNL     1      25.359   3.104  50.810  1.00  0.00     0.125 A 
HETATM    4  N4  UNL     1      24.598   4.113  51.091  1.00  0.00    -0.225 NA
HETATM    5  C14 UNL     1      24.790   5.397  50.528  1.00  0.00     0.257 A 
HETATM    6  N5  UNL     1      25.770   5.601  49.706  1.00  0.00    -0.166 NA
ENDROOT
BRANCH   1   7
HETATM    7  C5  UNL     1      27.726   5.057  48.578  1.00  0.00     0.110 C 
HETATM    8  C4  UNL     1      27.568   6.371  48.304  1.00  0.00     0.012 C 
BRANCH   8   9
HETATM    9  C3  UNL     1      28.242   7.455  47.578  1.00  0.00     0.151 C 
BRANCH   9  10
HETATM   10  N1  UNL     1      29.370   8.033  48.276  1.00  0.00    -0.387 N 
BRANCH  10  11
HETATM   11  C2  UNL     1      29.272   9.079  49.218  1.00  0.00     0.075 C 
HETATM   12  C1  UNL     1      28.116   9.435  49.690  1.00  0.00     0.029 C 
ENDBRANCH  10  11
BRANCH  10  13
HETATM   13  C15 UNL     1      30.612   7.366  47.928  1.00  0.00     0.124 C 
BRANCH  13  14
HETATM   14  C16 UNL     1      31.526   7.379  49.136  1.00  0.00     0.049 C 
BRANCH  14  15
HETATM   15  C17 UNL     1      31.941   5.950  49.435  1.00  0.00     0.268 C 
BRANCH  15  16
HETATM   16  N6  UNL     1      31.596   5.645  50.797  1.00  0.00     0.078 N 
HETATM   17  H21 UNL     1      30.597   5.370  50.859  1.00  0.00     0.312 HD
HETATM   18  H22 UNL     1      32.170   4.785  51.048  1.00  0.00     0.312 HD
ENDBRANCH  15  16
ENDBRANCH  14  15
ENDBRANCH  13  14
ENDBRANCH  10  13
ENDBRANCH   9  10
ENDBRANCH   8   9
ENDBRANCH   1   7
BRANCH   3  19
HETATM   19  N3  UNL     1      25.144   1.823  51.447  1.00  0.00    -0.343 N 
HETATM   20  H10 UNL     1      24.235   1.325  51.354  1.00  0.00     0.167 HD
BRANCH  19  21
HETATM   21  C8  UNL     1      26.291   1.340  52.182  1.00  0.00     0.036 A 
HETATM   22  C9  UNL     1      26.331  -0.059  52.084  1.00  0.00     0.053 A 
HETATM   23  C10 UNL     1      27.333  -0.796  52.705  1.00  0.00     0.037 A 
HETATM   24 CL1  UNL     1      27.489  -2.531  52.653  1.00  0.00    -0.084 Cl
HETATM   25  C11 UNL     1      28.304  -0.114  53.432  1.00  0.00     0.048 A 
HETATM   26  C12 UNL     1      28.245   1.256  53.514  1.00  0.00     0.037 A 
HETATM   27 CL2  UNL     1      29.424   2.202  54.406  1.00  0.00    -0.084 Cl
HETATM   28  C13 UNL     1      27.260   1.993  52.905  1.00  0.00     0.053 A 
ENDBRANCH  19  21
ENDBRANCH   3  19
TORSDOF 10
ENDMDL
MODEL 2
REMARK VINA RESULT:      -6.7      4.529      7.687
REMARK  10 active torsions:
REMARK  status: ('A' for Active; 'I' for Inactive)
REMARK    1  A    between atoms: C2_2  and  N1_3 
REMARK    2  A    between atoms: N1_3  and  C3_4 
REMARK    3  A    between atoms: N1_3  and  C15_22 
REMARK    4  A    between atoms: C3_4  and  C4_5 
REMARK    5  A    between atoms: C5_6  and  N2_7 
REMARK    6  A    between atoms: C7_9  and  N3_10 
REMARK    7  A    between atoms: N3_10  and  C8_11 
REMARK    8  A    between atoms: C15_22  and  C16_23 
REMARK    9  A    between atoms: C16_23  and  C17_24 
REMARK   10  A    between atoms: C17_24  and  N6_25 
ROOT
HETATM    1  N2  UNL     1      22.246   1.043  52.543  1.00  0.00    -0.273 N 
HETATM    2  C6  UNL     1      22.770   1.736  51.388  1.00  0.00     0.228 A 
HETATM    3  C7  UNL     1      21.687   2.475  50.679  1.00  0.00     0.125 A 
HETATM    4  N4  UNL     1      20.467   2.519  51.111  1.00  0.00    -0.225 NA
HETATM    5  C14 UNL     1      20.049   1.857  52.291  1.00  0.00     0.257 A 
HETATM    6  N5  UNL     1      20.898   1.159  52.975  1.00  0.00    -0.166 NA
ENDROOT
BRANCH   1   7
HETATM    7  C5  UNL     1      22.933   0.114  53.376  1.00  0.00     0.110 C 
HETATM    8  C4  UNL     1      24.273   0.283  53.327  1.00  0.00     0.012 C 
BRANCH   8   9
HETATM    9  C3  UNL     1      25.499  -0.295  53.893  1.00  0.00     0.151 C 
BRANCH   9  10
HETATM   10  N1  UNL     1      26.723   0.214  53.315  1.00  0.00    -0.387 N 
BRANCH  10  11
HETATM   11  C2  UNL     1      27.092   1.577  53.303  1.00  0.00     0.075 C 
HETATM   12  C1  UNL     1      27.056   2.258  52.198  1.00  0.00     0.029 C 
ENDBRANCH  10  11
BRANCH  10  13
HETATM   13  C15 UNL     1      27.554  -0.858  52.797  1.00  0.00     0.124 C 
BRANCH  13  14
HETATM   14  C16 UNL     1      28.829  -0.923  53.615  1.00  0.00     0.049 C 
BRANCH  14  15
HETATM   15  C17 UNL     1      29.496  -2.260  53.351  1.00  0.00     0.268 C 
BRANCH  15  16
HETATM   16  N6  UNL     1      28.478  -3.246  53.114  1.00  0.00     0.078 N 
HETATM   17  H21 UNL     1      28.894  -4.197  53.115  1.00  0.00     0.312 HD
HETATM   18  H22 UNL     1      27.829  -3.190  53.955  1.00  0.00     0.312 HD
ENDBRANCH  15  16
ENDBRANCH  14  15
ENDBRANCH  13  14
ENDBRANCH  10  13
ENDBRANCH   9  10
ENDBRANCH   8   9
ENDBRANCH   1   7
BRANCH   3  19
HETATM   19  N3  UNL     1      22.052   3.134  49.444  1.00  0.00    -0.343 N 
HETATM   20  H10 UNL     1      21.476   3.017  48.585  1.00  0.00     0.167 HD
BRANCH  19  21
HETATM   21  C8  UNL     1      23.246   3.941  49.547  1.00  0.00     0.036 A 
HETATM   22  C9  UNL     1      22.891   5.211  50.025  1.00  0.00     0.053 A 
HETATM   23  C10 UNL     1      23.848   6.201  50.218  1.00  0.00     0.037 A 
HETATM   24 CL1  UNL     1      23.530   7.810  50.807  1.00  0.00    -0.084 Cl
HETATM   25  C11 UNL     1      25.177   5.905  49.925  1.00  0.00     0.048 A 
HETATM   26  C12 UNL     1      25.501   4.656  49.457  1.00  0.00     0.037 A 
HETATM   27 CL2  UNL     1      27.146   4.190  49.061  1.00  0.00    -0.084 Cl
HETATM   28  C13 UNL     1      24.564   3.670  49.264  1.00  0.00     0.053 A 
ENDBRANCH  19  21
ENDBRANCH   3  19
TORSDOF 10
ENDMDL
MODEL 3
REMARK VINA RESULT:      -6.7      5.282      7.926
REMARK  10 active torsions:
REMARK  status: ('A' for Active; 'I' for Inactive)
REMARK    1  A    between atoms: C2_2  and  N1_3 
REMARK    2  A    between atoms: N1_3  and  C3_4 
REMARK    3  A    between atoms: N1_3  and  C15_22 
REMARK    4  A    between atoms: C3_4  and  C4_5 
REMARK    5  A    between atoms: C5_6  and  N2_7 
REMARK    6  A    between atoms: C7_9  and  N3_10 
REMARK    7  A    between atoms: N3_10  and  C8_11 
REMARK    8  A    between atoms: C15_22  and  C16_23 
REMARK    9  A    between atoms: C16_23  and  C17_24 
REMARK   10  A    between atoms: C17_24  and  N6_25 
ROOT
HETATM    1  N2  UNL     1      23.409  -0.740  54.156  1.00  0.00    -0.273 N 
HETATM    2  C6  UNL     1      22.836  -0.076  53.008  1.00  0.00     0.228 A 
HETATM    3  C7  UNL     1      21.372  -0.346  52.918  1.00  0.00     0.125 A 
HETATM    4  N4  UNL     1      20.729  -1.032  53.808  1.00  0.00    -0.225 NA
HETATM    5  C14 UNL     1      21.361  -1.601  54.940  1.00  0.00     0.257 A 
HETATM    6  N5  UNL     1      22.637  -1.456  55.108  1.00  0.00    -0.166 NA
ENDROOT
BRANCH   1   7
HETATM    7  C5  UNL     1      24.791  -0.848  54.488  1.00  0.00     0.110 C 
HETATM    8  C4  UNL     1      25.584  -0.727  53.401  1.00  0.00     0.012 C 
BRANCH   8   9
HETATM    9  C3  UNL     1      27.008  -0.743  53.043  1.00  0.00     0.151 C 
BRANCH   9  10
HETATM   10  N1  UNL     1      27.786   0.327  53.627  1.00  0.00    -0.387 N 
BRANCH  10  11
HETATM   11  C2  UNL     1      29.063   0.160  54.206  1.00  0.00     0.075 C 
HETATM   12  C1  UNL     1      29.915  -0.673  53.690  1.00  0.00     0.029 C 
ENDBRANCH  10  11
BRANCH  10  13
HETATM   13  C15 UNL     1      27.114   1.608  53.497  1.00  0.00     0.124 C 
BRANCH  13  14
HETATM   14  C16 UNL     1      27.062   1.982  52.029  1.00  0.00     0.049 C 
BRANCH  14  15
HETATM   15  C17 UNL     1      25.722   2.637  51.751  1.00  0.00     0.268 C 
BRANCH  15  16
HETATM   16  N6  UNL     1      25.072   2.908  53.004  1.00  0.00     0.078 N 
HETATM   17  H21 UNL     1      24.800   3.908  53.056  1.00  0.00     0.312 HD
HETATM   18  H22 UNL     1      24.171   2.343  52.983  1.00  0.00     0.312 HD
ENDBRANCH  15  16
ENDBRANCH  14  15
ENDBRANCH  13  14
ENDBRANCH  10  13
ENDBRANCH   9  10
ENDBRANCH   8   9
ENDBRANCH   1   7
BRANCH   3  19
HETATM   19  N3  UNL     1      20.685   0.177  51.758  1.00  0.00    -0.343 N 
HETATM   20  H10 UNL     1      19.853  -0.309  51.365  1.00  0.00     0.167 HD
BRANCH  19  21
HETATM   21  C8  UNL     1      21.260   1.399  51.243  1.00  0.00     0.036 A 
HETATM   22  C9  UNL     1      21.593   1.205  49.894  1.00  0.00     0.053 A 
HETATM   23  C10 UNL     1      22.173   2.221  49.143  1.00  0.00     0.037 A 
HETATM   24 CL1  UNL     1      22.627   2.102  47.464  1.00  0.00    -0.084 Cl
HETATM   25  C11 UNL     1      22.419   3.445  49.760  1.00  0.00     0.048 A 
HETATM   26  C12 UNL     1      22.085   3.611  51.082  1.00  0.00     0.037 A 
HETATM   27 CL2  UNL     1      22.356   5.116  51.945  1.00  0.00    -0.084 Cl
HETATM   28  C13 UNL     1      21.511   2.615  51.833  1.00  0.00     0.053 A 
ENDBRANCH  19  21
ENDBRANCH   3  19
TORSDOF 10
ENDMDL
MODEL 4
REMARK VINA RESULT:      -6.7      4.786      7.517
REMARK  10 active torsions:
REMARK  status: ('A' for Active; 'I' for Inactive)
REMARK    1  A    between atoms: C2_2  and  N1_3 
REMARK    2  A    between atoms: N1_3  and  C3_4 
REMARK    3  A    between atoms: N1_3  and  C15_22 
REMARK    4  A    between atoms: C3_4  and  C4_5 
REMARK    5  A    between atoms: C5_6  and  N2_7 
REMARK    6  A    between atoms: C7_9  and  N3_10 
REMARK    7  A    between atoms: N3_10  and  C8_11 
REMARK    8  A    between atoms: C15_22  and  C16_23 
REMARK    9  A    between atoms: C16_23  and  C17_24 
REMARK   10  A    between atoms: C17_24  and  N6_25 
ROOT
HETATM    1  N2  UNL     1      25.086   2.737  50.894  1.00  0.00    -0.273 N 
HETATM    2  C6  UNL     1      24.028   2.610  51.870  1.00  0.00     0.228 A 
HETATM    3  C7  UNL     1      22.734   3.095  51.311  1.00  0.00     0.125 A 
HETATM    4  N4  UNL     1      22.605   3.503  50.089  1.00  0.00    -0.225 NA
HETATM    5  C14 UNL     1      23.686   3.540  49.176  1.00  0.00     0.257 A 
HETATM    6  N5  UNL     1      24.867   3.169  49.559  1.00  0.00    -0.166 NA
ENDROOT
BRANCH   1   7
HETATM    7  C5  UNL     1      26.480   2.527  51.101  1.00  0.00     0.110 C 
HETATM    8  C4  UNL     1      26.777   2.347  52.407  1.00  0.00     0.012 C 
BRANCH   8   9
HETATM    9  C3  UNL     1      27.938   2.103  53.271  1.00  0.00     0.151 C 
BRANCH   9  10
HETATM   10  N1  UNL     1      28.315   0.712  53.391  1.00  0.00    -0.387 N 
BRANCH  10  11
HETATM   11  C2  UNL     1      29.645   0.254  53.502  1.00  0.00     0.075 C 
HETATM   12  C1  UNL     1      29.892  -0.996  53.752  1.00  0.00     0.029 C 
ENDBRANCH  10  11
BRANCH  10  13
HETATM   13  C15 UNL     1      27.150  -0.154  53.440  1.00  0.00     0.124 C 
BRANCH  13  14
HETATM   14  C16 UNL     1      26.467   0.025  54.781  1.00  0.00     0.049 C 
BRANCH  14  15
HETATM   15  C17 UNL     1      25.130  -0.692  54.734  1.00  0.00     0.268 C 
BRANCH  15  16
HETATM   16  N6  UNL     1      24.978  -1.464  55.937  1.00  0.00     0.078 N 
HETATM   17  H21 UNL     1      25.907  -1.649  56.362  1.00  0.00     0.312 HD
HETATM   18  H22 UNL     1      24.449  -0.834  56.612  1.00  0.00     0.312 HD
ENDBRANCH  15  16
ENDBRANCH  14  15
ENDBRANCH  13  14
ENDBRANCH  10  13
ENDBRANCH   9  10
ENDBRANCH   8   9
ENDBRANCH   1   7
BRANCH   3  19
HETATM   19  N3  UNL     1      21.605   3.118  52.215  1.00  0.00    -0.343 N 
HETATM   20  H10 UNL     1      21.233   4.018  52.583  1.00  0.00     0.167 HD
BRANCH  19  21
HETATM   21  C8  UNL     1      21.078   1.808  52.521  1.00  0.00     0.036 A 
HETATM   22  C9  UNL     1      19.954   1.575  51.713  1.00  0.00     0.053 A 
HETATM   23  C10 UNL     1      19.239   0.387  51.799  1.00  0.00     0.037 A 
HETATM   24 CL1  UNL     1      17.834  -0.017  50.850  1.00  0.00    -0.084 Cl
HETATM   25  C11 UNL     1      19.662  -0.577  52.711  1.00  0.00     0.048 A 
HETATM   26  C12 UNL     1      20.764  -0.327  53.492  1.00  0.00     0.037 A 
HETATM   27 CL2  UNL     1      21.372  -1.480  54.667  1.00  0.00    -0.084 Cl
HETATM   28  C13 UNL     1      21.478   0.843  53.414  1.00  0.00     0.053 A 
ENDBRANCH  19  21
ENDBRANCH   3  19
TORSDOF 10
ENDMDL
MODEL 5
REMARK VINA RESULT:      -6.6      5.073      8.432
REMARK  10 active torsions:
REMARK  status: ('A' for Active; 'I' for Inactive)
REMARK    1  A    between atoms: C2_2  and  N1_3 
REMARK    2  A    between atoms: N1_3  and  C3_4 
REMARK    3  A    between atoms: N1_3  and  C15_22 
REMARK    4  A    between atoms: C3_4  and  C4_5 
REMARK    5  A    between atoms: C5_6  and  N2_7 
REMARK    6  A    between atoms: C7_9  and  N3_10 
REMARK    7  A    between atoms: N3_10  and  C8_11 
REMARK    8  A    between atoms: C15_22  and  C16_23 
REMARK    9  A    between atoms: C16_23  and  C17_24 
REMARK   10  A    between atoms: C17_24  and  N6_25 
ROOT
HETATM    1  N2  UNL     1      23.525  -0.804  54.476  1.00  0.00    -0.273 N 
HETATM    2  C6  UNL     1      23.341  -0.122  53.216  1.00  0.00     0.228 A 
HETATM    3  C7  UNL     1      21.941  -0.284  52.727  1.00  0.00     0.125 A 
HETATM    4  N4  UNL     1      21.028  -0.903  53.406  1.00  0.00    -0.225 NA
HETATM    5  C14 UNL     1      21.280  -1.495  54.667  1.00  0.00     0.257 A 
HETATM    6  N5  UNL     1      22.469  -1.441  55.178  1.00  0.00    -0.166 NA
ENDROOT
BRANCH   1   7
HETATM    7  C5  UNL     1      24.750  -1.007  55.175  1.00  0.00     0.110 C 
HETATM    8  C4  UNL     1      25.734  -0.202  54.717  1.00  0.00     0.012 C 
BRANCH   8   9
HETATM    9  C3  UNL     1      27.152   0.089  54.964  1.00  0.00     0.151 C 
BRANCH   9  10
HETATM   10  N1  UNL     1      27.774   0.930  53.966  1.00  0.00    -0.387 N 
BRANCH  10  11
HETATM   11  C2  UNL     1      29.149   0.903  53.645  1.00  0.00     0.075 C 
HETATM   12  C1  UNL     1      29.774  -0.227  53.524  1.00  0.00     0.029 C 
ENDBRANCH  10  11
BRANCH  10  13
HETATM   13  C15 UNL     1      26.799   1.769  53.292  1.00  0.00     0.124 C 
BRANCH  13  14
HETATM   14  C16 UNL     1      26.863   1.491  51.804  1.00  0.00     0.049 C 
BRANCH  14  15
HETATM   15  C17 UNL     1      25.940   2.464  51.096  1.00  0.00     0.268 C 
BRANCH  15  16
HETATM   16  N6  UNL     1      26.691   3.637  50.739  1.00  0.00     0.078 N 
HETATM   17  H21 UNL     1      26.908   3.626  49.724  1.00  0.00     0.312 HD
HETATM   18  H22 UNL     1      26.033   4.456  50.907  1.00  0.00     0.312 HD
ENDBRANCH  15  16
ENDBRANCH  14  15
ENDBRANCH  13  14
ENDBRANCH  10  13
ENDBRANCH   9  10
ENDBRANCH   8   9
ENDBRANCH   1   7
BRANCH   3  19
HETATM   19  N3  UNL     1      21.641   0.265  51.423  1.00  0.00    -0.343 N 
HETATM   20  H10 UNL     1      22.049  -0.150  50.561  1.00  0.00     0.167 HD
BRANCH  19  21
HETATM   21  C8  UNL     1      20.742   1.396  51.462  1.00  0.00     0.036 A 
HETATM   22  C9  UNL     1      21.503   2.574  51.505  1.00  0.00     0.053 A 
HETATM   23  C10 UNL     1      20.895   3.823  51.553  1.00  0.00     0.037 A 
HETATM   24 CL1  UNL     1      21.731   5.351  51.606  1.00  0.00    -0.084 Cl
HETATM   25  C11 UNL     1      19.504   3.883  51.558  1.00  0.00     0.048 A 
HETATM   26  C12 UNL     1      18.779   2.718  51.516  1.00  0.00     0.037 A 
HETATM   27 CL2  UNL     1      17.024   2.693  51.519  1.00  0.00    -0.084 Cl
HETATM   28  C13 UNL     1      19.370   1.479  51.468  1.00  0.00     0.053 A 
ENDBRANCH  19  21
ENDBRANCH   3  19
TORSDOF 10
ENDMDL
MODEL 6
REMARK VINA RESULT:      -6.5      5.207      7.676
REMARK  10 active torsions:
REMARK  status: ('A' for Active; 'I' for Inactive)
REMARK    1  A    between atoms: C2_2  and  N1_3 
REMARK    2  A    between atoms: N1_3  and  C3_4 
REMARK    3  A    between atoms: N1_3  and  C15_22 
REMARK    4  A    between atoms: C3_4  and  C4_5 
REMARK    5  A    between atoms: C5_6  and  N2_7 
REMARK    6  A    between atoms: C7_9  and  N3_10 
REMARK    7  A    between atoms: N3_10  and  C8_11 
REMARK    8  A    between atoms: C15_22  and  C16_23 
REMARK    9  A    between atoms: C16_23  and  C17_24 
REMARK   10  A    between atoms: C17_24  and  N6_25 
ROOT
HETATM    1  N2  UNL     1      23.785   3.166  51.397  1.00  0.00    -0.273 N 
HETATM    2  C6  UNL     1      22.741   2.323  50.859  1.00  0.00     0.228 A 
HETATM    3  C7  UNL     1      21.396   2.859  51.213  1.00  0.00     0.125 A 
HETATM    4  N4  UNL     1      21.230   3.970  51.859  1.00  0.00    -0.225 NA
HETATM    5  C14 UNL     1      22.312   4.768  52.300  1.00  0.00     0.257 A 
HETATM    6  N5  UNL     1      23.529   4.387  52.074  1.00  0.00    -0.166 NA
ENDROOT
BRANCH   1   7
HETATM    7  C5  UNL     1      25.186   2.904  51.404  1.00  0.00     0.110 C 
HETATM    8  C4  UNL     1      25.462   1.629  51.757  1.00  0.00     0.012 C 
BRANCH   8   9
HETATM    9  C3  UNL     1      26.616   0.745  51.961  1.00  0.00     0.151 C 
BRANCH   9  10
HETATM   10  N1  UNL     1      27.032   0.610  53.339  1.00  0.00    -0.387 N 
BRANCH  10  11
HETATM   11  C2  UNL     1      26.194   0.163  54.384  1.00  0.00     0.075 C 
HETATM   12  C1  UNL     1      25.285  -0.736  54.159  1.00  0.00     0.029 C 
ENDBRANCH  10  11
BRANCH  10  13
HETATM   13  C15 UNL     1      28.437   0.938  53.508  1.00  0.00     0.124 C 
BRANCH  13  14
HETATM   14  C16 UNL     1      29.095  -0.150  54.332  1.00  0.00     0.049 C 
BRANCH  14  15
HETATM   15  C17 UNL     1      29.700  -1.167  53.383  1.00  0.00     0.268 C 
BRANCH  15  16
HETATM   16  N6  UNL     1      28.875  -2.344  53.380  1.00  0.00     0.078 N 
HETATM   17  H21 UNL     1      29.245  -3.040  54.056  1.00  0.00     0.312 HD
HETATM   18  H22 UNL     1      27.929  -2.028  53.747  1.00  0.00     0.312 HD
ENDBRANCH  15  16
ENDBRANCH  14  15
ENDBRANCH  13  14
ENDBRANCH  10  13
ENDBRANCH   9  10
ENDBRANCH   8   9
ENDBRANCH   1   7
BRANCH   3  19
HETATM   19  N3  UNL     1      20.255   2.060  50.823  1.00  0.00    -0.343 N 
HETATM   20  H10 UNL     1      19.730   2.269  49.949  1.00  0.00     0.167 HD
BRANCH  19  21
HETATM   21  C8  UNL     1      19.956   0.986  51.742  1.00  0.00     0.036 A 
HETATM   22  C9  UNL     1      18.646   0.544  51.506  1.00  0.00     0.053 A 
HETATM   23  C10 UNL     1      18.088  -0.486  52.255  1.00  0.00     0.037 A 
HETATM   24 CL1  UNL     1      16.477  -1.122  52.054  1.00  0.00    -0.084 Cl
HETATM   25  C11 UNL     1      18.860  -1.076  53.252  1.00  0.00     0.048 A 
HETATM   26  C12 UNL     1      20.140  -0.626  53.465  1.00  0.00     0.037 A 
HETATM   27 CL2  UNL     1      21.190  -1.307  54.697  1.00  0.00    -0.084 Cl
HETATM   28  C13 UNL     1      20.702   0.390  52.731  1.00  0.00     0.053 A 
ENDBRANCH  19  21
ENDBRANCH   3  19
TORSDOF 10
ENDMDL
MODEL 7
REMARK VINA RESULT:      -6.5      2.207      3.295
REMARK  10 active torsions:
REMARK  status: ('A' for Active; 'I' for Inactive)
REMARK    1  A    between atoms: C2_2  and  N1_3 
REMARK    2  A    between atoms: N1_3  and  C3_4 
REMARK    3  A    between atoms: N1_3  and  C15_22 
REMARK    4  A    between atoms: C3_4  and  C4_5 
REMARK    5  A    between atoms: C5_6  and  N2_7 
REMARK    6  A    between atoms: C7_9  and  N3_10 
REMARK    7  A    between atoms: N3_10  and  C8_11 
REMARK    8  A    between atoms: C15_22  and  C16_23 
REMARK    9  A    between atoms: C16_23  and  C17_24 
REMARK   10  A    between atoms: C17_24  and  N6_25 
ROOT
HETATM    1  N2  UNL     1      27.468   6.453  48.695  1.00  0.00    -0.273 N 
HETATM    2  C6  UNL     1      27.243   5.028  48.617  1.00  0.00     0.228 A 
HETATM    3  C7  UNL     1      26.091   4.628  49.475  1.00  0.00     0.125 A 
HETATM    4  N4  UNL     1      25.374   5.484  50.132  1.00  0.00    -0.225 NA
HETATM    5  C14 UNL     1      25.629   6.876  50.106  1.00  0.00     0.257 A 
HETATM    6  N5  UNL     1      26.623   7.337  49.416  1.00  0.00    -0.166 NA
ENDROOT
BRANCH   1   7
HETATM    7  C5  UNL     1      28.561   7.184  48.146  1.00  0.00     0.110 C 
HETATM    8  C4  UNL     1      29.719   6.491  48.214  1.00  0.00     0.012 C 
BRANCH   8   9
HETATM    9  C3  UNL     1      31.138   6.638  47.862  1.00  0.00     0.151 C 
BRANCH   9  10
HETATM   10  N1  UNL     1      31.923   5.435  48.027  1.00  0.00    -0.387 N 
BRANCH  10  11
HETATM   11  C2  UNL     1      31.696   4.232  47.323  1.00  0.00     0.075 C 
HETATM   12  C1  UNL     1      32.645   3.356  47.194  1.00  0.00     0.029 C 
ENDBRANCH  10  11
BRANCH  10  13
HETATM   13  C15 UNL     1      33.013   5.634  48.966  1.00  0.00     0.124 C 
BRANCH  13  14
HETATM   14  C16 UNL     1      33.986   6.635  48.377  1.00  0.00     0.049 C 
BRANCH  14  15
HETATM   15  C17 UNL     1      35.393   6.215  48.760  1.00  0.00     0.268 C 
BRANCH  15  16
HETATM   16  N6  UNL     1      35.333   4.923  49.387  1.00  0.00     0.078 N 
HETATM   17  H21 UNL     1      35.350   4.175  48.667  1.00  0.00     0.312 HD
HETATM   18  H22 UNL     1      36.236   4.837  49.944  1.00  0.00     0.312 HD
ENDBRANCH  15  16
ENDBRANCH  14  15
ENDBRANCH  13  14
ENDBRANCH  10  13
ENDBRANCH   9  10
ENDBRANCH   8   9
ENDBRANCH   1   7
BRANCH   3  19
HETATM   19  N3  UNL     1      25.813   3.212  49.571  1.00  0.00    -0.343 N 
HETATM   20  H10 UNL     1      25.493   2.672  48.740  1.00  0.00     0.167 HD
BRANCH  19  21
HETATM   21  C8  UNL     1      26.033   2.664  50.890  1.00  0.00     0.036 A 
HETATM   22  C9  UNL     1      24.833   2.101  51.348  1.00  0.00     0.053 A 
HETATM   23  C10 UNL     1      24.751   1.502  52.600  1.00  0.00     0.037 A 
HETATM   24 CL1  UNL     1      23.321   0.769  53.276  1.00  0.00    -0.084 Cl
HETATM   25  C11 UNL     1      25.892   1.471  53.397  1.00  0.00     0.048 A 
HETATM   26  C12 UNL     1      27.056   2.029  52.927  1.00  0.00     0.037 A 
HETATM   27 CL2  UNL     1      28.544   2.038  53.858  1.00  0.00    -0.084 Cl
HETATM   28  C13 UNL     1      27.148   2.622  51.692  1.00  0.00     0.053 A 
ENDBRANCH  19  21
ENDBRANCH   3  19
TORSDOF 10
ENDMDL
MODEL 8
REMARK VINA RESULT:      -6.5      0.956      2.152
REMARK  10 active torsions:
REMARK  status: ('A' for Active; 'I' for Inactive)
REMARK    1  A    between atoms: C2_2  and  N1_3 
REMARK    2  A    between atoms: N1_3  and  C3_4 
REMARK    3  A    between atoms: N1_3  and  C15_22 
REMARK    4  A    between atoms: C3_4  and  C4_5 
REMARK    5  A    between atoms: C5_6  and  N2_7 
REMARK    6  A    between atoms: C7_9  and  N3_10 
REMARK    7  A    between atoms: N3_10  and  C8_11 
REMARK    8  A    between atoms: C15_22  and  C16_23 
REMARK    9  A    between atoms: C16_23  and  C17_24 
REMARK   10  A    between atoms: C17_24  and  N6_25 
ROOT
HETATM    1  N2  UNL     1      26.694   4.516  49.337  1.00  0.00    -0.273 N 
HETATM    2  C6  UNL     1      26.493   3.194  49.885  1.00  0.00     0.228 A 
HETATM    3  C7  UNL     1      25.335   3.183  50.824  1.00  0.00     0.125 A 
HETATM    4  N4  UNL     1      24.595   4.224  51.038  1.00  0.00    -0.225 NA
HETATM    5  C14 UNL     1      24.827   5.471  50.411  1.00  0.00     0.257 A 
HETATM    6  N5  UNL     1      25.824   5.607  49.595  1.00  0.00    -0.166 NA
ENDROOT
BRANCH   1   7
HETATM    7  C5  UNL     1      27.783   4.958  48.532  1.00  0.00     0.110 C 
HETATM    8  C4  UNL     1      27.694   6.274  48.236  1.00  0.00     0.012 C 
BRANCH   8   9
HETATM    9  C3  UNL     1      28.423   7.309  47.493  1.00  0.00     0.151 C 
BRANCH   9  10
HETATM   10  N1  UNL     1      29.585   7.831  48.177  1.00  0.00    -0.387 N 
BRANCH  10  11
HETATM   11  C2  UNL     1      30.917   7.488  47.859  1.00  0.00     0.075 C 
HETATM   12  C1  UNL     1      31.318   6.256  47.942  1.00  0.00     0.029 C 
ENDBRANCH  10  11
BRANCH  10  13
HETATM   13  C15 UNL     1      29.216   8.797  49.197  1.00  0.00     0.124 C 
BRANCH  13  14
HETATM   14  C16 UNL     1      28.601  10.006  48.522  1.00  0.00     0.049 C 
BRANCH  14  15
HETATM   15  C17 UNL     1      29.594  11.151  48.598  1.00  0.00     0.268 C 
BRANCH  15  16
HETATM   16  N6  UNL     1      30.479  10.921  49.708  1.00  0.00     0.078 N 
HETATM   17  H21 UNL     1      29.930  10.709  50.564  1.00  0.00     0.312 HD
HETATM   18  H22 UNL     1      31.020  10.039  49.460  1.00  0.00     0.312 HD
ENDBRANCH  15  16
ENDBRANCH  14  15
ENDBRANCH  13  14
ENDBRANCH  10  13
ENDBRANCH   9  10
ENDBRANCH   8   9
ENDBRANCH   1   7
BRANCH   3  19
HETATM   19  N3  UNL     1      25.079   1.944  51.525  1.00  0.00    -0.343 N 
HETATM   20  H10 UNL     1      24.140   1.496  51.494  1.00  0.00     0.167 HD
BRANCH  19  21
HETATM   21  C8  UNL     1      26.230   1.425  52.228  1.00  0.00     0.036 A 
HETATM   22  C9  UNL     1      26.246   0.029  52.095  1.00  0.00     0.053 A 
HETATM   23  C10 UNL     1      27.247  -0.739  52.680  1.00  0.00     0.037 A 
HETATM   24 CL1  UNL     1      27.375  -2.474  52.583  1.00  0.00    -0.084 Cl
HETATM   25  C11 UNL     1      28.241  -0.089  53.407  1.00  0.00     0.048 A 
HETATM   26  C12 UNL     1      28.204   1.278  53.524  1.00  0.00     0.037 A 
HETATM   27 CL2  UNL     1      29.412   2.184  54.419  1.00  0.00    -0.084 Cl
HETATM   28  C13 UNL     1      27.221   2.046  52.950  1.00  0.00     0.053 A 
ENDBRANCH  19  21
ENDBRANCH   3  19
TORSDOF 10
ENDMDL
MODEL 9
REMARK VINA RESULT:      -6.5      2.467      3.397
REMARK  10 active torsions:
REMARK  status: ('A' for Active; 'I' for Inactive)
REMARK    1  A    between atoms: C2_2  and  N1_3 
REMARK    2  A    between atoms: N1_3  and  C3_4 
REMARK    3  A    between atoms: N1_3  and  C15_22 
REMARK    4  A    between atoms: C3_4  and  C4_5 
REMARK    5  A    between atoms: C5_6  and  N2_7 
REMARK    6  A    between atoms: C7_9  and  N3_10 
REMARK    7  A    between atoms: N3_10  and  C8_11 
REMARK    8  A    between atoms: C15_22  and  C16_23 
REMARK    9  A    between atoms: C16_23  and  C17_24 
REMARK   10  A    between atoms: C17_24  and  N6_25 
ROOT
HETATM    1  N2  UNL     1      24.084   5.761  50.753  1.00  0.00    -0.273 N 
HETATM    2  C6  UNL     1      23.533   4.778  51.657  1.00  0.00     0.228 A 
HETATM    3  C7  UNL     1      23.025   3.595  50.905  1.00  0.00     0.125 A 
HETATM    4  N4  UNL     1      23.143   3.475  49.621  1.00  0.00    -0.225 NA
HETATM    5  C14 UNL     1      23.753   4.464  48.813  1.00  0.00     0.257 A 
HETATM    6  N5  UNL     1      24.206   5.550  49.354  1.00  0.00    -0.166 NA
ENDROOT
BRANCH   1   7
HETATM    7  C5  UNL     1      24.520   7.078  51.074  1.00  0.00     0.110 C 
HETATM    8  C4  UNL     1      25.502   7.503  50.248  1.00  0.00     0.012 C 
BRANCH   8   9
HETATM    9  C3  UNL     1      26.356   8.677  50.029  1.00  0.00     0.151 C 
BRANCH   9  10
HETATM   10  N1  UNL     1      27.529   8.424  49.221  1.00  0.00    -0.387 N 
BRANCH  10  11
HETATM   11  C2  UNL     1      28.752   9.115  49.354  1.00  0.00     0.075 C 
HETATM   12  C1  UNL     1      28.992  10.172  48.640  1.00  0.00     0.029 C 
ENDBRANCH  10  11
BRANCH  10  13
HETATM   13  C15 UNL     1      27.310   7.330  48.291  1.00  0.00     0.124 C 
BRANCH  13  14
HETATM   14  C16 UNL     1      28.495   6.388  48.362  1.00  0.00     0.049 C 
BRANCH  14  15
HETATM   15  C17 UNL     1      27.971   4.964  48.370  1.00  0.00     0.268 C 
BRANCH  15  16
HETATM   16  N6  UNL     1      27.274   4.735  49.606  1.00  0.00     0.078 N 
HETATM   17  H21 UNL     1      26.434   4.149  49.439  1.00  0.00     0.312 HD
HETATM   18  H22 UNL     1      27.939   4.160  50.205  1.00  0.00     0.312 HD
ENDBRANCH  15  16
ENDBRANCH  14  15
ENDBRANCH  13  14
ENDBRANCH  10  13
ENDBRANCH   9  10
ENDBRANCH   8   9
ENDBRANCH   1   7
BRANCH   3  19
HETATM   19  N3  UNL     1      22.355   2.572  51.679  1.00  0.00    -0.343 N 
HETATM   20  H10 UNL     1      21.324   2.597  51.817  1.00  0.00     0.167 HD
BRANCH  19  21
HETATM   21  C8  UNL     1      23.246   1.561  52.200  1.00  0.00     0.036 A 
HETATM   22  C9  UNL     1      22.551   0.797  53.150  1.00  0.00     0.053 A 
HETATM   23  C10 UNL     1      23.168  -0.252  53.822  1.00  0.00     0.037 A 
HETATM   24 CL1  UNL     1      22.411  -1.270  55.017  1.00  0.00    -0.084 Cl
HETATM   25  C11 UNL     1      24.501  -0.532  53.532  1.00  0.00     0.048 A 
HETATM   26  C12 UNL     1      25.161   0.229  52.599  1.00  0.00     0.037 A 
HETATM   27 CL2  UNL     1      26.840  -0.048  52.167  1.00  0.00    -0.084 Cl
HETATM   28  C13 UNL     1      24.560   1.267  51.929  1.00  0.00     0.053 A 
ENDBRANCH  19  21
ENDBRANCH   3  19
TORSDOF 10
ENDMDL
