MODEL 1
REMARK VINA RESULT:      -8.7      0.000      0.000
REMARK  5 active torsions:
REMARK  status: ('A' for Active; 'I' for Inactive)
REMARK    1  A    between atoms: C4_6  and  N3_7 
REMARK    2  A    between atoms: N3_7  and  C5_8 
REMARK    3  A    between atoms: C13_17  and  N4_18 
REMARK       I    between atoms: N4_18  and  C14_19 
REMARK    4  A    between atoms: C14_19  and  C15_21 
REMARK    5  A    between atoms: C15_21  and  N5_22 
ROOT
HETATM    1  N1  UNL     1      27.464  -2.287  53.012  1.00  0.00    -0.191 NA
HETATM    2  C1  UNL     1      26.955  -1.255  52.833  1.00  0.00     0.102 C 
HETATM    3  C2  UNL     1      26.332   0.036  52.626  1.00  0.00     0.073 A 
HETATM    4  C3  UNL     1      27.077   1.122  52.169  1.00  0.00     0.142 A 
HETATM    5  N2  UNL     1      26.531   2.355  51.958  1.00  0.00    -0.241 NA
HETATM    6  C4  UNL     1      25.204   2.552  52.201  1.00  0.00     0.139 A 
HETATM    7  C11 UNL     1      24.403   1.503  52.661  1.00  0.00     0.024 A 
HETATM    8  C12 UNL     1      23.056   1.595  52.944  1.00  0.00     0.045 A 
HETATM    9  C13 UNL     1      22.331   0.509  53.405  1.00  0.00     0.035 A 
HETATM   10  C20 UNL     1      22.943  -0.713  53.598  1.00  0.00     0.030 A 
HETATM   11  C21 UNL     1      24.289  -0.830  53.321  1.00  0.00     0.016 A 
HETATM   12  C22 UNL     1      24.996   0.271  52.860  1.00  0.00     0.000 A 
ENDROOT
BRANCH   6  13
HETATM   13  N3  UNL     1      24.464   3.756  52.054  1.00  0.00    -0.340 N 
HETATM   14  H2  UNL     1      24.187   4.188  52.947  1.00  0.00     0.167 HD
BRANCH  13  15
HETATM   15  C5  UNL     1      24.169   4.257  50.753  1.00  0.00     0.035 A 
HETATM   16  C6  UNL     1      24.763   5.467  50.441  1.00  0.00     0.029 A 
HETATM   17  C7  UNL     1      24.576   6.086  49.214  1.00  0.00     0.004 A 
HETATM   18  C8  UNL     1      23.750   5.415  48.308  1.00  0.00     0.019 A 
HETATM   19  C9  UNL     1      23.155   4.208  48.615  1.00  0.00     0.013 A 
HETATM   20 BR1  UNL     1      22.017   3.269  47.383  1.00  0.00    -0.051 Br
HETATM   21  C10 UNL     1      23.355   3.596  49.861  1.00  0.00     0.048 A 
ENDBRANCH  13  15
ENDBRANCH   6  13
BRANCH   9  22
HETATM   22  N4  UNL     1      20.953   0.885  53.619  1.00  0.00    -0.326 N 
HETATM   23  C14 UNL     1      20.277   0.636  52.368  1.00  0.00     0.250 C 
HETATM   24  O1  UNL     1      21.048   0.176  51.452  1.00  0.00    -0.271 OA
HETATM   25  H8  UNL     1      20.296   1.255  54.323  1.00  0.00     0.169 HD
BRANCH  23  26
HETATM   26  C15 UNL     1      18.907   0.789  51.904  1.00  0.00     0.375 C 
BRANCH  26  27
HETATM   27  N5  UNL     1      18.257  -0.457  51.538  1.00  0.00     0.101 N 
HETATM   28  C16 UNL     1      17.197  -0.183  50.568  1.00  0.00     0.299 C 
HETATM   29  C17 UNL     1      16.106   0.674  51.096  1.00  0.00     0.198 C 
HETATM   30  O2  UNL     1      15.791   0.367  52.401  1.00  0.00    -0.388 OA
HETATM   31  C18 UNL     1      16.153  -0.934  52.675  1.00  0.00     0.198 C 
HETATM   32  C19 UNL     1      17.662  -1.095  52.713  1.00  0.00     0.299 C 
ENDBRANCH  26  27
ENDBRANCH  23  26
ENDBRANCH   9  22
TORSDOF 5
ENDMDL
MODEL 2
REMARK VINA RESULT:      -8.4      1.754      2.315
REMARK  5 active torsions:
REMARK  status: ('A' for Active; 'I' for Inactive)
REMARK    1  A    between atoms: C4_6  and  N3_7 
REMARK    2  A    between atoms: N3_7  and  C5_8 
REMARK    3  A    between atoms: C13_17  and  N4_18 
REMARK       I    between atoms: N4_18  and  C14_19 
REMARK    4  A    between atoms: C14_19  and  C15_21 
REMARK    5  A    between atoms: C15_21  and  N5_22 
ROOT
HETATM    1  N1  UNL     1      27.344  -2.219  53.010  1.00  0.00    -0.191 NA
HETATM    2  C1  UNL     1      26.846  -1.182  52.829  1.00  0.00     0.102 C 
HETATM    3  C2  UNL     1      26.237   0.115  52.620  1.00  0.00     0.073 A 
HETATM    4  C3  UNL     1      26.998   1.198  52.185  1.00  0.00     0.142 A 
HETATM    5  N2  UNL     1      26.466   2.437  51.973  1.00  0.00    -0.241 NA
HETATM    6  C4  UNL     1      25.137   2.643  52.191  1.00  0.00     0.139 A 
HETATM    7  C11 UNL     1      24.319   1.597  52.628  1.00  0.00     0.024 A 
HETATM    8  C12 UNL     1      22.967   1.697  52.886  1.00  0.00     0.045 A 
HETATM    9  C13 UNL     1      22.225   0.614  53.324  1.00  0.00     0.035 A 
HETATM   10  C20 UNL     1      22.824  -0.615  53.520  1.00  0.00     0.030 A 
HETATM   11  C21 UNL     1      24.174  -0.739  53.268  1.00  0.00     0.016 A 
HETATM   12  C22 UNL     1      24.898   0.359  52.830  1.00  0.00     0.000 A 
ENDROOT
BRANCH   6  13
HETATM   13  N3  UNL     1      24.409   3.854  52.039  1.00  0.00    -0.340 N 
HETATM   14  H2  UNL     1      24.034   4.230  52.921  1.00  0.00     0.167 HD
BRANCH  13  15
HETATM   15  C5  UNL     1      24.254   4.434  50.747  1.00  0.00     0.035 A 
HETATM   16  C6  UNL     1      23.126   4.031  50.054  1.00  0.00     0.029 A 
HETATM   17  C7  UNL     1      22.832   4.504  48.785  1.00  0.00     0.004 A 
HETATM   18  C8  UNL     1      23.743   5.414  48.242  1.00  0.00     0.019 A 
HETATM   19  C9  UNL     1      24.870   5.819  48.929  1.00  0.00     0.013 A 
HETATM   20 BR1  UNL     1      26.134   7.071  48.202  1.00  0.00    -0.051 Br
HETATM   21  C10 UNL     1      25.152   5.330  50.213  1.00  0.00     0.048 A 
ENDBRANCH  13  15
ENDBRANCH   6  13
BRANCH   9  22
HETATM   22  N4  UNL     1      20.846   0.999  53.515  1.00  0.00    -0.326 N 
HETATM   23  C14 UNL     1      20.186   0.732  52.259  1.00  0.00     0.250 C 
HETATM   24  O1  UNL     1      20.966   0.255  51.360  1.00  0.00    -0.271 OA
HETATM   25  H8  UNL     1      20.182   1.383  54.203  1.00  0.00     0.169 HD
BRANCH  23  26
HETATM   26  C15 UNL     1      18.822   0.883  51.775  1.00  0.00     0.375 C 
BRANCH  26  27
HETATM   27  N5  UNL     1      18.363   2.258  51.700  1.00  0.00     0.101 N 
HETATM   28  C16 UNL     1      17.218   2.338  50.793  1.00  0.00     0.299 C 
HETATM   29  C17 UNL     1      17.536   1.967  49.390  1.00  0.00     0.198 C 
HETATM   30  O2  UNL     1      18.769   2.439  48.997  1.00  0.00    -0.388 OA
HETATM   31  C18 UNL     1      19.117   3.531  49.761  1.00  0.00     0.198 C 
HETATM   32  C19 UNL     1      19.423   3.132  51.194  1.00  0.00     0.299 C 
ENDBRANCH  26  27
ENDBRANCH  23  26
ENDBRANCH   9  22
TORSDOF 5
ENDMDL
MODEL 3
REMARK VINA RESULT:      -8.4      2.693      6.915
REMARK  5 active torsions:
REMARK  status: ('A' for Active; 'I' for Inactive)
REMARK    1  A    between atoms: C4_6  and  N3_7 
REMARK    2  A    between atoms: N3_7  and  C5_8 
REMARK    3  A    between atoms: C13_17  and  N4_18 
REMARK       I    between atoms: N4_18  and  C14_19 
REMARK    4  A    between atoms: C14_19  and  C15_21 
REMARK    5  A    between atoms: C15_21  and  N5_22 
ROOT
HETATM    1  N1  UNL     1      17.303  -2.405  53.232  1.00  0.00    -0.191 NA
HETATM    2  C1  UNL     1      18.074  -1.543  53.096  1.00  0.00     0.102 C 
HETATM    3  C2  UNL     1      19.035  -0.475  52.908  1.00  0.00     0.073 A 
HETATM    4  C3  UNL     1      18.712   0.648  52.149  1.00  0.00     0.142 A 
HETATM    5  N2  UNL     1      19.585   1.678  51.948  1.00  0.00    -0.241 NA
HETATM    6  C4  UNL     1      20.828   1.622  52.503  1.00  0.00     0.139 A 
HETATM    7  C11 UNL     1      21.212   0.523  53.275  1.00  0.00     0.024 A 
HETATM    8  C12 UNL     1      22.445   0.362  53.875  1.00  0.00     0.045 A 
HETATM    9  C13 UNL     1      22.753  -0.763  54.620  1.00  0.00     0.035 A 
HETATM   10  C20 UNL     1      21.825  -1.771  54.787  1.00  0.00     0.030 A 
HETATM   11  C21 UNL     1      20.586  -1.633  54.197  1.00  0.00     0.016 A 
HETATM   12  C22 UNL     1      20.298  -0.498  53.455  1.00  0.00     0.000 A 
ENDROOT
BRANCH   6  13
HETATM   13  N3  UNL     1      21.870   2.583  52.397  1.00  0.00    -0.340 N 
HETATM   14  H2  UNL     1      22.048   3.105  53.267  1.00  0.00     0.167 HD
BRANCH  13  15
HETATM   15  C5  UNL     1      22.559   2.753  51.161  1.00  0.00     0.035 A 
HETATM   16  C6  UNL     1      21.787   2.564  50.028  1.00  0.00     0.029 A 
HETATM   17  C7  UNL     1      22.309   2.694  48.750  1.00  0.00     0.004 A 
HETATM   18  C8  UNL     1      23.664   3.027  48.671  1.00  0.00     0.019 A 
HETATM   19  C9  UNL     1      24.438   3.215  49.798  1.00  0.00     0.013 A 
HETATM   20 BR1  UNL     1      26.303   3.675  49.712  1.00  0.00    -0.051 Br
HETATM   21  C10 UNL     1      23.894   3.080  51.084  1.00  0.00     0.048 A 
ENDBRANCH  13  15
ENDBRANCH   6  13
BRANCH   9  22
HETATM   22  N4  UNL     1      24.102  -0.670  55.128  1.00  0.00    -0.326 N 
HETATM   23  C14 UNL     1      24.960  -0.663  53.967  1.00  0.00     0.250 C 
HETATM   24  O1  UNL     1      24.322  -0.742  52.857  1.00  0.00    -0.271 OA
HETATM   25  H8  UNL     1      24.657  -0.608  55.994  1.00  0.00     0.169 HD
BRANCH  23  26
HETATM   26  C15 UNL     1      26.399  -0.586  53.766  1.00  0.00     0.375 C 
BRANCH  26  27
HETATM   27  N5  UNL     1      27.081   0.319  54.671  1.00  0.00     0.101 N 
HETATM   28  C16 UNL     1      26.881   1.697  54.221  1.00  0.00     0.299 C 
HETATM   29  C17 UNL     1      27.465   1.984  52.886  1.00  0.00     0.198 C 
HETATM   30  O2  UNL     1      28.682   1.365  52.709  1.00  0.00    -0.388 OA
HETATM   31  C18 UNL     1      29.264   1.120  53.934  1.00  0.00     0.198 C 
HETATM   32  C19 UNL     1      28.518   0.040  54.698  1.00  0.00     0.299 C 
ENDBRANCH  26  27
ENDBRANCH  23  26
ENDBRANCH   9  22
TORSDOF 5
ENDMDL
MODEL 4
REMARK VINA RESULT:      -8.4      2.779      3.243
REMARK  5 active torsions:
REMARK  status: ('A' for Active; 'I' for Inactive)
REMARK    1  A    between atoms: C4_6  and  N3_7 
REMARK    2  A    between atoms: N3_7  and  C5_8 
REMARK    3  A    between atoms: C13_17  and  N4_18 
REMARK       I    between atoms: N4_18  and  C14_19 
REMARK    4  A    between atoms: C14_19  and  C15_21 
REMARK    5  A    between atoms: C15_21  and  N5_22 
ROOT
HETATM    1  N1  UNL     1      26.379  -0.519  55.503  1.00  0.00    -0.191 NA
HETATM    2  C1  UNL     1      26.156   0.124  54.558  1.00  0.00     0.102 C 
HETATM    3  C2  UNL     1      25.879   0.940  53.394  1.00  0.00     0.073 A 
HETATM    4  C3  UNL     1      26.858   1.776  52.861  1.00  0.00     0.142 A 
HETATM    5  N2  UNL     1      26.642   2.561  51.765  1.00  0.00    -0.241 NA
HETATM    6  C4  UNL     1      25.423   2.539  51.154  1.00  0.00     0.139 A 
HETATM    7  C11 UNL     1      24.400   1.722  51.641  1.00  0.00     0.024 A 
HETATM    8  C12 UNL     1      23.131   1.629  51.105  1.00  0.00     0.045 A 
HETATM    9  C13 UNL     1      22.167   0.800  51.650  1.00  0.00     0.035 A 
HETATM   10  C20 UNL     1      22.449   0.030  52.762  1.00  0.00     0.030 A 
HETATM   11  C21 UNL     1      23.710   0.105  53.315  1.00  0.00     0.016 A 
HETATM   12  C22 UNL     1      24.661   0.943  52.752  1.00  0.00     0.000 A 
ENDROOT
BRANCH   6  13
HETATM   13  N3  UNL     1      25.008   3.287  50.020  1.00  0.00    -0.340 N 
HETATM   14  H2  UNL     1      24.162   2.919  49.563  1.00  0.00     0.167 HD
BRANCH  13  15
HETATM   15  C5  UNL     1      25.751   4.433  49.611  1.00  0.00     0.035 A 
HETATM   16  C6  UNL     1      26.959   4.159  48.993  1.00  0.00     0.029 A 
HETATM   17  C7  UNL     1      27.797   5.164  48.537  1.00  0.00     0.004 A 
HETATM   18  C8  UNL     1      27.352   6.474  48.738  1.00  0.00     0.019 A 
HETATM   19  C9  UNL     1      26.149   6.751  49.354  1.00  0.00     0.013 A 
HETATM   20 BR1  UNL     1      25.518   8.545  49.637  1.00  0.00    -0.051 Br
HETATM   21  C10 UNL     1      25.312   5.723  49.809  1.00  0.00     0.048 A 
ENDBRANCH  13  15
ENDBRANCH   6  13
BRANCH   9  22
HETATM   22  N4  UNL     1      20.939   0.900  50.896  1.00  0.00    -0.326 N 
HETATM   23  C14 UNL     1      20.068   1.748  51.674  1.00  0.00     0.250 C 
HETATM   24  O1  UNL     1      20.594   2.157  52.770  1.00  0.00    -0.271 OA
HETATM   25  H8  UNL     1      20.474   0.594  50.029  1.00  0.00     0.169 HD
BRANCH  23  26
HETATM   26  C15 UNL     1      18.714   2.251  51.497  1.00  0.00     0.375 C 
BRANCH  26  27
HETATM   27  N5  UNL     1      18.607   3.698  51.513  1.00  0.00     0.101 N 
HETATM   28  C16 UNL     1      17.195   4.079  51.523  1.00  0.00     0.299 C 
HETATM   29  C17 UNL     1      16.450   3.656  50.310  1.00  0.00     0.198 C 
HETATM   30  O2  UNL     1      17.200   3.801  49.164  1.00  0.00    -0.388 OA
HETATM   31  C18 UNL     1      18.172   4.758  49.360  1.00  0.00     0.198 C 
HETATM   32  C19 UNL     1      19.239   4.277  50.327  1.00  0.00     0.299 C 
ENDBRANCH  26  27
ENDBRANCH  23  26
ENDBRANCH   9  22
TORSDOF 5
ENDMDL
MODEL 5
REMARK VINA RESULT:      -8.3      2.228      2.645
REMARK  5 active torsions:
REMARK  status: ('A' for Active; 'I' for Inactive)
REMARK    1  A    between atoms: C4_6  and  N3_7 
REMARK    2  A    between atoms: N3_7  and  C5_8 
REMARK    3  A    between atoms: C13_17  and  N4_18 
REMARK       I    between atoms: N4_18  and  C14_19 
REMARK    4  A    between atoms: C14_19  and  C15_21 
REMARK    5  A    between atoms: C15_21  and  N5_22 
ROOT
HETATM    1  N1  UNL     1      25.284  -1.258  55.413  1.00  0.00    -0.191 NA
HETATM    2  C1  UNL     1      25.119  -0.544  54.508  1.00  0.00     0.102 C 
HETATM    3  C2  UNL     1      24.917   0.359  53.393  1.00  0.00     0.073 A 
HETATM    4  C3  UNL     1      25.982   1.085  52.863  1.00  0.00     0.142 A 
HETATM    5  N2  UNL     1      25.839   1.945  51.813  1.00  0.00    -0.241 NA
HETATM    6  C4  UNL     1      24.610   2.115  51.248  1.00  0.00     0.139 A 
HETATM    7  C11 UNL     1      23.502   1.416  51.735  1.00  0.00     0.024 A 
HETATM    8  C12 UNL     1      22.216   1.519  51.243  1.00  0.00     0.045 A 
HETATM    9  C13 UNL     1      21.167   0.797  51.785  1.00  0.00     0.035 A 
HETATM   10  C20 UNL     1      21.379  -0.058  52.848  1.00  0.00     0.030 A 
HETATM   11  C21 UNL     1      22.655  -0.178  53.357  1.00  0.00     0.016 A 
HETATM   12  C22 UNL     1      23.691   0.555  52.798  1.00  0.00     0.000 A 
ENDROOT
BRANCH   6  13
HETATM   13  N3  UNL     1      24.263   2.968  50.165  1.00  0.00    -0.340 N 
HETATM   14  H2  UNL     1      23.663   2.522  49.457  1.00  0.00     0.167 HD
BRANCH  13  15
HETATM   15  C5  UNL     1      24.744   4.309  50.133  1.00  0.00     0.035 A 
HETATM   16  C6  UNL     1      24.075   5.193  50.961  1.00  0.00     0.029 A 
HETATM   17  C7  UNL     1      24.422   6.532  51.044  1.00  0.00     0.004 A 
HETATM   18  C8  UNL     1      25.490   6.941  50.239  1.00  0.00     0.019 A 
HETATM   19  C9  UNL     1      26.160   6.063  49.411  1.00  0.00     0.013 A 
HETATM   20 BR1  UNL     1      27.631   6.604  48.299  1.00  0.00    -0.051 Br
HETATM   21  C10 UNL     1      25.795   4.711  49.339  1.00  0.00     0.048 A 
ENDBRANCH  13  15
ENDBRANCH   6  13
BRANCH   9  22
HETATM   22  N4  UNL     1      19.941   1.096  51.083  1.00  0.00    -0.326 N 
HETATM   23  C14 UNL     1      19.356   2.220  51.774  1.00  0.00     0.250 C 
HETATM   24  O1  UNL     1      20.048   2.623  52.776  1.00  0.00    -0.271 OA
HETATM   25  H8  UNL     1      19.351   0.806  50.289  1.00  0.00     0.169 HD
BRANCH  23  26
HETATM   26  C15 UNL     1      18.147   3.009  51.592  1.00  0.00     0.375 C 
BRANCH  26  27
HETATM   27  N5  UNL     1      17.086   2.321  50.881  1.00  0.00     0.101 N 
HETATM   28  C16 UNL     1      16.067   3.289  50.476  1.00  0.00     0.299 C 
HETATM   29  C17 UNL     1      15.389   3.961  51.614  1.00  0.00     0.198 C 
HETATM   30  O2  UNL     1      15.148   3.095  52.657  1.00  0.00    -0.388 OA
HETATM   31  C18 UNL     1      15.092   1.801  52.187  1.00  0.00     0.198 C 
HETATM   32  C19 UNL     1      16.458   1.313  51.737  1.00  0.00     0.299 C 
ENDBRANCH  26  27
ENDBRANCH  23  26
ENDBRANCH   9  22
TORSDOF 5
ENDMDL
MODEL 6
REMARK VINA RESULT:      -8.2      2.900      6.018
REMARK  5 active torsions:
REMARK  status: ('A' for Active; 'I' for Inactive)
REMARK    1  A    between atoms: C4_6  and  N3_7 
REMARK    2  A    between atoms: N3_7  and  C5_8 
REMARK    3  A    between atoms: C13_17  and  N4_18 
REMARK       I    between atoms: N4_18  and  C14_19 
REMARK    4  A    between atoms: C14_19  and  C15_21 
REMARK    5  A    between atoms: C15_21  and  N5_22 
ROOT
HETATM    1  N1  UNL     1      27.885  -1.796  53.030  1.00  0.00    -0.191 NA
HETATM    2  C1  UNL     1      26.867  -1.232  53.047  1.00  0.00     0.102 C 
HETATM    3  C2  UNL     1      25.593  -0.542  53.055  1.00  0.00     0.073 A 
HETATM    4  C3  UNL     1      24.464  -1.138  53.614  1.00  0.00     0.142 A 
HETATM    5  N2  UNL     1      23.245  -0.525  53.645  1.00  0.00    -0.241 NA
HETATM    6  C4  UNL     1      23.107   0.722  53.111  1.00  0.00     0.139 A 
HETATM    7  C11 UNL     1      24.201   1.372  52.535  1.00  0.00     0.024 A 
HETATM    8  C12 UNL     1      24.170   2.627  51.961  1.00  0.00     0.045 A 
HETATM    9  C13 UNL     1      25.298   3.203  51.402  1.00  0.00     0.035 A 
HETATM   10  C20 UNL     1      26.504   2.529  51.402  1.00  0.00     0.030 A 
HETATM   11  C21 UNL     1      26.560   1.274  51.971  1.00  0.00     0.016 A 
HETATM   12  C22 UNL     1      25.417   0.716  52.525  1.00  0.00     0.000 A 
ENDROOT
BRANCH   6  13
HETATM   13  N3  UNL     1      21.926   1.509  53.039  1.00  0.00    -0.340 N 
HETATM   14  H2  UNL     1      22.005   2.424  53.505  1.00  0.00     0.167 HD
BRANCH  13  15
HETATM   15  C5  UNL     1      20.775   1.007  52.366  1.00  0.00     0.035 A 
HETATM   16  C6  UNL     1      20.636   1.419  51.052  1.00  0.00     0.029 A 
HETATM   17  C7  UNL     1      19.570   1.018  50.262  1.00  0.00     0.004 A 
HETATM   18  C8  UNL     1      18.640   0.170  50.870  1.00  0.00     0.019 A 
HETATM   19  C9  UNL     1      18.774  -0.243  52.180  1.00  0.00     0.013 A 
HETATM   20 BR1  UNL     1      17.507  -1.410  53.035  1.00  0.00    -0.051 Br
HETATM   21  C10 UNL     1      19.859   0.173  52.966  1.00  0.00     0.048 A 
ENDBRANCH  13  15
ENDBRANCH   6  13
BRANCH   9  22
HETATM   22  N4  UNL     1      24.982   4.510  50.876  1.00  0.00    -0.326 N 
HETATM   23  C14 UNL     1      24.321   4.276  49.614  1.00  0.00     0.250 C 
HETATM   24  O1  UNL     1      24.205   3.034  49.317  1.00  0.00    -0.271 OA
HETATM   25  H8  UNL     1      25.055   5.519  51.070  1.00  0.00     0.169 HD
BRANCH  23  26
HETATM   26  C15 UNL     1      23.751   5.138  48.590  1.00  0.00     0.375 C 
BRANCH  26  27
HETATM   27  N5  UNL     1      22.355   5.476  48.803  1.00  0.00     0.101 N 
HETATM   28  C16 UNL     1      22.182   6.923  48.666  1.00  0.00     0.299 C 
HETATM   29  C17 UNL     1      22.924   7.716  49.678  1.00  0.00     0.198 C 
HETATM   30  O2  UNL     1      22.892   7.128  50.923  1.00  0.00    -0.388 OA
HETATM   31  C18 UNL     1      21.788   6.309  51.024  1.00  0.00     0.198 C 
HETATM   32  C19 UNL     1      21.925   5.079  50.145  1.00  0.00     0.299 C 
ENDBRANCH  26  27
ENDBRANCH  23  26
ENDBRANCH   9  22
TORSDOF 5
ENDMDL
MODEL 7
REMARK VINA RESULT:      -8.2      3.452      7.547
REMARK  5 active torsions:
REMARK  status: ('A' for Active; 'I' for Inactive)
REMARK    1  A    between atoms: C4_6  and  N3_7 
REMARK    2  A    between atoms: N3_7  and  C5_8 
REMARK    3  A    between atoms: C13_17  and  N4_18 
REMARK       I    between atoms: N4_18  and  C14_19 
REMARK    4  A    between atoms: C14_19  and  C15_21 
REMARK    5  A    between atoms: C15_21  and  N5_22 
ROOT
HETATM    1  N1  UNL     1      19.575  -0.678  53.445  1.00  0.00    -0.191 NA
HETATM    2  C1  UNL     1      20.652  -0.315  53.190  1.00  0.00     0.102 C 
HETATM    3  C2  UNL     1      21.992   0.146  52.889  1.00  0.00     0.073 A 
HETATM    4  C3  UNL     1      23.083  -0.309  53.626  1.00  0.00     0.142 A 
HETATM    5  N2  UNL     1      24.363   0.096  53.377  1.00  0.00    -0.241 NA
HETATM    6  C4  UNL     1      24.601   0.984  52.370  1.00  0.00     0.139 A 
HETATM    7  C11 UNL     1      23.548   1.478  51.596  1.00  0.00     0.024 A 
HETATM    8  C12 UNL     1      23.677   2.383  50.561  1.00  0.00     0.045 A 
HETATM    9  C13 UNL     1      22.582   2.832  49.844  1.00  0.00     0.035 A 
HETATM   10  C20 UNL     1      21.312   2.382  50.146  1.00  0.00     0.030 A 
HETATM   11  C21 UNL     1      21.158   1.478  51.175  1.00  0.00     0.016 A 
HETATM   12  C22 UNL     1      22.269   1.041  51.881  1.00  0.00     0.000 A 
ENDROOT
BRANCH   6  13
HETATM   13  N3  UNL     1      25.852   1.529  51.971  1.00  0.00    -0.340 N 
HETATM   14  H2  UNL     1      25.785   2.211  51.203  1.00  0.00     0.167 HD
BRANCH  13  15
HETATM   15  C5  UNL     1      27.050   1.114  52.623  1.00  0.00     0.035 A 
HETATM   16  C6  UNL     1      27.759   2.125  53.246  1.00  0.00     0.029 A 
HETATM   17  C7  UNL     1      28.945   1.885  53.923  1.00  0.00     0.004 A 
HETATM   18  C8  UNL     1      29.384   0.558  53.941  1.00  0.00     0.019 A 
HETATM   19  C9  UNL     1      28.679  -0.454  53.320  1.00  0.00     0.013 A 
HETATM   20 BR1  UNL     1      29.265  -2.285  53.334  1.00  0.00    -0.051 Br
HETATM   21  C10 UNL     1      27.482  -0.193  52.639  1.00  0.00     0.048 A 
ENDBRANCH  13  15
ENDBRANCH   6  13
BRANCH   9  22
HETATM   22  N4  UNL     1      23.002   3.768  48.827  1.00  0.00    -0.326 N 
HETATM   23  C14 UNL     1      22.966   5.069  49.451  1.00  0.00     0.250 C 
HETATM   24  O1  UNL     1      22.585   5.041  50.675  1.00  0.00    -0.271 OA
HETATM   25  H8  UNL     1      23.310   3.840  47.846  1.00  0.00     0.169 HD
BRANCH  23  26
HETATM   26  C15 UNL     1      23.266   6.420  49.003  1.00  0.00     0.375 C 
BRANCH  26  27
HETATM   27  N5  UNL     1      24.505   6.542  48.258  1.00  0.00     0.101 N 
HETATM   28  C16 UNL     1      25.637   6.396  49.174  1.00  0.00     0.299 C 
HETATM   29  C17 UNL     1      25.712   7.456  50.211  1.00  0.00     0.198 C 
HETATM   30  O2  UNL     1      25.379   8.694  49.711  1.00  0.00    -0.388 OA
HETATM   31  C18 UNL     1      25.595   8.722  48.350  1.00  0.00     0.198 C 
HETATM   32  C19 UNL     1      24.594   7.852  47.611  1.00  0.00     0.299 C 
ENDBRANCH  26  27
ENDBRANCH  23  26
ENDBRANCH   9  22
TORSDOF 5
ENDMDL
MODEL 8
REMARK VINA RESULT:      -8.1      5.290      8.352
REMARK  5 active torsions:
REMARK  status: ('A' for Active; 'I' for Inactive)
REMARK    1  A    between atoms: C4_6  and  N3_7 
REMARK    2  A    between atoms: N3_7  and  C5_8 
REMARK    3  A    between atoms: C13_17  and  N4_18 
REMARK       I    between atoms: N4_18  and  C14_19 
REMARK    4  A    between atoms: C14_19  and  C15_21 
REMARK    5  A    between atoms: C15_21  and  N5_22 
ROOT
HETATM    1  N1  UNL     1      21.019   6.411  47.166  1.00  0.00    -0.191 NA
HETATM    2  C1  UNL     1      22.123   6.529  47.516  1.00  0.00     0.102 C 
HETATM    3  C2  UNL     1      23.503   6.677  47.932  1.00  0.00     0.073 A 
HETATM    4  C3  UNL     1      24.186   7.872  47.722  1.00  0.00     0.142 A 
HETATM    5  N2  UNL     1      25.485   8.057  48.100  1.00  0.00    -0.241 NA
HETATM    6  C4  UNL     1      26.158   7.039  48.708  1.00  0.00     0.139 A 
HETATM    7  C11 UNL     1      25.528   5.815  48.947  1.00  0.00     0.024 A 
HETATM    8  C12 UNL     1      26.116   4.720  49.547  1.00  0.00     0.045 A 
HETATM    9  C13 UNL     1      25.427   3.536  49.742  1.00  0.00     0.035 A 
HETATM   10  C20 UNL     1      24.112   3.413  49.337  1.00  0.00     0.030 A 
HETATM   11  C21 UNL     1      23.503   4.494  48.735  1.00  0.00     0.016 A 
HETATM   12  C22 UNL     1      24.212   5.671  48.549  1.00  0.00     0.000 A 
ENDROOT
BRANCH   6  13
HETATM   13  N3  UNL     1      27.506   7.037  49.158  1.00  0.00    -0.340 N 
HETATM   14  H2  UNL     1      27.661   6.476  50.009  1.00  0.00     0.167 HD
BRANCH  13  15
HETATM   15  C5  UNL     1      28.496   7.771  48.444  1.00  0.00     0.035 A 
HETATM   16  C6  UNL     1      28.921   7.189  47.263  1.00  0.00     0.029 A 
HETATM   17  C7  UNL     1      29.879   7.778  46.453  1.00  0.00     0.004 A 
HETATM   18  C8  UNL     1      30.394   8.998  46.900  1.00  0.00     0.019 A 
HETATM   19  C9  UNL     1      29.975   9.582  48.078  1.00  0.00     0.013 A 
HETATM   20 BR1  UNL     1      30.669  11.260  48.709  1.00  0.00    -0.051 Br
HETATM   21  C10 UNL     1      29.004   8.972  48.886  1.00  0.00     0.048 A 
ENDBRANCH  13  15
ENDBRANCH   6  13
BRANCH   9  22
HETATM   22  N4  UNL     1      26.279   2.563  50.386  1.00  0.00    -0.326 N 
HETATM   23  C14 UNL     1      25.874   2.542  51.771  1.00  0.00     0.250 C 
HETATM   24  O1  UNL     1      24.920   3.355  52.040  1.00  0.00    -0.271 OA
HETATM   25  H8  UNL     1      27.047   1.897  50.218  1.00  0.00     0.169 HD
BRANCH  23  26
HETATM   26  C15 UNL     1      26.307   1.801  52.946  1.00  0.00     0.375 C 
BRANCH  26  27
HETATM   27  N5  UNL     1      27.564   1.094  52.777  1.00  0.00     0.101 N 
HETATM   28  C16 UNL     1      27.301  -0.340  52.654  1.00  0.00     0.299 C 
HETATM   29  C17 UNL     1      26.685  -0.943  53.863  1.00  0.00     0.198 C 
HETATM   30  O2  UNL     1      27.217  -0.432  55.026  1.00  0.00    -0.388 OA
HETATM   31  C18 UNL     1      28.482   0.057  54.785  1.00  0.00     0.198 C 
HETATM   32  C19 UNL     1      28.439   1.312  53.930  1.00  0.00     0.299 C 
ENDBRANCH  26  27
ENDBRANCH  23  26
ENDBRANCH   9  22
TORSDOF 5
ENDMDL
MODEL 9
REMARK VINA RESULT:      -8.1      2.870      7.077
REMARK  5 active torsions:
REMARK  status: ('A' for Active; 'I' for Inactive)
REMARK    1  A    between atoms: C4_6  and  N3_7 
REMARK    2  A    between atoms: N3_7  and  C5_8 
REMARK    3  A    between atoms: C13_17  and  N4_18 
REMARK       I    between atoms: N4_18  and  C14_19 
REMARK    4  A    between atoms: C14_19  and  C15_21 
REMARK    5  A    between atoms: C15_21  and  N5_22 
ROOT
HETATM    1  N1  UNL     1      18.063   0.193  50.707  1.00  0.00    -0.191 NA
HETATM    2  C1  UNL     1      18.918   0.937  50.976  1.00  0.00     0.102 C 
HETATM    3  C2  UNL     1      19.985   1.865  51.291  1.00  0.00     0.073 A 
HETATM    4  C3  UNL     1      19.874   3.215  50.967  1.00  0.00     0.142 A 
HETATM    5  N2  UNL     1      20.853   4.124  51.247  1.00  0.00    -0.241 NA
HETATM    6  C4  UNL     1      21.995   3.712  51.867  1.00  0.00     0.139 A 
HETATM    7  C11 UNL     1      22.167   2.370  52.217  1.00  0.00     0.024 A 
HETATM    8  C12 UNL     1      23.282   1.846  52.839  1.00  0.00     0.045 A 
HETATM    9  C13 UNL     1      23.381   0.500  53.147  1.00  0.00     0.035 A 
HETATM   10  C20 UNL     1      22.354  -0.369  52.837  1.00  0.00     0.030 A 
HETATM   11  C21 UNL     1      21.229   0.131  52.216  1.00  0.00     0.016 A 
HETATM   12  C22 UNL     1      21.151   1.483  51.916  1.00  0.00     0.000 A 
ENDROOT
BRANCH   6  13
HETATM   13  N3  UNL     1      23.121   4.500  52.226  1.00  0.00    -0.340 N 
HETATM   14  H2  UNL     1      23.253   4.601  53.242  1.00  0.00     0.167 HD
BRANCH  13  15
HETATM   15  C5  UNL     1      23.944   5.070  51.212  1.00  0.00     0.035 A 
HETATM   16  C6  UNL     1      24.882   4.212  50.666  1.00  0.00     0.029 A 
HETATM   17  C7  UNL     1      25.758   4.614  49.670  1.00  0.00     0.004 A 
HETATM   18  C8  UNL     1      25.639   5.940  49.246  1.00  0.00     0.019 A 
HETATM   19  C9  UNL     1      24.705   6.800  49.788  1.00  0.00     0.013 A 
HETATM   20 BR1  UNL     1      24.524   8.627  49.218  1.00  0.00    -0.051 Br
HETATM   21  C10 UNL     1      23.827   6.377  50.796  1.00  0.00     0.048 A 
ENDBRANCH  13  15
ENDBRANCH   6  13
BRANCH   9  22
HETATM   22  N4  UNL     1      24.647   0.228  53.788  1.00  0.00    -0.326 N 
HETATM   23  C14 UNL     1      25.648   0.371  52.758  1.00  0.00     0.250 C 
HETATM   24  O1  UNL     1      25.164   0.681  51.611  1.00  0.00    -0.271 OA
HETATM   25  H8  UNL     1      25.080  -0.023  54.689  1.00  0.00     0.169 HD
BRANCH  23  26
HETATM   26  C15 UNL     1      27.096   0.242  52.723  1.00  0.00     0.375 C 
BRANCH  26  27
HETATM   27  N5  UNL     1      27.643  -0.641  53.737  1.00  0.00     0.101 N 
HETATM   28  C16 UNL     1      28.172   0.158  54.842  1.00  0.00     0.299 C 
HETATM   29  C17 UNL     1      29.302   1.041  54.458  1.00  0.00     0.198 C 
HETATM   30  O2  UNL     1      30.160   0.429  53.572  1.00  0.00    -0.388 OA
HETATM   31  C18 UNL     1      30.063  -0.939  53.698  1.00  0.00     0.198 C 
HETATM   32  C19 UNL     1      28.729  -1.453  53.186  1.00  0.00     0.299 C 
ENDBRANCH  26  27
ENDBRANCH  23  26
ENDBRANCH   9  22
TORSDOF 5
ENDMDL
