MODEL 1
REMARK VINA RESULT:      -7.6      0.000      0.000
REMARK  6 active torsions:
REMARK  status: ('A' for Active; 'I' for Inactive)
REMARK    1  A    between atoms: N1_7  and  S1_8 
REMARK    2  A    between atoms: S1_8  and  C5_9 
REMARK    3  A    between atoms: C5_9  and  C6_10 
REMARK    4  A    between atoms: C7_11  and  C8_12 
REMARK    5  A    between atoms: C10_14  and  N2_15 
REMARK    6  A    between atoms: N2_15  and  C11_16 
ROOT
HETATM    1  C8  UNL     1      25.842   4.825  49.720  1.00  0.00    -0.039 C 
HETATM    2  C9  UNL     1      24.962   5.667  50.218  1.00  0.00     0.013 C 
HETATM    3  C10 UNL     1      24.529   7.066  50.212  1.00  0.00     0.129 C 
HETATM    4  C13 UNL     1      25.609   8.045  50.183  1.00  0.00     0.019 C 
HETATM    5  C14 UNL     1      26.674   7.676  49.591  1.00  0.00     0.089 C 
HETATM    6  N3  UNL     1      27.381   6.714  48.897  1.00  0.00    -0.355 N 
HETATM    7  C15 UNL     1      28.320   6.837  48.057  1.00  0.00     0.094 A 
HETATM    8  C16 UNL     1      28.023   5.426  48.266  1.00  0.00     0.150 A 
HETATM    9  C17 UNL     1      27.053   4.841  48.922  1.00  0.00     0.015 C 
ENDROOT
BRANCH   1  10
HETATM   10  C7  UNL     1      25.563   3.475  50.270  1.00  0.00     0.007 C 
HETATM   11  C6  UNL     1      24.869   2.688  51.028  1.00  0.00    -0.014 C 
BRANCH  11  12
HETATM   12  C5  UNL     1      24.483   1.392  51.653  1.00  0.00     0.124 C 
BRANCH  12  13
HETATM   13  S1  UNL     1      25.116   1.283  53.345  1.00  0.00    -0.047 SA
BRANCH  13  14
HETATM   14  N1  UNL     1      26.884   1.209  53.398  1.00  0.00    -0.287 N 
HETATM   15  C1  UNL     1      27.381  -0.008  54.000  1.00  0.00     0.253 C 
HETATM   16  O1  UNL     1      26.740  -1.086  54.112  1.00  0.00    -0.270 OA
HETATM   17  C2  UNL     1      28.793   0.031  54.537  1.00  0.00     0.271 C 
HETATM   18  O2  UNL     1      28.889   1.327  55.099  1.00  0.00    -0.380 OA
HETATM   19  C3  UNL     1      29.033   2.244  54.051  1.00  0.00     0.189 C 
HETATM   20  C4  UNL     1      27.987   2.086  52.975  1.00  0.00     0.166 C 
ENDBRANCH  13  14
ENDBRANCH  12  13
ENDBRANCH  11  12
ENDBRANCH   1  10
BRANCH   3  21
HETATM   21  N2  UNL     1      23.468   7.401  51.131  1.00  0.00    -0.390 N 
HETATM   22  H13 UNL     1      23.520   7.723  52.117  1.00  0.00     0.159 HD
BRANCH  21  23
HETATM   23  C11 UNL     1      22.164   7.240  50.505  1.00  0.00     0.120 C 
HETATM   24  C12 UNL     1      21.449   6.168  50.928  1.00  0.00     0.240 C 
HETATM   25 CL1  UNL     1      22.144   5.102  52.163  1.00  0.00    -0.256 Cl
ENDBRANCH  21  23
ENDBRANCH   3  21
TORSDOF 6
ENDMDL
MODEL 2
REMARK VINA RESULT:      -7.5      3.459      6.941
REMARK  6 active torsions:
REMARK  status: ('A' for Active; 'I' for Inactive)
REMARK    1  A    between atoms: N1_7  and  S1_8 
REMARK    2  A    between atoms: S1_8  and  C5_9 
REMARK    3  A    between atoms: C5_9  and  C6_10 
REMARK    4  A    between atoms: C7_11  and  C8_12 
REMARK    5  A    between atoms: C10_14  and  N2_15 
REMARK    6  A    between atoms: N2_15  and  C11_16 
ROOT
HETATM    1  C8  UNL     1      26.442   1.807  52.232  1.00  0.00    -0.039 C 
HETATM    2  C9  UNL     1      25.289   1.199  52.403  1.00  0.00     0.013 C 
HETATM    3  C10 UNL     1      24.535   0.324  53.305  1.00  0.00     0.129 C 
HETATM    4  C13 UNL     1      25.312  -0.746  53.917  1.00  0.00     0.019 C 
HETATM    5  C14 UNL     1      26.545  -0.494  54.112  1.00  0.00     0.089 C 
HETATM    6  N3  UNL     1      27.613   0.377  54.020  1.00  0.00    -0.355 N 
HETATM    7  C15 UNL     1      28.663   0.458  54.722  1.00  0.00     0.094 A 
HETATM    8  C16 UNL     1      28.686   1.472  53.676  1.00  0.00     0.150 A 
HETATM    9  C17 UNL     1      27.764   1.848  52.825  1.00  0.00     0.015 C 
ENDROOT
BRANCH   1  10
HETATM   10  C7  UNL     1      26.385   2.569  50.959  1.00  0.00     0.007 C 
HETATM   11  C6  UNL     1      26.761   3.565  50.224  1.00  0.00    -0.014 C 
BRANCH  11  12
HETATM   12  C5  UNL     1      26.799   4.419  49.004  1.00  0.00     0.124 C 
BRANCH  12  13
HETATM   13  S1  UNL     1      25.550   5.726  49.098  1.00  0.00    -0.047 SA
BRANCH  13  14
HETATM   14  N1  UNL     1      24.040   5.162  49.831  1.00  0.00    -0.287 N 
HETATM   15  C1  UNL     1      23.718   5.851  51.062  1.00  0.00     0.253 C 
HETATM   16  O1  UNL     1      24.160   6.976  51.411  1.00  0.00    -0.270 OA
HETATM   17  C2  UNL     1      22.767   5.145  52.002  1.00  0.00     0.271 C 
HETATM   18  O2  UNL     1      23.153   3.788  51.894  1.00  0.00    -0.380 OA
HETATM   19  C3  UNL     1      22.662   3.292  50.680  1.00  0.00     0.189 C 
HETATM   20  C4  UNL     1      23.019   4.158  49.497  1.00  0.00     0.166 C 
ENDBRANCH  13  14
ENDBRANCH  12  13
ENDBRANCH  11  12
ENDBRANCH   1  10
BRANCH   3  21
HETATM   21  N2  UNL     1      23.237  -0.097  52.836  1.00  0.00    -0.390 N 
HETATM   22  H13 UNL     1      22.984  -0.865  52.185  1.00  0.00     0.159 HD
BRANCH  21  23
HETATM   23  C11 UNL     1      22.182   0.725  53.409  1.00  0.00     0.120 C 
HETATM   24  C12 UNL     1      21.344   0.078  54.258  1.00  0.00     0.240 C 
HETATM   25 CL1  UNL     1      21.605  -1.646  54.580  1.00  0.00    -0.256 Cl
ENDBRANCH  21  23
ENDBRANCH   3  21
TORSDOF 6
ENDMDL
MODEL 3
REMARK VINA RESULT:      -7.5      3.805      7.909
REMARK  6 active torsions:
REMARK  status: ('A' for Active; 'I' for Inactive)
REMARK    1  A    between atoms: N1_7  and  S1_8 
REMARK    2  A    between atoms: S1_8  and  C5_9 
REMARK    3  A    between atoms: C5_9  and  C6_10 
REMARK    4  A    between atoms: C7_11  and  C8_12 
REMARK    5  A    between atoms: C10_14  and  N2_15 
REMARK    6  A    between atoms: N2_15  and  C11_16 
ROOT
HETATM    1  C8  UNL     1      24.987   1.314  51.771  1.00  0.00    -0.039 C 
HETATM    2  C9  UNL     1      25.841   0.579  52.450  1.00  0.00     0.013 C 
HETATM    3  C10 UNL     1      25.967  -0.611  53.296  1.00  0.00     0.129 C 
HETATM    4  C13 UNL     1      24.877  -0.812  54.242  1.00  0.00     0.019 C 
HETATM    5  C14 UNL     1      23.739  -0.373  53.878  1.00  0.00     0.089 C 
HETATM    6  N3  UNL     1      22.951   0.262  52.938  1.00  0.00    -0.355 N 
HETATM    7  C15 UNL     1      21.710   0.162  52.712  1.00  0.00     0.094 A 
HETATM    8  C16 UNL     1      22.304   1.129  51.798  1.00  0.00     0.150 A 
HETATM    9  C17 UNL     1      23.556   1.439  51.574  1.00  0.00     0.015 C 
ENDROOT
BRANCH   1  10
HETATM   10  C7  UNL     1      25.732   2.429  51.134  1.00  0.00     0.007 C 
HETATM   11  C6  UNL     1      26.126   3.062  50.076  1.00  0.00    -0.014 C 
BRANCH  11  12
HETATM   12  C5  UNL     1      26.831   4.128  49.313  1.00  0.00     0.124 C 
BRANCH  12  13
HETATM   13  S1  UNL     1      25.957   5.707  49.461  1.00  0.00    -0.047 SA
BRANCH  13  14
HETATM   14  N1  UNL     1      24.216   5.539  49.192  1.00  0.00    -0.287 N 
HETATM   15  C1  UNL     1      23.473   5.331  50.416  1.00  0.00     0.253 C 
HETATM   16  O1  UNL     1      23.866   5.630  51.573  1.00  0.00    -0.270 OA
HETATM   17  C2  UNL     1      22.107   4.698  50.277  1.00  0.00     0.271 C 
HETATM   18  O2  UNL     1      22.298   3.737  49.255  1.00  0.00    -0.380 OA
HETATM   19  C3  UNL     1      22.347   4.411  48.029  1.00  0.00     0.189 C 
HETATM   20  C4  UNL     1      23.324   5.561  48.022  1.00  0.00     0.166 C 
ENDBRANCH  13  14
ENDBRANCH  12  13
ENDBRANCH  11  12
ENDBRANCH   1  10
BRANCH   3  21
HETATM   21  N2  UNL     1      27.275  -0.849  53.857  1.00  0.00    -0.390 N 
HETATM   22  H13 UNL     1      27.902  -1.670  53.753  1.00  0.00     0.159 HD
BRANCH  21  23
HETATM   23  C11 UNL     1      27.707   0.276  54.672  1.00  0.00     0.120 C 
HETATM   24  C12 UNL     1      29.022   0.592  54.568  1.00  0.00     0.240 C 
HETATM   25 CL1  UNL     1      30.055  -0.360  53.485  1.00  0.00    -0.256 Cl
ENDBRANCH  21  23
ENDBRANCH   3  21
TORSDOF 6
ENDMDL
MODEL 4
REMARK VINA RESULT:      -7.5      4.039      8.348
REMARK  6 active torsions:
REMARK  status: ('A' for Active; 'I' for Inactive)
REMARK    1  A    between atoms: N1_7  and  S1_8 
REMARK    2  A    between atoms: S1_8  and  C5_9 
REMARK    3  A    between atoms: C5_9  and  C6_10 
REMARK    4  A    between atoms: C7_11  and  C8_12 
REMARK    5  A    between atoms: C10_14  and  N2_15 
REMARK    6  A    between atoms: N2_15  and  C11_16 
ROOT
HETATM    1  C8  UNL     1      23.489   0.541  52.945  1.00  0.00    -0.039 C 
HETATM    2  C9  UNL     1      24.644   0.259  53.510  1.00  0.00     0.013 C 
HETATM    3  C10 UNL     1      25.335  -0.701  54.373  1.00  0.00     0.129 C 
HETATM    4  C13 UNL     1      24.545  -1.208  55.488  1.00  0.00     0.019 C 
HETATM    5  C14 UNL     1      23.290  -1.276  55.291  1.00  0.00     0.089 C 
HETATM    6  N3  UNL     1      22.200  -1.088  54.462  1.00  0.00    -0.355 N 
HETATM    7  C15 UNL     1      21.080  -1.676  54.440  1.00  0.00     0.094 A 
HETATM    8  C16 UNL     1      21.123  -0.651  53.405  1.00  0.00     0.150 A 
HETATM    9  C17 UNL     1      22.112   0.090  52.972  1.00  0.00     0.015 C 
ENDROOT
BRANCH   1  10
HETATM   10  C7  UNL     1      23.647   1.786  52.153  1.00  0.00     0.007 C 
HETATM   11  C6  UNL     1      24.270   2.893  51.904  1.00  0.00    -0.014 C 
BRANCH  11  12
HETATM   12  C5  UNL     1      24.540   4.172  51.190  1.00  0.00     0.124 C 
BRANCH  12  13
HETATM   13  S1  UNL     1      25.688   3.909  49.815  1.00  0.00    -0.047 SA
BRANCH  13  14
HETATM   14  N1  UNL     1      26.021   5.401  48.924  1.00  0.00    -0.287 N 
HETATM   15  C1  UNL     1      27.417   5.555  48.582  1.00  0.00     0.253 C 
HETATM   16  O1  UNL     1      28.264   4.626  48.516  1.00  0.00    -0.270 OA
HETATM   17  C2  UNL     1      27.888   6.960  48.280  1.00  0.00     0.271 C 
HETATM   18  O2  UNL     1      27.177   7.748  49.217  1.00  0.00    -0.380 OA
HETATM   19  C3  UNL     1      25.856   7.865  48.771  1.00  0.00     0.189 C 
HETATM   20  C4  UNL     1      25.222   6.537  48.436  1.00  0.00     0.166 C 
ENDBRANCH  13  14
ENDBRANCH  12  13
ENDBRANCH  11  12
ENDBRANCH   1  10
BRANCH   3  21
HETATM   21  N2  UNL     1      26.693  -0.365  54.729  1.00  0.00    -0.390 N 
HETATM   22  H13 UNL     1      27.345  -0.842  55.382  1.00  0.00     0.159 HD
BRANCH  21  23
HETATM   23  C11 UNL     1      27.138   0.828  54.026  1.00  0.00     0.120 C 
HETATM   24  C12 UNL     1      28.389   0.757  53.505  1.00  0.00     0.240 C 
HETATM   25 CL1  UNL     1      29.330  -0.729  53.721  1.00  0.00    -0.256 Cl
ENDBRANCH  21  23
ENDBRANCH   3  21
TORSDOF 6
ENDMDL
MODEL 5
REMARK VINA RESULT:      -7.3      4.623      8.572
REMARK  6 active torsions:
REMARK  status: ('A' for Active; 'I' for Inactive)
REMARK    1  A    between atoms: N1_7  and  S1_8 
REMARK    2  A    between atoms: S1_8  and  C5_9 
REMARK    3  A    between atoms: C5_9  and  C6_10 
REMARK    4  A    between atoms: C7_11  and  C8_12 
REMARK    5  A    between atoms: C10_14  and  N2_15 
REMARK    6  A    between atoms: N2_15  and  C11_16 
ROOT
HETATM    1  C8  UNL     1      23.564   0.536  53.045  1.00  0.00    -0.039 C 
HETATM    2  C9  UNL     1      24.744   0.310  53.581  1.00  0.00     0.013 C 
HETATM    3  C10 UNL     1      25.507  -0.624  54.412  1.00  0.00     0.129 C 
HETATM    4  C13 UNL     1      24.770  -1.193  55.534  1.00  0.00     0.019 C 
HETATM    5  C14 UNL     1      23.516  -1.327  55.362  1.00  0.00     0.089 C 
HETATM    6  N3  UNL     1      22.400  -1.187  54.560  1.00  0.00    -0.355 N 
HETATM    7  C15 UNL     1      21.314  -1.836  54.550  1.00  0.00     0.094 A 
HETATM    8  C16 UNL     1      21.278  -0.794  53.533  1.00  0.00     0.150 A 
HETATM    9  C17 UNL     1      22.214   0.009  53.093  1.00  0.00     0.015 C 
ENDROOT
BRANCH   1  10
HETATM   10  C7  UNL     1      23.634   1.801  52.272  1.00  0.00     0.007 C 
HETATM   11  C6  UNL     1      23.807   3.083  52.220  1.00  0.00    -0.014 C 
BRANCH  11  12
HETATM   12  C5  UNL     1      23.905   4.418  51.567  1.00  0.00     0.124 C 
BRANCH  12  13
HETATM   13  S1  UNL     1      22.258   5.077  51.207  1.00  0.00    -0.047 SA
BRANCH  13  14
HETATM   14  N1  UNL     1      21.229   3.900  50.377  1.00  0.00    -0.287 N 
HETATM   15  C1  UNL     1      20.372   3.164  51.280  1.00  0.00     0.253 C 
HETATM   16  O1  UNL     1      20.036   3.529  52.436  1.00  0.00    -0.270 OA
HETATM   17  C2  UNL     1      19.839   1.841  50.777  1.00  0.00     0.271 C 
HETATM   18  O2  UNL     1      20.934   1.304  50.058  1.00  0.00    -0.380 OA
HETATM   19  C3  UNL     1      21.022   1.978  48.834  1.00  0.00     0.189 C 
HETATM   20  C4  UNL     1      21.025   3.480  48.982  1.00  0.00     0.166 C 
ENDBRANCH  13  14
ENDBRANCH  12  13
ENDBRANCH  11  12
ENDBRANCH   1  10
BRANCH   3  21
HETATM   21  N2  UNL     1      26.851  -0.218  54.746  1.00  0.00    -0.390 N 
HETATM   22  H13 UNL     1      27.518  -0.630  55.426  1.00  0.00     0.159 HD
BRANCH  21  23
HETATM   23  C11 UNL     1      27.255   0.943  53.969  1.00  0.00     0.120 C 
HETATM   24  C12 UNL     1      28.495   0.870  53.424  1.00  0.00     0.240 C 
HETATM   25 CL1  UNL     1      29.472  -0.583  53.698  1.00  0.00    -0.256 Cl
ENDBRANCH  21  23
ENDBRANCH   3  21
TORSDOF 6
ENDMDL
MODEL 6
REMARK VINA RESULT:      -7.1      4.624      7.742
REMARK  6 active torsions:
REMARK  status: ('A' for Active; 'I' for Inactive)
REMARK    1  A    between atoms: N1_7  and  S1_8 
REMARK    2  A    between atoms: S1_8  and  C5_9 
REMARK    3  A    between atoms: C5_9  and  C6_10 
REMARK    4  A    between atoms: C7_11  and  C8_12 
REMARK    5  A    between atoms: C10_14  and  N2_15 
REMARK    6  A    between atoms: N2_15  and  C11_16 
ROOT
HETATM    1  C8  UNL     1      22.677   0.843  52.101  1.00  0.00    -0.039 C 
HETATM    2  C9  UNL     1      21.690   0.358  52.822  1.00  0.00     0.013 C 
HETATM    3  C10 UNL     1      21.341  -0.189  54.136  1.00  0.00     0.129 C 
HETATM    4  C13 UNL     1      22.343  -1.071  54.721  1.00  0.00     0.019 C 
HETATM    5  C14 UNL     1      23.551  -0.825  54.402  1.00  0.00     0.089 C 
HETATM    6  N3  UNL     1      24.470  -0.062  53.708  1.00  0.00    -0.355 N 
HETATM    7  C15 UNL     1      25.689   0.172  53.954  1.00  0.00     0.094 A 
HETATM    8  C16 UNL     1      25.294   0.842  52.721  1.00  0.00     0.150 A 
HETATM    9  C17 UNL     1      24.117   0.997  52.169  1.00  0.00     0.015 C 
ENDROOT
BRANCH   1  10
HETATM   10  C7  UNL     1      22.146   1.210  50.765  1.00  0.00     0.007 C 
HETATM   11  C6  UNL     1      22.321   1.679  49.571  1.00  0.00    -0.014 C 
BRANCH  11  12
HETATM   12  C5  UNL     1      21.920   2.087  48.197  1.00  0.00     0.124 C 
BRANCH  12  13
HETATM   13  S1  UNL     1      22.039   3.883  48.001  1.00  0.00    -0.047 SA
BRANCH  13  14
HETATM   14  N1  UNL     1      22.221   4.718  49.551  1.00  0.00    -0.287 N 
HETATM   15  C1  UNL     1      23.550   5.251  49.754  1.00  0.00     0.253 C 
HETATM   16  O1  UNL     1      24.387   5.499  48.848  1.00  0.00    -0.270 OA
HETATM   17  C2  UNL     1      23.955   5.529  51.183  1.00  0.00     0.271 C 
HETATM   18  O2  UNL     1      23.383   4.450  51.898  1.00  0.00    -0.380 OA
HETATM   19  C3  UNL     1      22.008   4.688  52.016  1.00  0.00     0.189 C 
HETATM   20  C4  UNL     1      21.347   5.010  50.698  1.00  0.00     0.166 C 
ENDBRANCH  13  14
ENDBRANCH  12  13
ENDBRANCH  11  12
ENDBRANCH   1  10
BRANCH   3  21
HETATM   21  N2  UNL     1      19.989  -0.671  54.279  1.00  0.00    -0.390 N 
HETATM   22  H13 UNL     1      19.550  -1.193  55.062  1.00  0.00     0.159 HD
BRANCH  21  23
HETATM   23  C11 UNL     1      19.187  -0.333  53.113  1.00  0.00     0.120 C 
HETATM   24  C12 UNL     1      18.187  -1.205  52.828  1.00  0.00     0.240 C 
HETATM   25 CL1  UNL     1      17.958  -2.623  53.867  1.00  0.00    -0.256 Cl
ENDBRANCH  21  23
ENDBRANCH   3  21
TORSDOF 6
ENDMDL
MODEL 7
REMARK VINA RESULT:      -7.0      3.792      5.726
REMARK  6 active torsions:
REMARK  status: ('A' for Active; 'I' for Inactive)
REMARK    1  A    between atoms: N1_7  and  S1_8 
REMARK    2  A    between atoms: S1_8  and  C5_9 
REMARK    3  A    between atoms: C5_9  and  C6_10 
REMARK    4  A    between atoms: C7_11  and  C8_12 
REMARK    5  A    between atoms: C10_14  and  N2_15 
REMARK    6  A    between atoms: N2_15  and  C11_16 
ROOT
HETATM    1  C8  UNL     1      28.122   5.814  48.353  1.00  0.00    -0.039 C 
HETATM    2  C9  UNL     1      29.394   5.479  48.332  1.00  0.00     0.013 C 
HETATM    3  C10 UNL     1      30.741   5.963  48.018  1.00  0.00     0.129 C 
HETATM    4  C13 UNL     1      30.832   6.800  46.828  1.00  0.00     0.019 C 
HETATM    5  C14 UNL     1      29.798   7.489  46.555  1.00  0.00     0.089 C 
HETATM    6  N3  UNL     1      28.505   7.873  46.858  1.00  0.00    -0.355 N 
HETATM    7  C15 UNL     1      27.887   8.944  46.591  1.00  0.00     0.094 A 
HETATM    8  C16 UNL     1      27.012   8.035  47.319  1.00  0.00     0.150 A 
HETATM    9  C17 UNL     1      27.262   6.897  47.915  1.00  0.00     0.015 C 
ENDROOT
BRANCH   1  10
HETATM   10  C7  UNL     1      27.341   4.658  48.856  1.00  0.00     0.007 C 
HETATM   11  C6  UNL     1      26.538   4.131  49.724  1.00  0.00    -0.014 C 
BRANCH  11  12
HETATM   12  C5  UNL     1      25.710   3.054  50.334  1.00  0.00     0.124 C 
BRANCH  12  13
HETATM   13  S1  UNL     1      26.741   1.920  51.296  1.00  0.00    -0.047 SA
BRANCH  13  14
HETATM   14  N1  UNL     1      25.884   1.253  52.694  1.00  0.00    -0.287 N 
HETATM   15  C1  UNL     1      26.648   1.338  53.919  1.00  0.00     0.253 C 
HETATM   16  O1  UNL     1      27.606   2.126  54.134  1.00  0.00    -0.270 OA
HETATM   17  C2  UNL     1      26.252   0.391  55.029  1.00  0.00     0.271 C 
HETATM   18  O2  UNL     1      25.933  -0.802  54.338  1.00  0.00    -0.380 OA
HETATM   19  C3  UNL     1      24.678  -0.635  53.741  1.00  0.00     0.189 C 
HETATM   20  C4  UNL     1      24.572   0.629  52.924  1.00  0.00     0.166 C 
ENDBRANCH  13  14
ENDBRANCH  12  13
ENDBRANCH  11  12
ENDBRANCH   1  10
BRANCH   3  21
HETATM   21  N2  UNL     1      31.801   4.991  48.127  1.00  0.00    -0.390 N 
HETATM   22  H13 UNL     1      32.564   4.916  48.828  1.00  0.00     0.159 HD
BRANCH  21  23
HETATM   23  C11 UNL     1      31.717   4.003  47.062  1.00  0.00     0.120 C 
HETATM   24  C12 UNL     1      32.854   3.298  46.837  1.00  0.00     0.240 C 
HETATM   25 CL1  UNL     1      34.285   3.633  47.828  1.00  0.00    -0.256 Cl
ENDBRANCH  21  23
ENDBRANCH   3  21
TORSDOF 6
ENDMDL
MODEL 8
REMARK VINA RESULT:      -7.0      3.920      7.199
REMARK  6 active torsions:
REMARK  status: ('A' for Active; 'I' for Inactive)
REMARK    1  A    between atoms: N1_7  and  S1_8 
REMARK    2  A    between atoms: S1_8  and  C5_9 
REMARK    3  A    between atoms: C5_9  and  C6_10 
REMARK    4  A    between atoms: C7_11  and  C8_12 
REMARK    5  A    between atoms: C10_14  and  N2_15 
REMARK    6  A    between atoms: N2_15  and  C11_16 
ROOT
HETATM    1  C8  UNL     1      25.757   3.199  49.992  1.00  0.00    -0.039 C 
HETATM    2  C9  UNL     1      26.155   2.868  51.202  1.00  0.00     0.013 C 
HETATM    3  C10 UNL     1      25.738   2.223  52.449  1.00  0.00     0.129 C 
HETATM    4  C13 UNL     1      24.368   2.504  52.860  1.00  0.00     0.019 C 
HETATM    5  C14 UNL     1      23.541   2.725  51.918  1.00  0.00     0.089 C 
HETATM    6  N3  UNL     1      23.276   2.842  50.567  1.00  0.00    -0.355 N 
HETATM    7  C15 UNL     1      22.200   2.656  49.927  1.00  0.00     0.094 A 
HETATM    8  C16 UNL     1      23.256   3.068  49.012  1.00  0.00     0.150 A 
HETATM    9  C17 UNL     1      24.542   3.226  49.202  1.00  0.00     0.015 C 
ENDROOT
BRANCH   1  10
HETATM   10  C7  UNL     1      26.883   3.871  49.297  1.00  0.00     0.007 C 
HETATM   11  C6  UNL     1      27.466   4.947  48.874  1.00  0.00    -0.014 C 
BRANCH  11  12
HETATM   12  C5  UNL     1      28.530   5.744  48.204  1.00  0.00     0.124 C 
BRANCH  12  13
HETATM   13  S1  UNL     1      27.915   7.388  47.760  1.00  0.00    -0.047 SA
BRANCH  13  14
HETATM   14  N1  UNL     1      26.251   7.653  48.305  1.00  0.00    -0.287 N 
HETATM   15  C1  UNL     1      26.174   8.172  49.652  1.00  0.00     0.253 C 
HETATM   16  O1  UNL     1      27.098   8.769  50.264  1.00  0.00    -0.270 OA
HETATM   17  C2  UNL     1      24.864   7.971  50.380  1.00  0.00     0.271 C 
HETATM   18  O2  UNL     1      24.461   6.677  49.970  1.00  0.00    -0.380 OA
HETATM   19  C3  UNL     1      23.969   6.769  48.663  1.00  0.00     0.189 C 
HETATM   20  C4  UNL     1      24.912   7.478  47.721  1.00  0.00     0.166 C 
ENDBRANCH  13  14
ENDBRANCH  12  13
ENDBRANCH  11  12
ENDBRANCH   1  10
BRANCH   3  21
HETATM   21  N2  UNL     1      26.690   2.270  53.532  1.00  0.00    -0.390 N 
HETATM   22  H13 UNL     1      27.404   2.991  53.757  1.00  0.00     0.159 HD
BRANCH  21  23
HETATM   23  C11 UNL     1      26.564   1.104  54.392  1.00  0.00     0.120 C 
HETATM   24  C12 UNL     1      27.673   0.327  54.477  1.00  0.00     0.240 C 
HETATM   25 CL1  UNL     1      29.122   0.791  53.567  1.00  0.00    -0.256 Cl
ENDBRANCH  21  23
ENDBRANCH   3  21
TORSDOF 6
ENDMDL
MODEL 9
REMARK VINA RESULT:      -6.9      3.508      6.595
REMARK  6 active torsions:
REMARK  status: ('A' for Active; 'I' for Inactive)
REMARK    1  A    between atoms: N1_7  and  S1_8 
REMARK    2  A    between atoms: S1_8  and  C5_9 
REMARK    3  A    between atoms: C5_9  and  C6_10 
REMARK    4  A    between atoms: C7_11  and  C8_12 
REMARK    5  A    between atoms: C10_14  and  N2_15 
REMARK    6  A    between atoms: N2_15  and  C11_16 
ROOT
HETATM    1  C8  UNL     1      24.909   0.157  52.753  1.00  0.00    -0.039 C 
HETATM    2  C9  UNL     1      24.942   1.379  52.266  1.00  0.00     0.013 C 
HETATM    3  C10 UNL     1      25.818   2.392  51.672  1.00  0.00     0.129 C 
HETATM    4  C13 UNL     1      27.150   2.475  52.257  1.00  0.00     0.019 C 
HETATM    5  C14 UNL     1      27.616   1.388  52.729  1.00  0.00     0.089 C 
HETATM    6  N3  UNL     1      27.468   0.039  52.985  1.00  0.00    -0.355 N 
HETATM    7  C15 UNL     1      28.341  -0.870  53.106  1.00  0.00     0.094 A 
HETATM    8  C16 UNL     1      27.010  -1.431  53.298  1.00  0.00     0.150 A 
HETATM    9  C17 UNL     1      25.823  -0.905  53.123  1.00  0.00     0.015 C 
ENDROOT
BRANCH   1  10
HETATM   10  C7  UNL     1      23.516  -0.144  53.167  1.00  0.00     0.007 C 
HETATM   11  C6  UNL     1      22.239   0.016  53.030  1.00  0.00    -0.014 C 
BRANCH  11  12
HETATM   12  C5  UNL     1      20.800  -0.200  53.343  1.00  0.00     0.124 C 
BRANCH  12  13
HETATM   13  S1  UNL     1      19.755   0.376  51.981  1.00  0.00    -0.047 SA
BRANCH  13  14
HETATM   14  N1  UNL     1      20.218   1.988  51.414  1.00  0.00    -0.287 N 
HETATM   15  C1  UNL     1      20.949   1.959  50.167  1.00  0.00     0.253 C 
HETATM   16  O1  UNL     1      20.937   1.019  49.330  1.00  0.00    -0.270 OA
HETATM   17  C2  UNL     1      21.799   3.170  49.853  1.00  0.00     0.271 C 
HETATM   18  O2  UNL     1      22.335   3.524  51.115  1.00  0.00    -0.380 OA
HETATM   19  C3  UNL     1      21.326   4.155  51.853  1.00  0.00     0.189 C 
HETATM   20  C4  UNL     1      20.041   3.366  51.899  1.00  0.00     0.166 C 
ENDBRANCH  13  14
ENDBRANCH  12  13
ENDBRANCH  11  12
ENDBRANCH   1  10
BRANCH   3  21
HETATM   21  N2  UNL     1      25.213   3.679  51.422  1.00  0.00    -0.390 N 
HETATM   22  H13 UNL     1      24.544   4.221  52.002  1.00  0.00     0.159 HD
BRANCH  21  23
HETATM   23  C11 UNL     1      25.662   4.230  50.153  1.00  0.00     0.120 C 
HETATM   24  C12 UNL     1      25.288   5.512  49.916  1.00  0.00     0.240 C 
HETATM   25 CL1  UNL     1      24.322   6.367  51.133  1.00  0.00    -0.256 Cl
ENDBRANCH  21  23
ENDBRANCH   3  21
TORSDOF 6
ENDMDL
