MODEL 1
REMARK VINA RESULT:      -8.1      0.000      0.000
REMARK  3 active torsions:
REMARK  status: ('A' for Active; 'I' for Inactive)
REMARK    1  A    between atoms: C4_6  and  C5_7 
REMARK    2  A    between atoms: C6_8  and  C7_9 
REMARK    3  A    between atoms: C8_10  and  C9_11 
ROOT
HETATM    1  C7  UNL     1      25.988   1.228  51.932  1.00  0.00     0.029 C 
HETATM    2  C8  UNL     1      24.753   0.972  52.344  1.00  0.00     0.089 C 
HETATM    3  O2  UNL     1      24.493  -0.128  53.149  1.00  0.00    -0.350 OA
HETATM    4  C15 UNL     1      25.453  -1.155  53.225  1.00  0.00     0.196 C 
HETATM    5  C16 UNL     1      26.809  -0.559  53.428  1.00  0.00     0.111 C 
HETATM    6 CL1  UNL     1      26.802   0.345  54.961  1.00  0.00    -0.122 Cl
HETATM    7  C17 UNL     1      27.174   0.386  52.296  1.00  0.00     0.073 C 
ENDROOT
BRANCH   1   8
HETATM    8  C6  UNL     1      26.317   2.349  51.101  1.00  0.00    -0.061 C 
HETATM    9  C5  UNL     1      26.601   3.275  50.389  1.00  0.00    -0.036 C 
BRANCH   9  10
HETATM   10  C4  UNL     1      26.951   4.400  49.549  1.00  0.00     0.131 A 
HETATM   11  O1  UNL     1      28.086   4.683  48.975  1.00  0.00    -0.302 OA
HETATM   12  C3  UNL     1      27.974   5.816  48.289  1.00  0.00     0.099 A 
HETATM   13  C2  UNL     1      28.237   7.020  47.428  1.00  0.00     0.190 A 
HETATM   14  C19 UNL     1      26.678   6.286  48.437  1.00  0.00     0.065 A 
HETATM   15  N1  UNL     1      26.874   7.441  47.631  1.00  0.00    -0.377 N 
HETATM   16  C1  UNL     1      26.054   8.556  47.201  1.00  0.00     0.150 C 
HETATM   17  C18 UNL     1      26.009   5.384  49.245  1.00  0.00     0.078 A 
ENDBRANCH   9  10
ENDBRANCH   1   8
BRANCH   2  18
HETATM   18  C9  UNL     1      23.547   1.749  52.045  1.00  0.00     0.188 C 
HETATM   19  C10 UNL     1      23.083   1.839  50.679  1.00  0.00     0.007 C 
HETATM   20  C11 UNL     1      22.061   1.389  49.924  1.00  0.00    -0.001 C 
HETATM   21  C12 UNL     1      20.994   0.555  50.402  1.00  0.00     0.001 C 
HETATM   22  C13 UNL     1      20.670   0.257  51.644  1.00  0.00     0.019 C 
HETATM   23  C14 UNL     1      21.381   0.752  52.810  1.00  0.00     0.111 C 
HETATM   24  N2  UNL     1      22.504   1.337  52.988  1.00  0.00    -0.286 NA
ENDBRANCH   2  18
TORSDOF 3
ENDMDL
MODEL 2
REMARK VINA RESULT:      -8.1      2.443      7.274
REMARK  3 active torsions:
REMARK  status: ('A' for Active; 'I' for Inactive)
REMARK    1  A    between atoms: C4_6  and  C5_7 
REMARK    2  A    between atoms: C6_8  and  C7_9 
REMARK    3  A    between atoms: C8_10  and  C9_11 
ROOT
HETATM    1  C7  UNL     1      25.652   1.386  52.965  1.00  0.00     0.029 C 
HETATM    2  C8  UNL     1      26.239   2.052  51.980  1.00  0.00     0.089 C 
HETATM    3  O2  UNL     1      27.579   2.405  52.069  1.00  0.00    -0.350 OA
HETATM    4  C15 UNL     1      28.206   2.379  53.328  1.00  0.00     0.196 C 
HETATM    5  C16 UNL     1      27.864   1.104  54.031  1.00  0.00     0.111 C 
HETATM    6 CL1  UNL     1      28.465  -0.256  53.054  1.00  0.00    -0.122 Cl
HETATM    7  C17 UNL     1      26.363   0.958  54.215  1.00  0.00     0.073 C 
ENDROOT
BRANCH   1   8
HETATM    8  C6  UNL     1      24.274   0.995  52.931  1.00  0.00    -0.061 C 
HETATM    9  C5  UNL     1      23.122   0.650  52.914  1.00  0.00    -0.036 C 
BRANCH   9  10
HETATM   10  C4  UNL     1      21.735   0.238  52.873  1.00  0.00     0.131 A 
HETATM   11  O1  UNL     1      21.029  -0.384  53.775  1.00  0.00    -0.302 OA
HETATM   12  C3  UNL     1      19.791  -0.568  53.328  1.00  0.00     0.099 A 
HETATM   13  C2  UNL     1      18.344  -0.954  53.186  1.00  0.00     0.190 A 
HETATM   14  C19 UNL     1      19.704  -0.028  52.054  1.00  0.00     0.065 A 
HETATM   15  N1  UNL     1      18.336  -0.370  51.869  1.00  0.00    -0.377 N 
HETATM   16  C1  UNL     1      17.359  -0.202  50.812  1.00  0.00     0.150 C 
HETATM   17  C18 UNL     1      20.949   0.494  51.749  1.00  0.00     0.078 A 
ENDBRANCH   9  10
ENDBRANCH   1   8
BRANCH   2  18
HETATM   18  C9  UNL     1      25.621   2.494  50.727  1.00  0.00     0.188 C 
HETATM   19  C10 UNL     1      24.533   3.445  50.770  1.00  0.00     0.007 C 
HETATM   20  C11 UNL     1      24.302   4.735  50.454  1.00  0.00    -0.001 C 
HETATM   21  C12 UNL     1      25.275   5.629  49.894  1.00  0.00     0.001 C 
HETATM   22  C13 UNL     1      26.457   5.350  49.382  1.00  0.00     0.019 C 
HETATM   23  C14 UNL     1      27.008   4.009  49.294  1.00  0.00     0.111 C 
HETATM   24  N2  UNL     1      26.696   2.881  49.811  1.00  0.00    -0.286 NA
ENDBRANCH   2  18
TORSDOF 3
ENDMDL
MODEL 3
REMARK VINA RESULT:      -8.1      3.200      8.034
REMARK  3 active torsions:
REMARK  status: ('A' for Active; 'I' for Inactive)
REMARK    1  A    between atoms: C4_6  and  C5_7 
REMARK    2  A    between atoms: C6_8  and  C7_9 
REMARK    3  A    between atoms: C8_10  and  C9_11 
ROOT
HETATM    1  C7  UNL     1      24.117   2.243  50.868  1.00  0.00     0.029 C 
HETATM    2  C8  UNL     1      25.268   2.132  51.517  1.00  0.00     0.089 C 
HETATM    3  O2  UNL     1      26.402   2.787  51.056  1.00  0.00    -0.350 OA
HETATM    4  C15 UNL     1      26.422   3.259  49.731  1.00  0.00     0.196 C 
HETATM    5  C16 UNL     1      25.143   3.976  49.437  1.00  0.00     0.111 C 
HETATM    6 CL1  UNL     1      25.006   5.361  50.545  1.00  0.00    -0.122 Cl
HETATM    7  C17 UNL     1      23.941   3.067  49.627  1.00  0.00     0.073 C 
ENDROOT
BRANCH   1   8
HETATM    8  C6  UNL     1      22.914   1.591  51.295  1.00  0.00    -0.061 C 
HETATM    9  C5  UNL     1      21.902   1.036  51.633  1.00  0.00    -0.036 C 
BRANCH   9  10
HETATM   10  C4  UNL     1      20.678   0.386  52.050  1.00  0.00     0.131 A 
HETATM   11  O1  UNL     1      20.451  -0.359  53.094  1.00  0.00    -0.302 OA
HETATM   12  C3  UNL     1      19.182  -0.755  53.097  1.00  0.00     0.099 A 
HETATM   13  C2  UNL     1      17.862  -1.388  53.442  1.00  0.00     0.190 A 
HETATM   14  C19 UNL     1      18.560  -0.225  51.977  1.00  0.00     0.065 A 
HETATM   15  N1  UNL     1      17.290  -0.802  52.257  1.00  0.00    -0.377 N 
HETATM   16  C1  UNL     1      15.987  -0.798  51.623  1.00  0.00     0.150 C 
HETATM   17  C18 UNL     1      19.512   0.511  51.294  1.00  0.00     0.078 A 
ENDBRANCH   9  10
ENDBRANCH   1   8
BRANCH   2  18
HETATM   18  C9  UNL     1      25.519   1.361  52.738  1.00  0.00     0.188 C 
HETATM   19  C10 UNL     1      25.691  -0.072  52.649  1.00  0.00     0.007 C 
HETATM   20  C11 UNL     1      26.674  -0.984  52.778  1.00  0.00    -0.001 C 
HETATM   21  C12 UNL     1      28.040  -0.678  53.098  1.00  0.00     0.001 C 
HETATM   22  C13 UNL     1      28.553   0.455  53.534  1.00  0.00     0.019 C 
HETATM   23  C14 UNL     1      27.777   1.658  53.779  1.00  0.00     0.111 C 
HETATM   24  N2  UNL     1      26.591   2.031  53.477  1.00  0.00    -0.286 NA
ENDBRANCH   2  18
TORSDOF 3
ENDMDL
MODEL 4
REMARK VINA RESULT:      -8.0      2.216      4.306
REMARK  3 active torsions:
REMARK  status: ('A' for Active; 'I' for Inactive)
REMARK    1  A    between atoms: C4_6  and  C5_7 
REMARK    2  A    between atoms: C6_8  and  C7_9 
REMARK    3  A    between atoms: C8_10  and  C9_11 
ROOT
HETATM    1  C7  UNL     1      24.610   2.986  51.103  1.00  0.00     0.029 C 
HETATM    2  C8  UNL     1      25.153   1.935  51.703  1.00  0.00     0.089 C 
HETATM    3  O2  UNL     1      24.374   1.083  52.473  1.00  0.00    -0.350 OA
HETATM    4  C15 UNL     1      23.112   1.526  52.909  1.00  0.00     0.196 C 
HETATM    5  C16 UNL     1      22.380   2.154  51.766  1.00  0.00     0.111 C 
HETATM    6 CL1  UNL     1      22.159   0.926  50.498  1.00  0.00    -0.122 Cl
HETATM    7  C17 UNL     1      23.152   3.328  51.191  1.00  0.00     0.073 C 
ENDROOT
BRANCH   1   8
HETATM    8  C6  UNL     1      25.362   3.900  50.295  1.00  0.00    -0.061 C 
HETATM    9  C5  UNL     1      26.006   4.671  49.635  1.00  0.00    -0.036 C 
BRANCH   9  10
HETATM   10  C4  UNL     1      26.764   5.607  48.832  1.00  0.00     0.131 A 
HETATM   11  O1  UNL     1      26.373   6.709  48.257  1.00  0.00    -0.302 OA
HETATM   12  C3  UNL     1      27.394   7.268  47.615  1.00  0.00     0.099 A 
HETATM   13  C2  UNL     1      28.267   8.178  46.796  1.00  0.00     0.190 A 
HETATM   14  C19 UNL     1      28.510   6.466  47.794  1.00  0.00     0.065 A 
HETATM   15  N1  UNL     1      29.379   7.292  47.029  1.00  0.00    -0.377 N 
HETATM   16  C1  UNL     1      30.777   7.256  46.650  1.00  0.00     0.150 C 
HETATM   17  C18 UNL     1      28.118   5.394  48.576  1.00  0.00     0.078 A 
ENDBRANCH   9  10
ENDBRANCH   1   8
BRANCH   2  18
HETATM   18  C9  UNL     1      26.559   1.525  51.656  1.00  0.00     0.188 C 
HETATM   19  C10 UNL     1      27.529   2.223  52.471  1.00  0.00     0.007 C 
HETATM   20  C11 UNL     1      28.287   1.996  53.562  1.00  0.00    -0.001 C 
HETATM   21  C12 UNL     1      28.307   0.768  54.305  1.00  0.00     0.001 C 
HETATM   22  C13 UNL     1      27.803  -0.405  53.977  1.00  0.00     0.019 C 
HETATM   23  C14 UNL     1      27.100  -0.669  52.734  1.00  0.00     0.111 C 
HETATM   24  N2  UNL     1      26.607   0.070  51.814  1.00  0.00    -0.286 NA
ENDBRANCH   2  18
TORSDOF 3
ENDMDL
MODEL 5
REMARK VINA RESULT:      -7.8      4.467      9.492
REMARK  3 active torsions:
REMARK  status: ('A' for Active; 'I' for Inactive)
REMARK    1  A    between atoms: C4_6  and  C5_7 
REMARK    2  A    between atoms: C6_8  and  C7_9 
REMARK    3  A    between atoms: C8_10  and  C9_11 
ROOT
HETATM    1  C7  UNL     1      29.737   6.566  47.429  1.00  0.00     0.029 C 
HETATM    2  C8  UNL     1      31.007   6.196  47.331  1.00  0.00     0.089 C 
HETATM    3  O2  UNL     1      31.924   6.995  46.662  1.00  0.00    -0.350 OA
HETATM    4  C15 UNL     1      31.447   7.995  45.794  1.00  0.00     0.196 C 
HETATM    5  C16 UNL     1      30.349   8.757  46.463  1.00  0.00     0.111 C 
HETATM    6 CL1  UNL     1      31.008   9.525  47.927  1.00  0.00    -0.122 Cl
HETATM    7  C17 UNL     1      29.200   7.844  46.856  1.00  0.00     0.073 C 
ENDROOT
BRANCH   1   8
HETATM    8  C6  UNL     1      28.746   5.783  48.106  1.00  0.00    -0.061 C 
HETATM    9  C5  UNL     1      27.899   5.139  48.666  1.00  0.00    -0.036 C 
BRANCH   9  10
HETATM   10  C4  UNL     1      26.890   4.364  49.357  1.00  0.00     0.131 A 
HETATM   11  O1  UNL     1      27.035   3.371  50.188  1.00  0.00    -0.302 OA
HETATM   12  C3  UNL     1      25.842   2.946  50.592  1.00  0.00     0.099 A 
HETATM   13  C2  UNL     1      24.720   2.202  51.262  1.00  0.00     0.190 A 
HETATM   14  C19 UNL     1      24.873   3.721  49.976  1.00  0.00     0.065 A 
HETATM   15  N1  UNL     1      23.775   3.051  50.582  1.00  0.00    -0.377 N 
HETATM   16  C1  UNL     1      22.332   3.172  50.535  1.00  0.00     0.150 C 
HETATM   17  C18 UNL     1      25.534   4.638  49.177  1.00  0.00     0.078 A 
ENDBRANCH   9  10
ENDBRANCH   1   8
BRANCH   2  18
HETATM   18  C9  UNL     1      31.612   4.975  47.871  1.00  0.00     0.188 C 
HETATM   19  C10 UNL     1      31.711   3.802  47.032  1.00  0.00     0.007 C 
HETATM   20  C11 UNL     1      32.662   3.085  46.400  1.00  0.00    -0.001 C 
HETATM   21  C12 UNL     1      34.065   3.385  46.424  1.00  0.00     0.001 C 
HETATM   22  C13 UNL     1      34.719   4.226  47.201  1.00  0.00     0.019 C 
HETATM   23  C14 UNL     1      34.090   5.041  48.225  1.00  0.00     0.111 C 
HETATM   24  N2  UNL     1      32.879   5.346  48.504  1.00  0.00    -0.286 NA
ENDBRANCH   2  18
TORSDOF 3
ENDMDL
MODEL 6
REMARK VINA RESULT:      -7.7      3.023      7.939
REMARK  3 active torsions:
REMARK  status: ('A' for Active; 'I' for Inactive)
REMARK    1  A    between atoms: C4_6  and  C5_7 
REMARK    2  A    between atoms: C6_8  and  C7_9 
REMARK    3  A    between atoms: C8_10  and  C9_11 
ROOT
HETATM    1  C7  UNL     1      23.623   1.001  53.013  1.00  0.00     0.029 C 
HETATM    2  C8  UNL     1      24.093   2.123  52.484  1.00  0.00     0.089 C 
HETATM    3  O2  UNL     1      25.424   2.479  52.658  1.00  0.00    -0.350 OA
HETATM    4  C15 UNL     1      26.166   1.854  53.676  1.00  0.00     0.196 C 
HETATM    5  C16 UNL     1      25.932   0.378  53.632  1.00  0.00     0.111 C 
HETATM    6 CL1  UNL     1      26.482  -0.232  52.054  1.00  0.00    -0.122 Cl
HETATM    7  C17 UNL     1      24.461   0.044  53.808  1.00  0.00     0.073 C 
ENDROOT
BRANCH   1   8
HETATM    8  C6  UNL     1      22.260   0.580  52.868  1.00  0.00    -0.061 C 
HETATM    9  C5  UNL     1      21.121   0.211  52.759  1.00  0.00    -0.036 C 
BRANCH   9  10
HETATM   10  C4  UNL     1      19.752  -0.231  52.606  1.00  0.00     0.131 A 
HETATM   11  O1  UNL     1      19.020  -0.951  53.409  1.00  0.00    -0.302 OA
HETATM   12  C3  UNL     1      17.812  -1.125  52.882  1.00  0.00     0.099 A 
HETATM   13  C2  UNL     1      16.387  -1.532  52.629  1.00  0.00     0.190 A 
HETATM   14  C19 UNL     1      17.773  -0.470  51.661  1.00  0.00     0.065 A 
HETATM   15  N1  UNL     1      16.427  -0.828  51.373  1.00  0.00    -0.377 N 
HETATM   16  C1  UNL     1      15.500  -0.586  50.285  1.00  0.00     0.150 C 
HETATM   17  C18 UNL     1      19.015   0.110  51.472  1.00  0.00     0.078 A 
ENDBRANCH   9  10
ENDBRANCH   1   8
BRANCH   2  18
HETATM   18  C9  UNL     1      23.347   3.100  51.688  1.00  0.00     0.188 C 
HETATM   19  C10 UNL     1      23.466   4.507  51.998  1.00  0.00     0.007 C 
HETATM   20  C11 UNL     1      24.008   5.620  51.464  1.00  0.00    -0.001 C 
HETATM   21  C12 UNL     1      24.729   5.666  50.223  1.00  0.00     0.001 C 
HETATM   22  C13 UNL     1      24.816   4.748  49.282  1.00  0.00     0.019 C 
HETATM   23  C14 UNL     1      24.158   3.455  49.345  1.00  0.00     0.111 C 
HETATM   24  N2  UNL     1      23.578   2.794  50.274  1.00  0.00    -0.286 NA
ENDBRANCH   2  18
TORSDOF 3
ENDMDL
MODEL 7
REMARK VINA RESULT:      -7.6      3.630      9.113
REMARK  3 active torsions:
REMARK  status: ('A' for Active; 'I' for Inactive)
REMARK    1  A    between atoms: C4_6  and  C5_7 
REMARK    2  A    between atoms: C6_8  and  C7_9 
REMARK    3  A    between atoms: C8_10  and  C9_11 
ROOT
HETATM    1  C7  UNL     1      28.023   6.166  48.073  1.00  0.00     0.029 C 
HETATM    2  C8  UNL     1      29.309   6.206  47.750  1.00  0.00     0.089 C 
HETATM    3  O2  UNL     1      29.807   7.239  46.969  1.00  0.00    -0.350 OA
HETATM    4  C15 UNL     1      28.906   8.028  46.231  1.00  0.00     0.196 C 
HETATM    5  C16 UNL     1      27.757   8.423  47.102  1.00  0.00     0.111 C 
HETATM    6 CL1  UNL     1      28.387   9.380  48.463  1.00  0.00    -0.122 Cl
HETATM    7  C17 UNL     1      27.029   7.206  47.647  1.00  0.00     0.073 C 
ENDROOT
BRANCH   1   8
HETATM    8  C6  UNL     1      27.451   5.126  48.876  1.00  0.00    -0.061 C 
HETATM    9  C5  UNL     1      26.958   4.267  49.558  1.00  0.00    -0.036 C 
BRANCH   9  10
HETATM   10  C4  UNL     1      26.383   3.227  50.384  1.00  0.00     0.131 A 
HETATM   11  O1  UNL     1      26.978   2.332  51.120  1.00  0.00    -0.302 OA
HETATM   12  C3  UNL     1      26.071   1.566  51.718  1.00  0.00     0.099 A 
HETATM   13  C2  UNL     1      25.376   0.521  52.547  1.00  0.00     0.190 A 
HETATM   14  C19 UNL     1      24.812   2.005  51.336  1.00  0.00     0.065 A 
HETATM   15  N1  UNL     1      24.106   1.037  52.102  1.00  0.00    -0.377 N 
HETATM   16  C1  UNL     1      22.713   0.713  52.333  1.00  0.00     0.150 C 
HETATM   17  C18 UNL     1      24.999   3.074  50.477  1.00  0.00     0.078 A 
ENDBRANCH   9  10
ENDBRANCH   1   8
BRANCH   2  18
HETATM   18  C9  UNL     1      30.342   5.241  48.135  1.00  0.00     0.188 C 
HETATM   19  C10 UNL     1      31.264   4.752  47.134  1.00  0.00     0.007 C 
HETATM   20  C11 UNL     1      32.568   4.871  46.813  1.00  0.00    -0.001 C 
HETATM   21  C12 UNL     1      33.521   5.665  47.535  1.00  0.00     0.001 C 
HETATM   22  C13 UNL     1      33.399   6.229  48.721  1.00  0.00     0.019 C 
HETATM   23  C14 UNL     1      32.208   6.135  49.546  1.00  0.00     0.111 C 
HETATM   24  N2  UNL     1      31.005   5.751  49.337  1.00  0.00    -0.286 NA
ENDBRANCH   2  18
TORSDOF 3
ENDMDL
MODEL 8
REMARK VINA RESULT:      -7.4      5.078      9.914
REMARK  3 active torsions:
REMARK  status: ('A' for Active; 'I' for Inactive)
REMARK    1  A    between atoms: C4_6  and  C5_7 
REMARK    2  A    between atoms: C6_8  and  C7_9 
REMARK    3  A    between atoms: C8_10  and  C9_11 
ROOT
HETATM    1  C7  UNL     1      30.864   7.120  46.783  1.00  0.00     0.029 C 
HETATM    2  C8  UNL     1      32.006   6.457  46.913  1.00  0.00     0.089 C 
HETATM    3  O2  UNL     1      33.153   6.898  46.269  1.00  0.00    -0.350 OA
HETATM    4  C15 UNL     1      33.027   7.815  45.209  1.00  0.00     0.196 C 
HETATM    5  C16 UNL     1      32.092   8.912  45.606  1.00  0.00     0.111 C 
HETATM    6 CL1  UNL     1      32.774   9.749  47.020  1.00  0.00    -0.122 Cl
HETATM    7  C17 UNL     1      30.720   8.369  45.965  1.00  0.00     0.073 C 
ENDROOT
BRANCH   1   8
HETATM    8  C6  UNL     1      29.648   6.714  47.423  1.00  0.00    -0.061 C 
HETATM    9  C5  UNL     1      28.617   6.379  47.943  1.00  0.00    -0.036 C 
BRANCH   9  10
HETATM   10  C4  UNL     1      27.382   5.986  48.586  1.00  0.00     0.131 A 
HETATM   11  O1  UNL     1      26.362   6.717  48.937  1.00  0.00    -0.302 OA
HETATM   12  C3  UNL     1      25.432   5.953  49.501  1.00  0.00     0.099 A 
HETATM   13  C2  UNL     1      24.185   5.443  50.169  1.00  0.00     0.190 A 
HETATM   14  C19 UNL     1      25.893   4.645  49.510  1.00  0.00     0.065 A 
HETATM   15  N1  UNL     1      24.735   4.112  50.141  1.00  0.00    -0.377 N 
HETATM   16  C1  UNL     1      24.300   2.797  50.569  1.00  0.00     0.150 C 
HETATM   17  C18 UNL     1      27.146   4.653  48.924  1.00  0.00     0.078 A 
ENDBRANCH   9  10
ENDBRANCH   1   8
BRANCH   2  18
HETATM   18  C9  UNL     1      32.232   5.242  47.700  1.00  0.00     0.188 C 
HETATM   19  C10 UNL     1      31.941   3.953  47.114  1.00  0.00     0.007 C 
HETATM   20  C11 UNL     1      32.606   2.871  46.662  1.00  0.00    -0.001 C 
HETATM   21  C12 UNL     1      34.035   2.729  46.661  1.00  0.00     0.001 C 
HETATM   22  C13 UNL     1      34.940   3.468  47.270  1.00  0.00     0.019 C 
HETATM   23  C14 UNL     1      34.626   4.621  48.096  1.00  0.00     0.111 C 
HETATM   24  N2  UNL     1      33.575   5.328  48.278  1.00  0.00    -0.286 NA
ENDBRANCH   2  18
TORSDOF 3
ENDMDL
MODEL 9
REMARK VINA RESULT:      -7.3      4.243      9.678
REMARK  3 active torsions:
REMARK  status: ('A' for Active; 'I' for Inactive)
REMARK    1  A    between atoms: C4_6  and  C5_7 
REMARK    2  A    between atoms: C6_8  and  C7_9 
REMARK    3  A    between atoms: C8_10  and  C9_11 
ROOT
HETATM    1  C7  UNL     1      30.738   5.927  47.833  1.00  0.00     0.029 C 
HETATM    2  C8  UNL     1      31.103   7.169  47.544  1.00  0.00     0.089 C 
HETATM    3  O2  UNL     1      32.420   7.455  47.210  1.00  0.00    -0.350 OA
HETATM    4  C15 UNL     1      33.420   6.518  47.527  1.00  0.00     0.196 C 
HETATM    5  C16 UNL     1      32.972   5.151  47.119  1.00  0.00     0.111 C 
HETATM    6 CL1  UNL     1      32.709   5.147  45.359  1.00  0.00    -0.122 Cl
HETATM    7  C17 UNL     1      31.680   4.760  47.815  1.00  0.00     0.073 C 
ENDROOT
BRANCH   1   8
HETATM    8  C6  UNL     1      29.395   5.570  48.185  1.00  0.00    -0.061 C 
HETATM    9  C5  UNL     1      28.265   5.291  48.486  1.00  0.00    -0.036 C 
BRANCH   9  10
HETATM   10  C4  UNL     1      26.912   4.938  48.859  1.00  0.00     0.131 A 
HETATM   11  O1  UNL     1      25.806   5.608  48.695  1.00  0.00    -0.302 OA
HETATM   12  C3  UNL     1      24.783   4.915  49.184  1.00  0.00     0.099 A 
HETATM   13  C2  UNL     1      23.416   4.455  49.610  1.00  0.00     0.190 A 
HETATM   14  C19 UNL     1      25.271   3.721  49.694  1.00  0.00     0.065 A 
HETATM   15  N1  UNL     1      24.002   3.240  50.117  1.00  0.00    -0.377 N 
HETATM   16  C1  UNL     1      23.513   2.043  50.772  1.00  0.00     0.150 C 
HETATM   17  C18 UNL     1      26.640   3.724  49.491  1.00  0.00     0.078 A 
ENDBRANCH   9  10
ENDBRANCH   1   8
BRANCH   2  18
HETATM   18  C9  UNL     1      30.246   8.357  47.527  1.00  0.00     0.188 C 
HETATM   19  C10 UNL     1      30.128   9.164  48.720  1.00  0.00     0.007 C 
HETATM   20  C11 UNL     1      30.509  10.379  49.163  1.00  0.00    -0.001 C 
HETATM   21  C12 UNL     1      31.265  11.330  48.399  1.00  0.00     0.001 C 
HETATM   22  C13 UNL     1      31.534  11.328  47.109  1.00  0.00     0.019 C 
HETATM   23  C14 UNL     1      31.086  10.299  46.187  1.00  0.00     0.111 C 
HETATM   24  N2  UNL     1      30.580   9.132  46.330  1.00  0.00    -0.286 NA
ENDBRANCH   2  18
TORSDOF 3
ENDMDL
