MODEL 1
REMARK VINA RESULT:      -6.6      0.000      0.000
REMARK  4 active torsions:
REMARK  status: ('A' for Active; 'I' for Inactive)
REMARK    1  A    between atoms: C3_3  and  C4_4 
REMARK    2  A    between atoms: C5_5  and  N1_6 
REMARK    3  A    between atoms: N1_6  and  N2_8 
REMARK    4  A    between atoms: C13_19  and  N7_20 
ROOT
HETATM    1  N2  UNL     1      23.710   3.204  50.964  1.00  0.00    -0.268 N 
HETATM    2  C7  UNL     1      22.540   3.081  50.136  1.00  0.00     0.229 C 
HETATM    3  N3  UNL     1      22.839   2.120  49.336  1.00  0.00    -0.234 NA
HETATM    4  C8  UNL     1      21.876   1.733  48.367  1.00  0.00     0.255 C 
HETATM    5  N4  UNL     1      21.143   0.935  49.115  1.00  0.00    -0.171 NA
HETATM    6  N5  UNL     1      21.545   0.778  50.469  1.00  0.00    -0.295 N 
HETATM    7  C9  UNL     1      21.208   0.613  51.844  1.00  0.00     0.263 C 
HETATM    8  N6  UNL     1      22.113   1.335  52.756  1.00  0.00    -0.374 N 
HETATM    9  C10 UNL     1      23.552   1.379  52.583  1.00  0.00     0.037 A 
HETATM   10  C11 UNL     1      24.542   0.484  52.728  1.00  0.00     0.029 A 
HETATM   11  C12 UNL     1      25.910   0.970  52.434  1.00  0.00     0.029 A 
HETATM   12  C13 UNL     1      25.657   2.227  52.104  1.00  0.00     0.034 A 
HETATM   13  C14 UNL     1      24.264   2.645  52.170  1.00  0.00     0.207 A 
HETATM   14  H13 UNL     1      22.607   0.701  50.539  1.00  0.00     0.184 HD
HETATM   15  H16 UNL     1      22.162   1.905  53.615  1.00  0.00     0.161 HD
ENDROOT
BRANCH   1  16
HETATM   16  N1  UNL     1      24.479   4.205  50.324  1.00  0.00    -0.304 N 
HETATM   17  C6  UNL     1      24.098   5.438  51.021  1.00  0.00     0.177 C 
BRANCH  16  18
HETATM   18  C5  UNL     1      25.438   4.374  49.290  1.00  0.00     0.110 C 
HETATM   19  C4  UNL     1      26.149   5.487  49.314  1.00  0.00     0.018 C 
BRANCH  19  20
HETATM   20  C3  UNL     1      27.206   6.122  48.535  1.00  0.00    -0.003 C 
HETATM   21  C2  UNL     1      28.469   5.945  48.199  1.00  0.00    -0.031 C 
HETATM   22  C1  UNL     1      29.088   6.968  47.329  1.00  0.00     0.036 C 
ENDBRANCH  19  20
ENDBRANCH  16  18
ENDBRANCH   1  16
BRANCH  12  23
HETATM   23  N7  UNL     1      26.873   2.890  51.773  1.00  0.00    -0.400 N 
HETATM   24  H19 UNL     1      27.818   2.451  51.690  1.00  0.00     0.156 HD
HETATM   25  H20 UNL     1      26.922   3.913  51.576  1.00  0.00     0.156 HD
ENDBRANCH  12  23
TORSDOF 4
ENDMDL
MODEL 2
REMARK VINA RESULT:      -6.4      3.489      4.607
REMARK  4 active torsions:
REMARK  status: ('A' for Active; 'I' for Inactive)
REMARK    1  A    between atoms: C3_3  and  C4_4 
REMARK    2  A    between atoms: C5_5  and  N1_6 
REMARK    3  A    between atoms: N1_6  and  N2_8 
REMARK    4  A    between atoms: C13_19  and  N7_20 
ROOT
HETATM    1  N2  UNL     1      22.808   1.723  52.273  1.00  0.00    -0.268 N 
HETATM    2  C7  UNL     1      22.655   2.413  51.020  1.00  0.00     0.229 C 
HETATM    3  N3  UNL     1      22.510   1.459  50.169  1.00  0.00    -0.234 NA
HETATM    4  C8  UNL     1      22.328   1.805  48.804  1.00  0.00     0.255 C 
HETATM    5  N4  UNL     1      21.033   2.037  48.822  1.00  0.00    -0.171 NA
HETATM    6  N5  UNL     1      20.372   1.876  50.070  1.00  0.00    -0.295 N 
HETATM    7  C9  UNL     1      19.373   2.291  51.000  1.00  0.00     0.263 C 
HETATM    8  N6  UNL     1      19.804   2.181  52.404  1.00  0.00    -0.374 N 
HETATM    9  C10 UNL     1      20.550   1.051  52.924  1.00  0.00     0.037 A 
HETATM   10  C11 UNL     1      20.249  -0.231  53.188  1.00  0.00     0.029 A 
HETATM   11  C12 UNL     1      21.351  -1.063  53.725  1.00  0.00     0.029 A 
HETATM   12  C13 UNL     1      22.331  -0.175  53.763  1.00  0.00     0.034 A 
HETATM   13  C14 UNL     1      21.999   1.175  53.331  1.00  0.00     0.207 A 
HETATM   14  H13 UNL     1      20.736   1.012  50.581  1.00  0.00     0.184 HD
HETATM   15  H16 UNL     1      19.783   2.639  53.329  1.00  0.00     0.161 HD
ENDROOT
BRANCH   1  16
HETATM   16  N1  UNL     1      24.210   1.603  52.427  1.00  0.00    -0.304 N 
HETATM   17  C6  UNL     1      24.575   2.771  53.235  1.00  0.00     0.177 C 
BRANCH  16  18
HETATM   18  C5  UNL     1      25.297   0.760  52.070  1.00  0.00     0.110 C 
HETATM   19  C4  UNL     1      26.345   0.769  52.874  1.00  0.00     0.018 C 
BRANCH  19  20
HETATM   20  C3  UNL     1      27.652   0.129  52.967  1.00  0.00    -0.003 C 
HETATM   21  C2  UNL     1      28.468  -0.395  53.862  1.00  0.00    -0.031 C 
HETATM   22  C1  UNL     1      29.752  -0.938  53.371  1.00  0.00     0.036 C 
ENDBRANCH  19  20
ENDBRANCH  16  18
ENDBRANCH   1  16
BRANCH  12  23
HETATM   23  N7  UNL     1      23.516  -0.790  54.260  1.00  0.00    -0.400 N 
HETATM   24  H19 UNL     1      23.938  -0.652  55.206  1.00  0.00     0.156 HD
HETATM   25  H20 UNL     1      24.084  -1.458  53.696  1.00  0.00     0.156 HD
ENDBRANCH  12  23
TORSDOF 4
ENDMDL
MODEL 3
REMARK VINA RESULT:      -6.1      8.896     11.194
REMARK  4 active torsions:
REMARK  status: ('A' for Active; 'I' for Inactive)
REMARK    1  A    between atoms: C3_3  and  C4_4 
REMARK    2  A    between atoms: C5_5  and  N1_6 
REMARK    3  A    between atoms: N1_6  and  N2_8 
REMARK    4  A    between atoms: C13_19  and  N7_20 
ROOT
HETATM    1  N2  UNL     1      33.233   7.302  47.321  1.00  0.00    -0.268 N 
HETATM    2  C7  UNL     1      33.503   7.180  45.912  1.00  0.00     0.229 C 
HETATM    3  N3  UNL     1      32.333   7.067  45.391  1.00  0.00    -0.234 NA
HETATM    4  C8  UNL     1      32.242   6.929  43.981  1.00  0.00     0.255 C 
HETATM    5  N4  UNL     1      32.311   8.199  43.646  1.00  0.00    -0.171 NA
HETATM    6  N5  UNL     1      32.441   9.135  44.708  1.00  0.00    -0.295 N 
HETATM    7  C9  UNL     1      32.984  10.348  45.223  1.00  0.00     0.263 C 
HETATM    8  N6  UNL     1      33.341  10.267  46.650  1.00  0.00    -0.374 N 
HETATM    9  C10 UNL     1      32.511   9.614  47.645  1.00  0.00     0.037 A 
HETATM   10  C11 UNL     1      31.335   9.907  48.223  1.00  0.00     0.029 A 
HETATM   11  C12 UNL     1      30.836   8.929  49.217  1.00  0.00     0.029 A 
HETATM   12  C13 UNL     1      31.808   8.032  49.187  1.00  0.00     0.034 A 
HETATM   13  C14 UNL     1      32.923   8.316  48.295  1.00  0.00     0.207 A 
HETATM   14  H13 UNL     1      31.814   8.863  45.528  1.00  0.00     0.184 HD
HETATM   15  H16 UNL     1      34.043  10.534  47.358  1.00  0.00     0.161 HD
ENDROOT
BRANCH   1  16
HETATM   16  N1  UNL     1      33.334   5.975  47.804  1.00  0.00    -0.304 N 
HETATM   17  C6  UNL     1      34.694   5.903  48.346  1.00  0.00     0.177 C 
BRANCH  16  18
HETATM   18  C5  UNL     1      32.579   4.777  47.920  1.00  0.00     0.110 C 
HETATM   19  C4  UNL     1      32.895   3.793  47.097  1.00  0.00     0.018 C 
BRANCH  19  20
HETATM   20  C3  UNL     1      32.462   2.430  46.812  1.00  0.00    -0.003 C 
HETATM   21  C2  UNL     1      32.582   1.204  47.285  1.00  0.00    -0.031 C 
HETATM   22  C1  UNL     1      31.886   0.125  46.553  1.00  0.00     0.036 C 
ENDBRANCH  19  20
ENDBRANCH  16  18
ENDBRANCH   1  16
BRANCH  12  23
HETATM   23  N7  UNL     1      31.513   6.975  50.095  1.00  0.00    -0.400 N 
HETATM   24  H19 UNL     1      32.180   6.523  50.760  1.00  0.00     0.156 HD
HETATM   25  H20 UNL     1      30.565   6.548  50.174  1.00  0.00     0.156 HD
ENDBRANCH  12  23
TORSDOF 4
ENDMDL
MODEL 4
REMARK VINA RESULT:      -6.0      1.811      3.622
REMARK  4 active torsions:
REMARK  status: ('A' for Active; 'I' for Inactive)
REMARK    1  A    between atoms: C3_3  and  C4_4 
REMARK    2  A    between atoms: C5_5  and  N1_6 
REMARK    3  A    between atoms: N1_6  and  N2_8 
REMARK    4  A    between atoms: C13_19  and  N7_20 
ROOT
HETATM    1  N2  UNL     1      23.438   1.896  51.107  1.00  0.00    -0.268 N 
HETATM    2  C7  UNL     1      24.553   1.148  51.626  1.00  0.00     0.229 C 
HETATM    3  N3  UNL     1      24.771   1.693  52.770  1.00  0.00    -0.234 NA
HETATM    4  C8  UNL     1      25.830   1.177  53.563  1.00  0.00     0.255 C 
HETATM    5  N4  UNL     1      25.195   0.168  54.121  1.00  0.00    -0.171 NA
HETATM    6  N5  UNL     1      23.833  -0.011  53.757  1.00  0.00    -0.295 N 
HETATM    7  C9  UNL     1      22.738  -0.876  53.467  1.00  0.00     0.263 C 
HETATM    8  N6  UNL     1      21.870  -0.375  52.387  1.00  0.00    -0.374 N 
HETATM    9  C10 UNL     1      21.472   1.015  52.262  1.00  0.00     0.037 A 
HETATM   10  C11 UNL     1      20.644   1.819  52.948  1.00  0.00     0.029 A 
HETATM   11  C12 UNL     1      20.535   3.213  52.460  1.00  0.00     0.029 A 
HETATM   12  C13 UNL     1      21.363   3.176  51.428  1.00  0.00     0.034 A 
HETATM   13  C14 UNL     1      21.999   1.895  51.154  1.00  0.00     0.207 A 
HETATM   14  H13 UNL     1      23.332   0.929  53.698  1.00  0.00     0.184 HD
HETATM   15  H16 UNL     1      21.326  -0.643  51.552  1.00  0.00     0.161 HD
ENDROOT
BRANCH   1  16
HETATM   16  N1  UNL     1      24.041   2.906  50.320  1.00  0.00    -0.304 N 
HETATM   17  C6  UNL     1      23.469   2.697  48.985  1.00  0.00     0.177 C 
BRANCH  16  18
HETATM   18  C5  UNL     1      24.960   3.984  50.414  1.00  0.00     0.110 C 
HETATM   19  C4  UNL     1      25.680   4.249  49.338  1.00  0.00     0.018 C 
BRANCH  19  20
HETATM   20  C3  UNL     1      26.709   5.193  48.920  1.00  0.00    -0.003 C 
HETATM   21  C2  UNL     1      27.975   5.220  48.547  1.00  0.00    -0.031 C 
HETATM   22  C1  UNL     1      28.554   6.539  48.215  1.00  0.00     0.036 C 
ENDBRANCH  19  20
ENDBRANCH  16  18
ENDBRANCH   1  16
BRANCH  12  23
HETATM   23  N7  UNL     1      21.408   4.455  50.804  1.00  0.00    -0.400 N 
HETATM   24  H19 UNL     1      21.224   5.376  51.260  1.00  0.00     0.156 HD
HETATM   25  H20 UNL     1      21.641   4.582  49.795  1.00  0.00     0.156 HD
ENDBRANCH  12  23
TORSDOF 4
ENDMDL
MODEL 5
REMARK VINA RESULT:      -6.0      2.587      7.192
REMARK  4 active torsions:
REMARK  status: ('A' for Active; 'I' for Inactive)
REMARK    1  A    between atoms: C3_3  and  C4_4 
REMARK    2  A    between atoms: C5_5  and  N1_6 
REMARK    3  A    between atoms: N1_6  and  N2_8 
REMARK    4  A    between atoms: C13_19  and  N7_20 
ROOT
HETATM    1  N2  UNL     1      22.394   2.098  52.004  1.00  0.00    -0.268 N 
HETATM    2  C7  UNL     1      23.132   1.420  53.036  1.00  0.00     0.229 C 
HETATM    3  N3  UNL     1      23.612   0.389  52.434  1.00  0.00    -0.234 NA
HETATM    4  C8  UNL     1      24.412  -0.510  53.187  1.00  0.00     0.255 C 
HETATM    5  N4  UNL     1      25.564   0.122  53.105  1.00  0.00    -0.171 NA
HETATM    6  N5  UNL     1      25.573   1.342  52.374  1.00  0.00    -0.295 N 
HETATM    7  C9  UNL     1      26.050   2.674  52.205  1.00  0.00     0.263 C 
HETATM    8  N6  UNL     1      25.020   3.603  51.708  1.00  0.00    -0.374 N 
HETATM    9  C10 UNL     1      24.074   3.262  50.663  1.00  0.00     0.037 A 
HETATM   10  C11 UNL     1      24.169   3.069  49.338  1.00  0.00     0.029 A 
HETATM   11  C12 UNL     1      22.911   2.722  48.637  1.00  0.00     0.029 A 
HETATM   12  C13 UNL     1      22.059   2.724  49.649  1.00  0.00     0.034 A 
HETATM   13  C14 UNL     1      22.606   3.062  50.955  1.00  0.00     0.207 A 
HETATM   14  H13 UNL     1      24.980   1.256  51.490  1.00  0.00     0.184 HD
HETATM   15  H16 UNL     1      24.634   4.556  51.797  1.00  0.00     0.161 HD
ENDROOT
BRANCH   1  16
HETATM   16  N1  UNL     1      21.073   1.610  52.151  1.00  0.00    -0.304 N 
HETATM   17  C6  UNL     1      20.348   2.738  52.744  1.00  0.00     0.177 C 
BRANCH  16  18
HETATM   18  C5  UNL     1      20.288   0.449  51.918  1.00  0.00     0.110 C 
HETATM   19  C4  UNL     1      19.791  -0.156  52.982  1.00  0.00     0.018 C 
BRANCH  19  20
HETATM   20  C3  UNL     1      18.964  -1.318  53.288  1.00  0.00    -0.003 C 
HETATM   21  C2  UNL     1      17.723  -1.748  53.156  1.00  0.00    -0.031 C 
HETATM   22  C1  UNL     1      17.415  -3.095  53.680  1.00  0.00     0.036 C 
ENDBRANCH  19  20
ENDBRANCH  16  18
ENDBRANCH   1  16
BRANCH  12  23
HETATM   23  N7  UNL     1      20.755   2.400  49.178  1.00  0.00    -0.400 N 
HETATM   24  H19 UNL     1      19.856   2.534  49.694  1.00  0.00     0.156 HD
HETATM   25  H20 UNL     1      20.582   1.984  48.237  1.00  0.00     0.156 HD
ENDBRANCH  12  23
TORSDOF 4
ENDMDL
MODEL 6
REMARK VINA RESULT:      -5.9      2.200      2.398
REMARK  4 active torsions:
REMARK  status: ('A' for Active; 'I' for Inactive)
REMARK    1  A    between atoms: C3_3  and  C4_4 
REMARK    2  A    between atoms: C5_5  and  N1_6 
REMARK    3  A    between atoms: N1_6  and  N2_8 
REMARK    4  A    between atoms: C13_19  and  N7_20 
ROOT
HETATM    1  N2  UNL     1      23.539   2.753  51.995  1.00  0.00    -0.268 N 
HETATM    2  C7  UNL     1      22.161   2.479  51.683  1.00  0.00     0.229 C 
HETATM    3  N3  UNL     1      22.232   1.772  50.612  1.00  0.00    -0.234 NA
HETATM    4  C8  UNL     1      21.019   1.321  50.028  1.00  0.00     0.255 C 
HETATM    5  N4  UNL     1      20.820   0.251  50.768  1.00  0.00    -0.171 NA
HETATM    6  N5  UNL     1      21.789  -0.022  51.770  1.00  0.00    -0.295 N 
HETATM    7  C9  UNL     1      22.114  -0.494  53.076  1.00  0.00     0.263 C 
HETATM    8  N6  UNL     1      23.197   0.270  53.719  1.00  0.00    -0.374 N 
HETATM    9  C10 UNL     1      24.391   0.705  53.020  1.00  0.00     0.037 A 
HETATM   10  C11 UNL     1      25.474   0.077  52.534  1.00  0.00     0.029 A 
HETATM   11  C12 UNL     1      26.483   0.934  51.870  1.00  0.00     0.029 A 
HETATM   12  C13 UNL     1      25.916   2.123  51.999  1.00  0.00     0.034 A 
HETATM   13  C14 UNL     1      24.642   2.159  52.704  1.00  0.00     0.207 A 
HETATM   14  H13 UNL     1      22.774   0.160  51.402  1.00  0.00     0.184 HD
HETATM   15  H16 UNL     1      23.523   0.683  54.607  1.00  0.00     0.161 HD
ENDROOT
BRANCH   1  16
HETATM   16  N1  UNL     1      23.784   4.008  51.388  1.00  0.00    -0.304 N 
HETATM   17  C6  UNL     1      23.536   4.973  52.465  1.00  0.00     0.177 C 
BRANCH  16  18
HETATM   18  C5  UNL     1      24.170   4.583  50.148  1.00  0.00     0.110 C 
HETATM   19  C4  UNL     1      23.222   5.179  49.447  1.00  0.00     0.018 C 
BRANCH  19  20
HETATM   20  C3  UNL     1      23.086   5.890  48.181  1.00  0.00    -0.003 C 
HETATM   21  C2  UNL     1      23.684   6.827  47.470  1.00  0.00    -0.031 C 
HETATM   22  C1  UNL     1      23.076   7.181  46.170  1.00  0.00     0.036 C 
ENDBRANCH  19  20
ENDBRANCH  16  18
ENDBRANCH   1  16
BRANCH  12  23
HETATM   23  N7  UNL     1      26.745   3.117  51.405  1.00  0.00    -0.400 N 
HETATM   24  H19 UNL     1      27.653   3.473  51.779  1.00  0.00     0.156 HD
HETATM   25  H20 UNL     1      26.503   3.590  50.508  1.00  0.00     0.156 HD
ENDBRANCH  12  23
TORSDOF 4
ENDMDL
MODEL 7
REMARK VINA RESULT:      -5.8      5.893      9.933
REMARK  4 active torsions:
REMARK  status: ('A' for Active; 'I' for Inactive)
REMARK    1  A    between atoms: C3_3  and  C4_4 
REMARK    2  A    between atoms: C5_5  and  N1_6 
REMARK    3  A    between atoms: N1_6  and  N2_8 
REMARK    4  A    between atoms: C13_19  and  N7_20 
ROOT
HETATM    1  N2  UNL     1      28.530   9.949  47.379  1.00  0.00    -0.268 N 
HETATM    2  C7  UNL     1      27.344  10.653  46.967  1.00  0.00     0.229 C 
HETATM    3  N3  UNL     1      26.801  11.000  48.080  1.00  0.00    -0.234 NA
HETATM    4  C8  UNL     1      25.586  11.733  48.030  1.00  0.00     0.255 C 
HETATM    5  N4  UNL     1      26.081  12.939  47.850  1.00  0.00    -0.171 NA
HETATM    6  N5  UNL     1      27.496  13.045  47.778  1.00  0.00    -0.295 N 
HETATM    7  C9  UNL     1      28.661  13.651  47.221  1.00  0.00     0.263 C 
HETATM    8  N6  UNL     1      29.772  12.703  47.023  1.00  0.00    -0.374 N 
HETATM    9  C10 UNL     1      30.136  11.686  47.991  1.00  0.00     0.037 A 
HETATM   10  C11 UNL     1      30.715  11.709  49.202  1.00  0.00     0.029 A 
HETATM   11  C12 UNL     1      30.901  10.396  49.862  1.00  0.00     0.029 A 
HETATM   12  C13 UNL     1      30.389   9.589  48.947  1.00  0.00     0.034 A 
HETATM   13  C14 UNL     1      29.900  10.219  47.729  1.00  0.00     0.207 A 
HETATM   14  H13 UNL     1      27.959  12.413  48.503  1.00  0.00     0.184 HD
HETATM   15  H16 UNL     1      30.533  12.420  46.386  1.00  0.00     0.161 HD
ENDROOT
BRANCH   1  16
HETATM   16  N1  UNL     1      28.128   8.592  47.409  1.00  0.00    -0.304 N 
HETATM   17  C6  UNL     1      28.704   8.029  46.183  1.00  0.00     0.177 C 
BRANCH  16  18
HETATM   18  C5  UNL     1      27.394   7.671  48.202  1.00  0.00     0.110 C 
HETATM   19  C4  UNL     1      27.749   6.401  48.122  1.00  0.00     0.018 C 
BRANCH  19  20
HETATM   20  C3  UNL     1      27.350   5.119  48.691  1.00  0.00    -0.003 C 
HETATM   21  C2  UNL     1      26.334   4.555  49.316  1.00  0.00    -0.031 C 
HETATM   22  C1  UNL     1      26.474   3.132  49.688  1.00  0.00     0.036 C 
ENDBRANCH  19  20
ENDBRANCH  16  18
ENDBRANCH   1  16
BRANCH  12  23
HETATM   23  N7  UNL     1      30.468   8.240  49.399  1.00  0.00    -0.400 N 
HETATM   24  H19 UNL     1      30.285   7.383  48.832  1.00  0.00     0.156 HD
HETATM   25  H20 UNL     1      30.728   7.988  50.378  1.00  0.00     0.156 HD
ENDBRANCH  12  23
TORSDOF 4
ENDMDL
MODEL 8
REMARK VINA RESULT:      -5.8      7.194     10.165
REMARK  4 active torsions:
REMARK  status: ('A' for Active; 'I' for Inactive)
REMARK    1  A    between atoms: C3_3  and  C4_4 
REMARK    2  A    between atoms: C5_5  and  N1_6 
REMARK    3  A    between atoms: N1_6  and  N2_8 
REMARK    4  A    between atoms: C13_19  and  N7_20 
ROOT
HETATM    1  N2  UNL     1      30.443   9.364  48.454  1.00  0.00    -0.268 N 
HETATM    2  C7  UNL     1      31.303  10.218  47.678  1.00  0.00     0.229 C 
HETATM    3  N3  UNL     1      30.725  10.261  46.530  1.00  0.00    -0.234 NA
HETATM    4  C8  UNL     1      31.329  11.040  45.508  1.00  0.00     0.255 C 
HETATM    5  N4  UNL     1      30.846  12.220  45.838  1.00  0.00    -0.171 NA
HETATM    6  N5  UNL     1      29.995  12.267  46.975  1.00  0.00    -0.295 N 
HETATM    7  C9  UNL     1      29.530  12.944  48.141  1.00  0.00     0.263 C 
HETATM    8  N6  UNL     1      29.231  12.035  49.261  1.00  0.00    -0.374 N 
HETATM    9  C10 UNL     1      28.547  10.766  49.099  1.00  0.00     0.037 A 
HETATM   10  C11 UNL     1      27.284  10.411  48.814  1.00  0.00     0.029 A 
HETATM   11  C12 UNL     1      27.016   8.956  48.741  1.00  0.00     0.029 A 
HETATM   12  C13 UNL     1      28.219   8.472  49.006  1.00  0.00     0.034 A 
HETATM   13  C14 UNL     1      29.264   9.449  49.276  1.00  0.00     0.207 A 
HETATM   14  H13 UNL     1      29.332  11.430  46.984  1.00  0.00     0.184 HD
HETATM   15  H16 UNL     1      29.304  11.907  50.282  1.00  0.00     0.161 HD
ENDROOT
BRANCH   1  16
HETATM   16  N1  UNL     1      31.017   8.079  48.308  1.00  0.00    -0.304 N 
HETATM   17  C6  UNL     1      31.713   7.861  49.581  1.00  0.00     0.177 C 
BRANCH  16  18
HETATM   18  C5  UNL     1      31.119   7.009  47.380  1.00  0.00     0.110 C 
HETATM   19  C4  UNL     1      31.383   5.813  47.877  1.00  0.00     0.018 C 
BRANCH  19  20
HETATM   20  C3  UNL     1      31.581   4.451  47.393  1.00  0.00    -0.003 C 
HETATM   21  C2  UNL     1      32.550   3.591  47.143  1.00  0.00    -0.031 C 
HETATM   22  C1  UNL     1      32.157   2.260  46.632  1.00  0.00     0.036 C 
ENDBRANCH  19  20
ENDBRANCH  16  18
ENDBRANCH   1  16
BRANCH  12  23
HETATM   23  N7  UNL     1      28.179   7.049  48.981  1.00  0.00    -0.400 N 
HETATM   24  H19 UNL     1      27.601   6.454  48.346  1.00  0.00     0.156 HD
HETATM   25  H20 UNL     1      28.752   6.457  49.622  1.00  0.00     0.156 HD
ENDBRANCH  12  23
TORSDOF 4
ENDMDL
MODEL 9
REMARK VINA RESULT:      -5.8      2.305      6.760
REMARK  4 active torsions:
REMARK  status: ('A' for Active; 'I' for Inactive)
REMARK    1  A    between atoms: C3_3  and  C4_4 
REMARK    2  A    between atoms: C5_5  and  N1_6 
REMARK    3  A    between atoms: N1_6  and  N2_8 
REMARK    4  A    between atoms: C13_19  and  N7_20 
ROOT
HETATM    1  N2  UNL     1      23.434   4.551  50.458  1.00  0.00    -0.268 N 
HETATM    2  C7  UNL     1      24.806   4.312  50.818  1.00  0.00     0.229 C 
HETATM    3  N3  UNL     1      25.206   3.470  49.932  1.00  0.00    -0.234 NA
HETATM    4  C8  UNL     1      26.550   3.018  50.001  1.00  0.00     0.255 C 
HETATM    5  N4  UNL     1      27.134   4.016  49.372  1.00  0.00    -0.171 NA
HETATM    6  N5  UNL     1      26.291   5.063  48.912  1.00  0.00    -0.295 N 
HETATM    7  C9  UNL     1      26.068   6.450  48.670  1.00  0.00     0.263 C 
HETATM    8  N6  UNL     1      24.684   6.874  48.943  1.00  0.00    -0.374 N 
HETATM    9  C10 UNL     1      23.521   6.094  48.564  1.00  0.00     0.037 A 
HETATM   10  C11 UNL     1      22.926   5.804  47.396  1.00  0.00     0.029 A 
HETATM   11  C12 UNL     1      21.723   4.943  47.472  1.00  0.00     0.029 A 
HETATM   12  C13 UNL     1      21.648   4.744  48.778  1.00  0.00     0.034 A 
HETATM   13  C14 UNL     1      22.659   5.403  49.593  1.00  0.00     0.207 A 
HETATM   14  H13 UNL     1      25.389   4.668  48.502  1.00  0.00     0.184 HD
HETATM   15  H16 UNL     1      24.097   7.622  49.345  1.00  0.00     0.161 HD
ENDROOT
BRANCH   1  16
HETATM   16  N1  UNL     1      22.706   3.632  51.251  1.00  0.00    -0.304 N 
HETATM   17  C6  UNL     1      22.086   4.472  52.281  1.00  0.00     0.177 C 
BRANCH  16  18
HETATM   18  C5  UNL     1      22.410   2.246  51.352  1.00  0.00     0.110 C 
HETATM   19  C4  UNL     1      22.230   1.763  52.568  1.00  0.00     0.018 C 
BRANCH  19  20
HETATM   20  C3  UNL     1      21.921   0.485  53.198  1.00  0.00    -0.003 C 
HETATM   21  C2  UNL     1      21.505  -0.008  54.349  1.00  0.00    -0.031 C 
HETATM   22  C1  UNL     1      21.356  -1.476  54.442  1.00  0.00     0.036 C 
ENDBRANCH  19  20
ENDBRANCH  16  18
ENDBRANCH   1  16
BRANCH  12  23
HETATM   23  N7  UNL     1      20.529   3.913  49.073  1.00  0.00    -0.400 N 
HETATM   24  H19 UNL     1      20.396   3.331  49.930  1.00  0.00     0.156 HD
HETATM   25  H20 UNL     1      19.715   3.814  48.428  1.00  0.00     0.156 HD
ENDBRANCH  12  23
TORSDOF 4
ENDMDL
