MODEL 1
REMARK VINA RESULT:      -8.0      0.000      0.000
REMARK  10 active torsions:
REMARK  status: ('A' for Active; 'I' for Inactive)
REMARK    1  A    between atoms: C3_3  and  C4_4 
REMARK    2  A    between atoms: C5_5  and  C6_6 
REMARK    3  A    between atoms: C7_7  and  C8_8 
REMARK    4  A    between atoms: C8_8  and  N1_9 
REMARK    5  A    between atoms: N1_9  and  C9_10 
REMARK    6  A    between atoms: N1_9  and  C18_20 
REMARK    7  A    between atoms: C9_10  and  C10_11 
REMARK    8  A    between atoms: C17_18  and  O1_19 
REMARK    9  A    between atoms: C18_20  and  N2_22 
REMARK   10  A    between atoms: N2_22  and  C19_23 
ROOT
HETATM    1  N1  UNL     1      24.109   2.238  51.788  1.00  0.00    -0.350 N 
ENDROOT
BRANCH   1   2
HETATM    2  C8  UNL     1      24.619   2.516  50.460  1.00  0.00     0.153 C 
BRANCH   2   3
HETATM    3  C7  UNL     1      25.281   3.821  50.313  1.00  0.00    -0.007 C 
HETATM    4  C6  UNL     1      25.051   4.634  49.265  1.00  0.00    -0.002 C 
BRANCH   4   5
HETATM    5  C5  UNL     1      25.646   5.921  49.033  1.00  0.00    -0.000 C 
HETATM    6  C4  UNL     1      26.879   6.195  48.696  1.00  0.00    -0.000 C 
BRANCH   6   7
HETATM    7  C3  UNL     1      27.948   5.255  48.473  1.00  0.00    -0.004 C 
HETATM    8  C2  UNL     1      29.207   5.553  48.223  1.00  0.00    -0.031 C 
HETATM    9  C1  UNL     1      29.510   7.007  48.176  1.00  0.00     0.036 C 
ENDBRANCH   6   7
ENDBRANCH   4   5
ENDBRANCH   2   3
ENDBRANCH   1   2
BRANCH   1  10
HETATM   10  C9  UNL     1      24.890   2.271  52.982  1.00  0.00     0.167 C 
BRANCH  10  11
HETATM   11  C10 UNL     1      25.988   1.287  53.070  1.00  0.00    -0.006 A 
HETATM   12  C11 UNL     1      25.873  -0.035  52.620  1.00  0.00     0.018 A 
HETATM   13  C12 UNL     1      26.924  -0.934  52.711  1.00  0.00    -0.061 A 
HETATM   14  C13 UNL     1      26.803  -2.335  52.233  1.00  0.00     0.048 C 
HETATM   15  C14 UNL     1      28.081  -0.445  53.269  1.00  0.00     0.016 A 
HETATM   16  C15 UNL     1      28.296   0.831  53.740  1.00  0.00    -0.028 A 
HETATM   17  C16 UNL     1      29.595   1.251  54.325  1.00  0.00     0.051 C 
HETATM   18  C17 UNL     1      27.221   1.653  53.617  1.00  0.00     0.079 A 
BRANCH  18  19
HETATM   19  O1  UNL     1      27.321   2.977  54.063  1.00  0.00    -0.360 OA
HETATM   20  H22 UNL     1      27.682   3.634  53.379  1.00  0.00     0.217 HD
ENDBRANCH  18  19
ENDBRANCH  10  11
ENDBRANCH   1  10
BRANCH   1  21
HETATM   21  C18 UNL     1      22.702   1.901  51.899  1.00  0.00     0.174 C 
HETATM   22  S1  UNL     1      21.577   3.113  52.010  1.00  0.00    -0.041 SA
BRANCH  21  23
HETATM   23  N2  UNL     1      22.086   0.597  51.929  1.00  0.00    -0.333 N 
HETATM   24  H23 UNL     1      21.754   0.063  51.072  1.00  0.00     0.168 HD
BRANCH  23  25
HETATM   25  C19 UNL     1      21.822  -0.180  53.098  1.00  0.00     0.034 A 
HETATM   26  C20 UNL     1      20.797  -0.655  53.742  1.00  0.00     0.029 A 
HETATM   27  C21 UNL     1      21.692  -1.258  54.735  1.00  0.00     0.004 A 
HETATM   28  C22 UNL     1      22.729  -0.784  54.094  1.00  0.00     0.029 A 
ENDBRANCH  23  25
ENDBRANCH  21  23
ENDBRANCH   1  21
TORSDOF 10
ENDMDL
MODEL 2
REMARK VINA RESULT:      -7.8      2.487      5.657
REMARK  10 active torsions:
REMARK  status: ('A' for Active; 'I' for Inactive)
REMARK    1  A    between atoms: C3_3  and  C4_4 
REMARK    2  A    between atoms: C5_5  and  C6_6 
REMARK    3  A    between atoms: C7_7  and  C8_8 
REMARK    4  A    between atoms: C8_8  and  N1_9 
REMARK    5  A    between atoms: N1_9  and  C9_10 
REMARK    6  A    between atoms: N1_9  and  C18_20 
REMARK    7  A    between atoms: C9_10  and  C10_11 
REMARK    8  A    between atoms: C17_18  and  O1_19 
REMARK    9  A    between atoms: C18_20  and  N2_22 
REMARK   10  A    between atoms: N2_22  and  C19_23 
ROOT
HETATM    1  N1  UNL     1      25.521   0.971  52.321  1.00  0.00    -0.350 N 
ENDROOT
BRANCH   1   2
HETATM    2  C8  UNL     1      26.410   1.377  51.252  1.00  0.00     0.153 C 
BRANCH   2   3
HETATM    3  C7  UNL     1      26.399   2.817  50.950  1.00  0.00    -0.007 C 
HETATM    4  C6  UNL     1      26.497   3.293  49.695  1.00  0.00    -0.002 C 
BRANCH   4   5
HETATM    5  C5  UNL     1      26.495   4.676  49.301  1.00  0.00    -0.000 C 
HETATM    6  C4  UNL     1      25.476   5.421  48.966  1.00  0.00    -0.000 C 
BRANCH   6   7
HETATM    7  C3  UNL     1      24.091   5.027  48.913  1.00  0.00    -0.004 C 
HETATM    8  C2  UNL     1      23.201   5.178  49.873  1.00  0.00    -0.031 C 
HETATM    9  C1  UNL     1      23.716   5.820  51.110  1.00  0.00     0.036 C 
ENDBRANCH   6   7
ENDBRANCH   4   5
ENDBRANCH   2   3
ENDBRANCH   1   2
BRANCH   1  10
HETATM   10  C9  UNL     1      24.324   1.656  52.686  1.00  0.00     0.167 C 
BRANCH  10  11
HETATM   11  C10 UNL     1      23.141   1.399  51.840  1.00  0.00    -0.006 A 
HETATM   12  C11 UNL     1      23.106   1.673  50.466  1.00  0.00     0.018 A 
HETATM   13  C12 UNL     1      21.982   1.414  49.696  1.00  0.00    -0.061 A 
HETATM   14  C13 UNL     1      21.943   1.705  48.240  1.00  0.00     0.048 C 
HETATM   15  C14 UNL     1      20.912   0.873  50.366  1.00  0.00     0.016 A 
HETATM   16  C15 UNL     1      20.845   0.566  51.707  1.00  0.00    -0.028 A 
HETATM   17  C16 UNL     1      19.628  -0.021  52.326  1.00  0.00     0.051 C 
HETATM   18  C17 UNL     1      21.983   0.848  52.394  1.00  0.00     0.079 A 
BRANCH  18  19
HETATM   19  O1  UNL     1      22.034   0.579  53.769  1.00  0.00    -0.360 OA
HETATM   20  H22 UNL     1      22.548  -0.258  54.023  1.00  0.00     0.217 HD
ENDBRANCH  18  19
ENDBRANCH  10  11
ENDBRANCH   1  10
BRANCH   1  21
HETATM   21  C18 UNL     1      25.886  -0.217  53.069  1.00  0.00     0.174 C 
HETATM   22  S1  UNL     1      25.126  -0.546  54.505  1.00  0.00    -0.041 SA
BRANCH  21  23
HETATM   23  N2  UNL     1      26.866  -1.224  52.742  1.00  0.00    -0.333 N 
HETATM   24  H23 UNL     1      26.673  -2.091  52.159  1.00  0.00     0.168 HD
BRANCH  23  25
HETATM   25  C19 UNL     1      28.236  -1.224  53.143  1.00  0.00     0.034 A 
HETATM   26  C20 UNL     1      29.223  -2.065  53.244  1.00  0.00     0.029 A 
HETATM   27  C21 UNL     1      30.094  -0.994  53.738  1.00  0.00     0.004 A 
HETATM   28  C22 UNL     1      29.107  -0.141  53.641  1.00  0.00     0.029 A 
ENDBRANCH  23  25
ENDBRANCH  21  23
ENDBRANCH   1  21
TORSDOF 10
ENDMDL
MODEL 3
REMARK VINA RESULT:      -7.8      2.691      5.611
REMARK  10 active torsions:
REMARK  status: ('A' for Active; 'I' for Inactive)
REMARK    1  A    between atoms: C3_3  and  C4_4 
REMARK    2  A    between atoms: C5_5  and  C6_6 
REMARK    3  A    between atoms: C7_7  and  C8_8 
REMARK    4  A    between atoms: C8_8  and  N1_9 
REMARK    5  A    between atoms: N1_9  and  C9_10 
REMARK    6  A    between atoms: N1_9  and  C18_20 
REMARK    7  A    between atoms: C9_10  and  C10_11 
REMARK    8  A    between atoms: C17_18  and  O1_19 
REMARK    9  A    between atoms: C18_20  and  N2_22 
REMARK   10  A    between atoms: N2_22  and  C19_23 
ROOT
HETATM    1  N1  UNL     1      24.236   4.218  51.622  1.00  0.00    -0.350 N 
ENDROOT
BRANCH   1   2
HETATM    2  C8  UNL     1      24.748   3.585  50.424  1.00  0.00     0.153 C 
BRANCH   2   3
HETATM    3  C7  UNL     1      23.719   3.084  49.500  1.00  0.00    -0.007 C 
HETATM    4  C6  UNL     1      22.839   2.127  49.850  1.00  0.00    -0.002 C 
BRANCH   4   5
HETATM    5  C5  UNL     1      21.802   1.574  49.023  1.00  0.00    -0.000 C 
HETATM    6  C4  UNL     1      20.766   0.866  49.387  1.00  0.00    -0.000 C 
BRANCH   6   7
HETATM    7  C3  UNL     1      20.414   0.466  50.727  1.00  0.00    -0.004 C 
HETATM    8  C2  UNL     1      19.193   0.308  51.196  1.00  0.00    -0.031 C 
HETATM    9  C1  UNL     1      18.106   0.577  50.219  1.00  0.00     0.036 C 
ENDBRANCH   6   7
ENDBRANCH   4   5
ENDBRANCH   2   3
ENDBRANCH   1   2
BRANCH   1  10
HETATM   10  C9  UNL     1      24.363   3.685  52.940  1.00  0.00     0.167 C 
BRANCH  10  11
HETATM   11  C10 UNL     1      24.520   2.220  53.038  1.00  0.00    -0.006 A 
HETATM   12  C11 UNL     1      23.436   1.333  53.098  1.00  0.00     0.018 A 
HETATM   13  C12 UNL     1      23.616  -0.039  53.183  1.00  0.00    -0.061 A 
HETATM   14  C13 UNL     1      22.467  -0.979  53.246  1.00  0.00     0.048 C 
HETATM   15  C14 UNL     1      24.920  -0.470  53.205  1.00  0.00     0.016 A 
HETATM   16  C15 UNL     1      26.051   0.315  53.151  1.00  0.00    -0.028 A 
HETATM   17  C16 UNL     1      27.419  -0.264  53.181  1.00  0.00     0.051 C 
HETATM   18  C17 UNL     1      25.794   1.647  53.069  1.00  0.00     0.079 A 
BRANCH  18  19
HETATM   19  O1  UNL     1      26.868   2.546  53.009  1.00  0.00    -0.360 OA
HETATM   20  H22 UNL     1      27.385   2.537  52.136  1.00  0.00     0.217 HD
ENDBRANCH  18  19
ENDBRANCH  10  11
ENDBRANCH   1  10
BRANCH   1  21
HETATM   21  C18 UNL     1      23.545   5.483  51.458  1.00  0.00     0.174 C 
HETATM   22  S1  UNL     1      24.379   6.804  50.903  1.00  0.00    -0.041 SA
BRANCH  21  23
HETATM   23  N2  UNL     1      22.161   5.796  51.718  1.00  0.00    -0.333 N 
HETATM   24  H23 UNL     1      21.822   6.662  52.232  1.00  0.00     0.168 HD
BRANCH  23  25
HETATM   25  C19 UNL     1      21.035   5.006  51.335  1.00  0.00     0.034 A 
HETATM   26  C20 UNL     1      20.361   3.987  51.782  1.00  0.00     0.029 A 
HETATM   27  C21 UNL     1      19.471   4.057  50.619  1.00  0.00     0.004 A 
HETATM   28  C22 UNL     1      20.143   5.082  50.161  1.00  0.00     0.029 A 
ENDBRANCH  23  25
ENDBRANCH  21  23
ENDBRANCH   1  21
TORSDOF 10
ENDMDL
MODEL 4
REMARK VINA RESULT:      -7.8      3.256      6.782
REMARK  10 active torsions:
REMARK  status: ('A' for Active; 'I' for Inactive)
REMARK    1  A    between atoms: C3_3  and  C4_4 
REMARK    2  A    between atoms: C5_5  and  C6_6 
REMARK    3  A    between atoms: C7_7  and  C8_8 
REMARK    4  A    between atoms: C8_8  and  N1_9 
REMARK    5  A    between atoms: N1_9  and  C9_10 
REMARK    6  A    between atoms: N1_9  and  C18_20 
REMARK    7  A    between atoms: C9_10  and  C10_11 
REMARK    8  A    between atoms: C17_18  and  O1_19 
REMARK    9  A    between atoms: C18_20  and  N2_22 
REMARK   10  A    between atoms: N2_22  and  C19_23 
ROOT
HETATM    1  N1  UNL     1      20.504   0.660  51.978  1.00  0.00    -0.350 N 
ENDROOT
BRANCH   1   2
HETATM    2  C8  UNL     1      20.456  -0.153  53.177  1.00  0.00     0.153 C 
BRANCH   2   3
HETATM    3  C7  UNL     1      21.654  -0.071  54.029  1.00  0.00    -0.007 C 
HETATM    4  C6  UNL     1      22.727  -0.860  53.844  1.00  0.00    -0.002 C 
BRANCH   4   5
HETATM    5  C5  UNL     1      23.938  -0.855  54.619  1.00  0.00    -0.000 C 
HETATM    6  C4  UNL     1      25.134  -0.480  54.251  1.00  0.00    -0.000 C 
BRANCH   6   7
HETATM    7  C3  UNL     1      25.527   0.028  52.960  1.00  0.00    -0.004 C 
HETATM    8  C2  UNL     1      26.440  -0.492  52.166  1.00  0.00    -0.031 C 
HETATM    9  C1  UNL     1      27.103  -1.716  52.687  1.00  0.00     0.036 C 
ENDBRANCH   6   7
ENDBRANCH   4   5
ENDBRANCH   2   3
ENDBRANCH   1   2
BRANCH   1  10
HETATM   10  C9  UNL     1      21.171   0.290  50.772  1.00  0.00     0.167 C 
BRANCH  10  11
HETATM   11  C10 UNL     1      22.062   1.309  50.181  1.00  0.00    -0.006 A 
HETATM   12  C11 UNL     1      23.268   1.710  50.772  1.00  0.00     0.018 A 
HETATM   13  C12 UNL     1      24.088   2.664  50.189  1.00  0.00    -0.061 A 
HETATM   14  C13 UNL     1      25.367   3.089  50.814  1.00  0.00     0.048 C 
HETATM   15  C14 UNL     1      23.641   3.189  49.000  1.00  0.00     0.016 A 
HETATM   16  C15 UNL     1      22.477   2.864  48.339  1.00  0.00    -0.028 A 
HETATM   17  C16 UNL     1      22.094   3.499  47.052  1.00  0.00     0.051 C 
HETATM   18  C17 UNL     1      21.728   1.923  48.971  1.00  0.00     0.079 A 
BRANCH  18  19
HETATM   19  O1  UNL     1      20.519   1.513  48.393  1.00  0.00    -0.360 OA
HETATM   20  H22 UNL     1      19.698   1.654  48.972  1.00  0.00     0.217 HD
ENDBRANCH  18  19
ENDBRANCH  10  11
ENDBRANCH   1  10
BRANCH   1  21
HETATM   21  C18 UNL     1      19.823   1.940  52.020  1.00  0.00     0.174 C 
HETATM   22  S1  UNL     1      18.323   2.091  51.328  1.00  0.00    -0.041 SA
BRANCH  21  23
HETATM   23  N2  UNL     1      20.268   3.181  52.605  1.00  0.00    -0.333 N 
HETATM   24  H23 UNL     1      20.147   3.447  53.627  1.00  0.00     0.168 HD
BRANCH  23  25
HETATM   25  C19 UNL     1      20.931   4.242  51.918  1.00  0.00     0.034 A 
HETATM   26  C20 UNL     1      20.767   4.966  50.850  1.00  0.00     0.029 A 
HETATM   27  C21 UNL     1      22.006   5.694  51.144  1.00  0.00     0.004 A 
HETATM   28  C22 UNL     1      22.180   4.970  52.220  1.00  0.00     0.029 A 
ENDBRANCH  23  25
ENDBRANCH  21  23
ENDBRANCH   1  21
TORSDOF 10
ENDMDL
MODEL 5
REMARK VINA RESULT:      -7.8      2.576      5.389
REMARK  10 active torsions:
REMARK  status: ('A' for Active; 'I' for Inactive)
REMARK    1  A    between atoms: C3_3  and  C4_4 
REMARK    2  A    between atoms: C5_5  and  C6_6 
REMARK    3  A    between atoms: C7_7  and  C8_8 
REMARK    4  A    between atoms: C8_8  and  N1_9 
REMARK    5  A    between atoms: N1_9  and  C9_10 
REMARK    6  A    between atoms: N1_9  and  C18_20 
REMARK    7  A    between atoms: C9_10  and  C10_11 
REMARK    8  A    between atoms: C17_18  and  O1_19 
REMARK    9  A    between atoms: C18_20  and  N2_22 
REMARK   10  A    between atoms: N2_22  and  C19_23 
ROOT
HETATM    1  N1  UNL     1      25.657   1.275  53.097  1.00  0.00    -0.350 N 
ENDROOT
BRANCH   1   2
HETATM    2  C8  UNL     1      26.324   1.160  51.816  1.00  0.00     0.153 C 
BRANCH   2   3
HETATM    3  C7  UNL     1      26.831   2.428  51.267  1.00  0.00    -0.007 C 
HETATM    4  C6  UNL     1      26.424   2.916  50.081  1.00  0.00    -0.002 C 
BRANCH   4   5
HETATM    5  C5  UNL     1      26.858   4.138  49.463  1.00  0.00    -0.000 C 
HETATM    6  C4  UNL     1      26.127   5.117  49.000  1.00  0.00    -0.000 C 
BRANCH   6   7
HETATM    7  C3  UNL     1      24.688   5.203  49.003  1.00  0.00    -0.004 C 
HETATM    8  C2  UNL     1      23.964   6.157  48.453  1.00  0.00    -0.031 C 
HETATM    9  C1  UNL     1      24.745   7.225  47.776  1.00  0.00     0.036 C 
ENDBRANCH   6   7
ENDBRANCH   4   5
ENDBRANCH   2   3
ENDBRANCH   1   2
BRANCH   1  10
HETATM   10  C9  UNL     1      24.817   2.363  53.482  1.00  0.00     0.167 C 
BRANCH  10  11
HETATM   11  C10 UNL     1      23.652   2.626  52.613  1.00  0.00    -0.006 A 
HETATM   12  C11 UNL     1      22.909   1.611  51.996  1.00  0.00     0.018 A 
HETATM   13  C12 UNL     1      21.816   1.889  51.191  1.00  0.00    -0.061 A 
HETATM   14  C13 UNL     1      21.027   0.813  50.537  1.00  0.00     0.048 C 
HETATM   15  C14 UNL     1      21.510   3.220  51.038  1.00  0.00     0.016 A 
HETATM   16  C15 UNL     1      22.173   4.290  51.599  1.00  0.00    -0.028 A 
HETATM   17  C16 UNL     1      21.751   5.694  51.364  1.00  0.00     0.051 C 
HETATM   18  C17 UNL     1      23.232   3.937  52.373  1.00  0.00     0.079 A 
BRANCH  18  19
HETATM   19  O1  UNL     1      23.985   4.941  52.997  1.00  0.00    -0.360 OA
HETATM   20  H22 UNL     1      24.683   5.383  52.406  1.00  0.00     0.217 HD
ENDBRANCH  18  19
ENDBRANCH  10  11
ENDBRANCH   1  10
BRANCH   1  21
HETATM   21  C18 UNL     1      25.867   0.201  54.050  1.00  0.00     0.174 C 
HETATM   22  S1  UNL     1      24.612  -0.815  54.426  1.00  0.00    -0.041 SA
BRANCH  21  23
HETATM   23  N2  UNL     1      27.069  -0.146  54.769  1.00  0.00    -0.333 N 
HETATM   24  H23 UNL     1      27.102  -0.425  55.794  1.00  0.00     0.168 HD
BRANCH  23  25
HETATM   25  C19 UNL     1      28.391  -0.169  54.232  1.00  0.00     0.034 A 
HETATM   26  C20 UNL     1      29.419   0.622  54.137  1.00  0.00     0.029 A 
HETATM   27  C21 UNL     1      30.165  -0.422  53.426  1.00  0.00     0.004 A 
HETATM   28  C22 UNL     1      29.135  -1.224  53.516  1.00  0.00     0.029 A 
ENDBRANCH  23  25
ENDBRANCH  21  23
ENDBRANCH   1  21
TORSDOF 10
ENDMDL
MODEL 6
REMARK VINA RESULT:      -7.8      1.712      5.742
REMARK  10 active torsions:
REMARK  status: ('A' for Active; 'I' for Inactive)
REMARK    1  A    between atoms: C3_3  and  C4_4 
REMARK    2  A    between atoms: C5_5  and  C6_6 
REMARK    3  A    between atoms: C7_7  and  C8_8 
REMARK    4  A    between atoms: C8_8  and  N1_9 
REMARK    5  A    between atoms: N1_9  and  C9_10 
REMARK    6  A    between atoms: N1_9  and  C18_20 
REMARK    7  A    between atoms: C9_10  and  C10_11 
REMARK    8  A    between atoms: C17_18  and  O1_19 
REMARK    9  A    between atoms: C18_20  and  N2_22 
REMARK   10  A    between atoms: N2_22  and  C19_23 
ROOT
HETATM    1  N1  UNL     1      23.204   2.794  51.464  1.00  0.00    -0.350 N 
ENDROOT
BRANCH   1   2
HETATM    2  C8  UNL     1      24.203   2.995  52.494  1.00  0.00     0.153 C 
BRANCH   2   3
HETATM    3  C7  UNL     1      24.788   1.760  53.038  1.00  0.00    -0.007 C 
HETATM    4  C6  UNL     1      25.405   0.850  52.262  1.00  0.00    -0.002 C 
BRANCH   4   5
HETATM    5  C5  UNL     1      26.005  -0.381  52.698  1.00  0.00    -0.000 C 
HETATM    6  C4  UNL     1      27.136  -0.552  53.329  1.00  0.00    -0.000 C 
BRANCH   6   7
HETATM    7  C3  UNL     1      28.064   0.471  53.743  1.00  0.00    -0.004 C 
HETATM    8  C2  UNL     1      29.373   0.349  53.819  1.00  0.00    -0.031 C 
HETATM    9  C1  UNL     1      29.903  -0.985  53.431  1.00  0.00     0.036 C 
ENDBRANCH   6   7
ENDBRANCH   4   5
ENDBRANCH   2   3
ENDBRANCH   1   2
BRANCH   1  10
HETATM   10  C9  UNL     1      23.398   3.073  50.078  1.00  0.00     0.167 C 
BRANCH  10  11
HETATM   11  C10 UNL     1      24.308   4.191  49.759  1.00  0.00    -0.006 A 
HETATM   12  C11 UNL     1      25.637   4.007  49.353  1.00  0.00     0.018 A 
HETATM   13  C12 UNL     1      26.466   5.077  49.053  1.00  0.00    -0.061 A 
HETATM   14  C13 UNL     1      27.874   4.884  48.623  1.00  0.00     0.048 C 
HETATM   15  C14 UNL     1      25.901   6.324  49.180  1.00  0.00     0.016 A 
HETATM   16  C15 UNL     1      24.611   6.611  49.569  1.00  0.00    -0.028 A 
HETATM   17  C16 UNL     1      24.106   8.004  49.670  1.00  0.00     0.051 C 
HETATM   18  C17 UNL     1      23.861   5.512  49.846  1.00  0.00     0.079 A 
BRANCH  18  19
HETATM   19  O1  UNL     1      22.531   5.679  50.253  1.00  0.00    -0.360 OA
HETATM   20  H22 UNL     1      21.878   5.000  49.874  1.00  0.00     0.217 HD
ENDBRANCH  18  19
ENDBRANCH  10  11
ENDBRANCH   1  10
BRANCH   1  21
HETATM   21  C18 UNL     1      21.917   2.273  51.884  1.00  0.00     0.174 C 
HETATM   22  S1  UNL     1      20.688   3.325  52.248  1.00  0.00    -0.041 SA
BRANCH  21  23
HETATM   23  N2  UNL     1      21.508   0.899  52.047  1.00  0.00    -0.333 N 
HETATM   24  H23 UNL     1      21.083   0.299  51.280  1.00  0.00     0.168 HD
BRANCH  23  25
HETATM   25  C19 UNL     1      21.603   0.131  53.247  1.00  0.00     0.034 A 
HETATM   26  C20 UNL     1      21.121   0.146  54.454  1.00  0.00     0.029 A 
HETATM   27  C21 UNL     1      21.881  -1.066  54.780  1.00  0.00     0.004 A 
HETATM   28  C22 UNL     1      22.371  -1.088  53.567  1.00  0.00     0.029 A 
ENDBRANCH  23  25
ENDBRANCH  21  23
ENDBRANCH   1  21
TORSDOF 10
ENDMDL
MODEL 7
REMARK VINA RESULT:      -7.8      1.392      5.763
REMARK  10 active torsions:
REMARK  status: ('A' for Active; 'I' for Inactive)
REMARK    1  A    between atoms: C3_3  and  C4_4 
REMARK    2  A    between atoms: C5_5  and  C6_6 
REMARK    3  A    between atoms: C7_7  and  C8_8 
REMARK    4  A    between atoms: C8_8  and  N1_9 
REMARK    5  A    between atoms: N1_9  and  C9_10 
REMARK    6  A    between atoms: N1_9  and  C18_20 
REMARK    7  A    between atoms: C9_10  and  C10_11 
REMARK    8  A    between atoms: C17_18  and  O1_19 
REMARK    9  A    between atoms: C18_20  and  N2_22 
REMARK   10  A    between atoms: N2_22  and  C19_23 
ROOT
HETATM    1  N1  UNL     1      23.472   2.738  51.395  1.00  0.00    -0.350 N 
ENDROOT
BRANCH   1   2
HETATM    2  C8  UNL     1      24.409   2.993  52.471  1.00  0.00     0.153 C 
BRANCH   2   3
HETATM    3  C7  UNL     1      24.995   1.788  53.080  1.00  0.00    -0.007 C 
HETATM    4  C6  UNL     1      25.470   0.765  52.345  1.00  0.00    -0.002 C 
BRANCH   4   5
HETATM    5  C5  UNL     1      26.057  -0.447  52.844  1.00  0.00    -0.000 C 
HETATM    6  C4  UNL     1      27.237  -0.615  53.380  1.00  0.00    -0.000 C 
BRANCH   6   7
HETATM    7  C3  UNL     1      28.242   0.394  53.603  1.00  0.00    -0.004 C 
HETATM    8  C2  UNL     1      29.540   0.191  53.705  1.00  0.00    -0.031 C 
HETATM    9  C1  UNL     1      29.965  -1.227  53.572  1.00  0.00     0.036 C 
ENDBRANCH   6   7
ENDBRANCH   4   5
ENDBRANCH   2   3
ENDBRANCH   1   2
BRANCH   1  10
HETATM   10  C9  UNL     1      23.793   2.801  50.007  1.00  0.00     0.167 C 
BRANCH  10  11
HETATM   11  C10 UNL     1      24.445   4.043  49.543  1.00  0.00    -0.006 A 
HETATM   12  C11 UNL     1      23.751   5.242  49.332  1.00  0.00     0.018 A 
HETATM   13  C12 UNL     1      24.392   6.393  48.903  1.00  0.00    -0.061 A 
HETATM   14  C13 UNL     1      23.657   7.665  48.679  1.00  0.00     0.048 C 
HETATM   15  C14 UNL     1      25.746   6.282  48.700  1.00  0.00     0.016 A 
HETATM   16  C15 UNL     1      26.519   5.155  48.878  1.00  0.00    -0.028 A 
HETATM   17  C16 UNL     1      27.983   5.152  48.627  1.00  0.00     0.051 C 
HETATM   18  C17 UNL     1      25.820   4.069  49.298  1.00  0.00     0.079 A 
BRANCH  18  19
HETATM   19  O1  UNL     1      26.500   2.862  49.514  1.00  0.00    -0.360 OA
HETATM   20  H22 UNL     1      26.665   2.308  48.680  1.00  0.00     0.217 HD
ENDBRANCH  18  19
ENDBRANCH  10  11
ENDBRANCH   1  10
BRANCH   1  21
HETATM   21  C18 UNL     1      22.112   2.398  51.770  1.00  0.00     0.174 C 
HETATM   22  S1  UNL     1      21.016   3.608  52.058  1.00  0.00    -0.041 SA
BRANCH  21  23
HETATM   23  N2  UNL     1      21.523   1.092  51.943  1.00  0.00    -0.333 N 
HETATM   24  H23 UNL     1      20.989   0.564  51.191  1.00  0.00     0.168 HD
BRANCH  23  25
HETATM   25  C19 UNL     1      21.558   0.306  53.134  1.00  0.00     0.034 A 
HETATM   26  C20 UNL     1      21.000   0.291  54.309  1.00  0.00     0.029 A 
HETATM   27  C21 UNL     1      21.763  -0.910  54.663  1.00  0.00     0.004 A 
HETATM   28  C22 UNL     1      22.330  -0.902  53.484  1.00  0.00     0.029 A 
ENDBRANCH  23  25
ENDBRANCH  21  23
ENDBRANCH   1  21
TORSDOF 10
ENDMDL
MODEL 8
REMARK VINA RESULT:      -7.7      1.523      6.456
REMARK  10 active torsions:
REMARK  status: ('A' for Active; 'I' for Inactive)
REMARK    1  A    between atoms: C3_3  and  C4_4 
REMARK    2  A    between atoms: C5_5  and  C6_6 
REMARK    3  A    between atoms: C7_7  and  C8_8 
REMARK    4  A    between atoms: C8_8  and  N1_9 
REMARK    5  A    between atoms: N1_9  and  C9_10 
REMARK    6  A    between atoms: N1_9  and  C18_20 
REMARK    7  A    between atoms: C9_10  and  C10_11 
REMARK    8  A    between atoms: C17_18  and  O1_19 
REMARK    9  A    between atoms: C18_20  and  N2_22 
REMARK   10  A    between atoms: N2_22  and  C19_23 
ROOT
HETATM    1  N1  UNL     1      25.394   3.301  51.279  1.00  0.00    -0.350 N 
ENDROOT
BRANCH   1   2
HETATM    2  C8  UNL     1      24.709   3.129  52.544  1.00  0.00     0.153 C 
BRANCH   2   3
HETATM    3  C7  UNL     1      23.419   2.425  52.459  1.00  0.00    -0.007 C 
HETATM    4  C6  UNL     1      23.196   1.430  51.581  1.00  0.00    -0.002 C 
BRANCH   4   5
HETATM    5  C5  UNL     1      21.977   0.686  51.422  1.00  0.00    -0.000 C 
HETATM    6  C4  UNL     1      21.585  -0.375  52.077  1.00  0.00    -0.000 C 
BRANCH   6   7
HETATM    7  C3  UNL     1      22.293  -1.058  53.130  1.00  0.00    -0.004 C 
HETATM    8  C2  UNL     1      22.093  -0.912  54.424  1.00  0.00    -0.031 C 
HETATM    9  C1  UNL     1      21.026   0.057  54.789  1.00  0.00     0.036 C 
ENDBRANCH   6   7
ENDBRANCH   4   5
ENDBRANCH   2   3
ENDBRANCH   1   2
BRANCH   1  10
HETATM   10  C9  UNL     1      26.427   2.445  50.792  1.00  0.00     0.167 C 
BRANCH  10  11
HETATM   11  C10 UNL     1      26.942   1.438  51.742  1.00  0.00    -0.006 A 
HETATM   12  C11 UNL     1      26.537   0.097  51.734  1.00  0.00     0.018 A 
HETATM   13  C12 UNL     1      27.045  -0.826  52.635  1.00  0.00    -0.061 A 
HETATM   14  C13 UNL     1      26.616  -2.249  52.628  1.00  0.00     0.048 C 
HETATM   15  C14 UNL     1      27.967  -0.342  53.531  1.00  0.00     0.016 A 
HETATM   16  C15 UNL     1      28.430   0.952  53.621  1.00  0.00    -0.028 A 
HETATM   17  C16 UNL     1      29.434   1.364  54.635  1.00  0.00     0.051 C 
HETATM   18  C17 UNL     1      27.887   1.798  52.707  1.00  0.00     0.079 A 
BRANCH  18  19
HETATM   19  O1  UNL     1      28.282   3.142  52.702  1.00  0.00    -0.360 OA
HETATM   20  H22 UNL     1      28.092   3.641  51.839  1.00  0.00     0.217 HD
ENDBRANCH  18  19
ENDBRANCH  10  11
ENDBRANCH   1  10
BRANCH   1  21
HETATM   21  C18 UNL     1      24.994   4.428  50.459  1.00  0.00     0.174 C 
HETATM   22  S1  UNL     1      23.622   4.321  49.534  1.00  0.00    -0.041 SA
BRANCH  21  23
HETATM   23  N2  UNL     1      25.640   5.710  50.309  1.00  0.00    -0.333 N 
HETATM   24  H23 UNL     1      25.483   6.545  50.946  1.00  0.00     0.168 HD
BRANCH  23  25
HETATM   25  C19 UNL     1      26.580   6.063  49.294  1.00  0.00     0.034 A 
HETATM   26  C20 UNL     1      27.474   5.483  48.549  1.00  0.00     0.029 A 
HETATM   27  C21 UNL     1      27.795   6.769  47.921  1.00  0.00     0.004 A 
HETATM   28  C22 UNL     1      26.898   7.361  48.668  1.00  0.00     0.029 A 
ENDBRANCH  23  25
ENDBRANCH  21  23
ENDBRANCH   1  21
TORSDOF 10
ENDMDL
MODEL 9
REMARK VINA RESULT:      -7.7      1.928      4.412
REMARK  10 active torsions:
REMARK  status: ('A' for Active; 'I' for Inactive)
REMARK    1  A    between atoms: C3_3  and  C4_4 
REMARK    2  A    between atoms: C5_5  and  C6_6 
REMARK    3  A    between atoms: C7_7  and  C8_8 
REMARK    4  A    between atoms: C8_8  and  N1_9 
REMARK    5  A    between atoms: N1_9  and  C9_10 
REMARK    6  A    between atoms: N1_9  and  C18_20 
REMARK    7  A    between atoms: C9_10  and  C10_11 
REMARK    8  A    between atoms: C17_18  and  O1_19 
REMARK    9  A    between atoms: C18_20  and  N2_22 
REMARK   10  A    between atoms: N2_22  and  C19_23 
ROOT
HETATM    1  N1  UNL     1      23.561   3.953  51.577  1.00  0.00    -0.350 N 
ENDROOT
BRANCH   1   2
HETATM    2  C8  UNL     1      24.103   3.546  50.296  1.00  0.00     0.153 C 
BRANCH   2   3
HETATM    3  C7  UNL     1      25.545   3.783  50.131  1.00  0.00    -0.007 C 
HETATM    4  C6  UNL     1      26.053   4.447  49.076  1.00  0.00    -0.002 C 
BRANCH   4   5
HETATM    5  C5  UNL     1      27.440   4.727  48.827  1.00  0.00    -0.000 C 
HETATM    6  C4  UNL     1      27.975   5.829  48.373  1.00  0.00    -0.000 C 
BRANCH   6   7
HETATM    7  C3  UNL     1      27.289   7.043  48.010  1.00  0.00    -0.004 C 
HETATM    8  C2  UNL     1      27.721   7.959  47.167  1.00  0.00    -0.031 C 
HETATM    9  C1  UNL     1      29.045   7.674  46.555  1.00  0.00     0.036 C 
ENDBRANCH   6   7
ENDBRANCH   4   5
ENDBRANCH   2   3
ENDBRANCH   1   2
BRANCH   1  10
HETATM   10  C9  UNL     1      24.099   3.577  52.843  1.00  0.00     0.167 C 
BRANCH  10  11
HETATM   11  C10 UNL     1      24.296   2.130  53.065  1.00  0.00    -0.006 A 
HETATM   12  C11 UNL     1      23.249   1.200  53.041  1.00  0.00     0.018 A 
HETATM   13  C12 UNL     1      23.466  -0.154  53.246  1.00  0.00    -0.061 A 
HETATM   14  C13 UNL     1      22.356  -1.141  53.221  1.00  0.00     0.048 C 
HETATM   15  C14 UNL     1      24.771  -0.521  53.473  1.00  0.00     0.016 A 
HETATM   16  C15 UNL     1      25.868   0.311  53.515  1.00  0.00    -0.028 A 
HETATM   17  C16 UNL     1      27.239  -0.201  53.769  1.00  0.00     0.051 C 
HETATM   18  C17 UNL     1      25.575   1.621  53.306  1.00  0.00     0.079 A 
BRANCH  18  19
HETATM   19  O1  UNL     1      26.612   2.563  53.327  1.00  0.00    -0.360 OA
HETATM   20  H22 UNL     1      27.340   2.415  52.635  1.00  0.00     0.217 HD
ENDBRANCH  18  19
ENDBRANCH  10  11
ENDBRANCH   1  10
BRANCH   1  21
HETATM   21  C18 UNL     1      22.384   4.802  51.557  1.00  0.00     0.174 C 
HETATM   22  S1  UNL     1      20.878   4.111  51.509  1.00  0.00    -0.041 SA
BRANCH  21  23
HETATM   23  N2  UNL     1      22.310   6.243  51.573  1.00  0.00    -0.333 N 
HETATM   24  H23 UNL     1      21.602   6.806  52.131  1.00  0.00     0.168 HD
BRANCH  23  25
HETATM   25  C19 UNL     1      23.160   7.135  50.853  1.00  0.00     0.034 A 
HETATM   26  C20 UNL     1      23.052   8.092  49.978  1.00  0.00     0.029 A 
HETATM   27  C21 UNL     1      24.508   8.262  49.974  1.00  0.00     0.004 A 
HETATM   28  C22 UNL     1      24.627   7.300  50.854  1.00  0.00     0.029 A 
ENDBRANCH  23  25
ENDBRANCH  21  23
ENDBRANCH   1  21
TORSDOF 10
ENDMDL
