MODEL 1
REMARK VINA RESULT:      -9.8      0.000      0.000
REMARK  5 active torsions:
REMARK  status: ('A' for Active; 'I' for Inactive)
REMARK    1  A    between atoms: O1_2  and  C2_3 
REMARK    2  A    between atoms: C5_6  and  C6_7 
REMARK    3  A    between atoms: N2_9  and  C7_10 
REMARK    4  A    between atoms: C14_20  and  C15_21 
REMARK    5  A    between atoms: C18_24  and  O2_25 
ROOT
HETATM    1  C6  UNL     1      25.576   4.304  49.458  1.00  0.00     0.067 C 
HETATM    2  N1  UNL     1      25.886   3.370  50.282  1.00  0.00    -0.173 NA
HETATM    3  N2  UNL     1      24.766   2.585  50.633  1.00  0.00    -0.237 N 
HETATM    4  C14 UNL     1      23.713   2.975  49.767  1.00  0.00     0.152 C 
HETATM    5  C22 UNL     1      24.143   4.278  49.123  1.00  0.00     0.094 C 
ENDROOT
BRANCH   3   6
HETATM    6  C7  UNL     1      24.854   1.625  51.680  1.00  0.00     0.182 C 
HETATM    7  N3  UNL     1      26.013   1.306  52.048  1.00  0.00    -0.245 NA
HETATM    8  C8  UNL     1      26.221   0.380  53.058  1.00  0.00     0.102 A 
HETATM    9  C9  UNL     1      27.240   0.936  54.022  1.00  0.00     0.013 A 
HETATM   10  C12 UNL     1      26.909  -0.879  52.667  1.00  0.00     0.035 A 
HETATM   11  C13 UNL     1      24.997   0.061  53.842  1.00  0.00     0.124 C 
HETATM   12  C10 UNL     1      28.309   0.135  54.152  1.00  0.00     0.022 A 
HETATM   13  C11 UNL     1      28.077  -0.998  53.290  1.00  0.00     0.032 A 
HETATM   14 CL1  UNL     1      29.293  -2.260  53.214  1.00  0.00    -0.085 Cl
HETATM   15  S1  UNL     1      23.727   0.675  52.695  1.00  0.00    -0.088 SA
ENDBRANCH   3   6
BRANCH   4  16
HETATM   16  C15 UNL     1      22.362   3.014  50.321  1.00  0.00    -0.027 A 
HETATM   17  C16 UNL     1      22.017   4.010  51.246  1.00  0.00     0.012 A 
HETATM   18  C17 UNL     1      20.775   4.165  51.843  1.00  0.00     0.037 A 
HETATM   19  C18 UNL     1      19.805   3.271  51.501  1.00  0.00     0.066 A 
HETATM   20  C19 UNL     1      20.057   2.274  50.612  1.00  0.00     0.043 A 
HETATM   21  C20 UNL     1      21.312   2.166  50.047  1.00  0.00    -0.051 A 
HETATM   22  C21 UNL     1      21.532   1.069  49.098  1.00  0.00     0.049 C 
BRANCH  19  23
HETATM   23  O2  UNL     1      18.569   3.445  52.111  1.00  0.00    -0.361 OA
HETATM   24  H14 UNL     1      18.193   4.371  52.150  1.00  0.00     0.217 HD
ENDBRANCH  19  23
ENDBRANCH   4  16
BRANCH   1  25
HETATM   25  C5  UNL     1      26.576   5.243  48.954  1.00  0.00    -0.010 A 
HETATM   26  C4  UNL     1      27.855   4.807  48.666  1.00  0.00     0.016 A 
HETATM   27  C3  UNL     1      28.866   5.613  48.188  1.00  0.00     0.037 A 
HETATM   28  C2  UNL     1      28.556   6.948  47.991  1.00  0.00     0.068 A 
HETATM   29  C24 UNL     1      27.269   7.394  48.280  1.00  0.00     0.037 A 
HETATM   30  C23 UNL     1      26.264   6.552  48.764  1.00  0.00     0.016 A 
BRANCH  28  31
HETATM   31  O1  UNL     1      29.531   7.810  47.512  1.00  0.00    -0.356 OA
HETATM   32  C1  UNL     1      30.434   8.390  48.412  1.00  0.00     0.210 C 
ENDBRANCH  28  31
ENDBRANCH   1  25
TORSDOF 5
ENDMDL
MODEL 2
REMARK VINA RESULT:      -9.1      3.479      6.170
REMARK  5 active torsions:
REMARK  status: ('A' for Active; 'I' for Inactive)
REMARK    1  A    between atoms: O1_2  and  C2_3 
REMARK    2  A    between atoms: C5_6  and  C6_7 
REMARK    3  A    between atoms: N2_9  and  C7_10 
REMARK    4  A    between atoms: C14_20  and  C15_21 
REMARK    5  A    between atoms: C18_24  and  O2_25 
ROOT
HETATM    1  C6  UNL     1      26.085   3.405  50.792  1.00  0.00     0.067 C 
HETATM    2  N1  UNL     1      24.936   2.962  51.154  1.00  0.00    -0.173 NA
HETATM    3  N2  UNL     1      25.050   1.884  52.059  1.00  0.00    -0.237 N 
HETATM    4  C14 UNL     1      26.417   1.809  52.427  1.00  0.00     0.152 C 
HETATM    5  C22 UNL     1      27.181   2.657  51.429  1.00  0.00     0.094 C 
ENDROOT
BRANCH   3   6
HETATM    6  C7  UNL     1      23.904   1.125  52.429  1.00  0.00     0.182 C 
HETATM    7  N3  UNL     1      22.848   1.362  51.788  1.00  0.00    -0.245 NA
HETATM    8  C8  UNL     1      21.671   0.685  52.062  1.00  0.00     0.102 A 
HETATM    9  C9  UNL     1      21.068   0.214  50.761  1.00  0.00     0.013 A 
HETATM   10  C12 UNL     1      20.542   1.505  52.577  1.00  0.00     0.035 A 
HETATM   11  C13 UNL     1      21.853  -0.515  52.925  1.00  0.00     0.124 C 
HETATM   12  C10 UNL     1      19.824   0.685  50.576  1.00  0.00     0.022 A 
HETATM   13  C11 UNL     1      19.518   1.494  51.730  1.00  0.00     0.032 A 
HETATM   14 CL1  UNL     1      17.949   2.273  51.818  1.00  0.00    -0.085 Cl
HETATM   15  S1  UNL     1      23.495  -0.151  53.616  1.00  0.00    -0.088 SA
ENDBRANCH   3   6
BRANCH   4  16
HETATM   16  C15 UNL     1      26.991   0.481  52.626  1.00  0.00    -0.027 A 
HETATM   17  C16 UNL     1      26.421  -0.628  51.984  1.00  0.00     0.012 A 
HETATM   18  C17 UNL     1      26.866  -1.937  52.082  1.00  0.00     0.037 A 
HETATM   19  C18 UNL     1      27.953  -2.167  52.870  1.00  0.00     0.066 A 
HETATM   20  C19 UNL     1      28.565  -1.147  53.529  1.00  0.00     0.043 A 
HETATM   21  C20 UNL     1      28.080   0.138  53.397  1.00  0.00    -0.051 A 
HETATM   22  C21 UNL     1      28.774   1.200  54.134  1.00  0.00     0.049 C 
BRANCH  19  23
HETATM   23  O2  UNL     1      28.383  -3.485  52.954  1.00  0.00    -0.361 OA
HETATM   24  H14 UNL     1      27.717  -4.208  52.762  1.00  0.00     0.217 HD
ENDBRANCH  19  23
ENDBRANCH   4  16
BRANCH   1  25
HETATM   25  C5  UNL     1      26.214   4.521  49.857  1.00  0.00    -0.010 A 
HETATM   26  C4  UNL     1      25.174   5.416  49.695  1.00  0.00     0.016 A 
HETATM   27  C3  UNL     1      25.200   6.497  48.840  1.00  0.00     0.037 A 
HETATM   28  C2  UNL     1      26.358   6.678  48.103  1.00  0.00     0.068 A 
HETATM   29  C24 UNL     1      27.410   5.780  48.261  1.00  0.00     0.037 A 
HETATM   30  C23 UNL     1      27.354   4.693  49.136  1.00  0.00     0.016 A 
BRANCH  28  31
HETATM   31  O1  UNL     1      26.445   7.748  47.224  1.00  0.00    -0.356 OA
HETATM   32  C1  UNL     1      27.706   8.182  46.797  1.00  0.00     0.210 C 
ENDBRANCH  28  31
ENDBRANCH   1  25
TORSDOF 5
ENDMDL
MODEL 3
REMARK VINA RESULT:      -8.8      3.591      6.795
REMARK  5 active torsions:
REMARK  status: ('A' for Active; 'I' for Inactive)
REMARK    1  A    between atoms: O1_2  and  C2_3 
REMARK    2  A    between atoms: C5_6  and  C6_7 
REMARK    3  A    between atoms: N2_9  and  C7_10 
REMARK    4  A    between atoms: C14_20  and  C15_21 
REMARK    5  A    between atoms: C18_24  and  O2_25 
ROOT
HETATM    1  C6  UNL     1      25.408   2.237  51.590  1.00  0.00     0.067 C 
HETATM    2  N1  UNL     1      25.742   3.340  51.025  1.00  0.00    -0.173 NA
HETATM    3  N2  UNL     1      24.624   4.011  50.482  1.00  0.00    -0.237 N 
HETATM    4  C14 UNL     1      23.475   3.325  50.949  1.00  0.00     0.152 C 
HETATM    5  C22 UNL     1      23.958   1.999  51.503  1.00  0.00     0.094 C 
ENDROOT
BRANCH   3   6
HETATM    6  C7  UNL     1      24.799   5.150  49.646  1.00  0.00     0.182 C 
HETATM    7  N3  UNL     1      25.965   5.616  49.576  1.00  0.00    -0.245 NA
HETATM    8  C8  UNL     1      26.254   6.723  48.795  1.00  0.00     0.102 A 
HETATM    9  C9  UNL     1      27.488   6.430  47.976  1.00  0.00     0.013 A 
HETATM   10  C12 UNL     1      26.718   7.937  49.517  1.00  0.00     0.035 A 
HETATM   11  C13 UNL     1      25.168   7.088  47.844  1.00  0.00     0.124 C 
HETATM   12  C10 UNL     1      28.469   7.318  48.197  1.00  0.00     0.022 A 
HETATM   13  C11 UNL     1      27.961   8.255  49.169  1.00  0.00     0.032 A 
HETATM   14 CL1  UNL     1      28.997   9.568  49.695  1.00  0.00    -0.085 Cl
HETATM   15  S1  UNL     1      23.783   6.183  48.596  1.00  0.00    -0.088 SA
ENDBRANCH   3   6
BRANCH   4  16
HETATM   16  C15 UNL     1      22.343   3.199  50.034  1.00  0.00    -0.027 A 
HETATM   17  C16 UNL     1      22.384   2.250  49.003  1.00  0.00     0.012 A 
HETATM   18  C17 UNL     1      21.382   2.022  48.072  1.00  0.00     0.037 A 
HETATM   19  C18 UNL     1      20.260   2.789  48.167  1.00  0.00     0.066 A 
HETATM   20  C19 UNL     1      20.141   3.734  49.137  1.00  0.00     0.043 A 
HETATM   21  C20 UNL     1      21.169   3.918  50.039  1.00  0.00    -0.051 A 
HETATM   22  C21 UNL     1      20.991   4.954  51.062  1.00  0.00     0.049 C 
BRANCH  19  23
HETATM   23  O2  UNL     1      19.270   2.545  47.224  1.00  0.00    -0.361 OA
HETATM   24  H14 UNL     1      19.510   2.638  46.257  1.00  0.00     0.217 HD
ENDBRANCH  19  23
ENDBRANCH   4  16
BRANCH   1  25
HETATM   25  C5  UNL     1      26.401   1.371  52.223  1.00  0.00    -0.010 A 
HETATM   26  C4  UNL     1      26.218   0.001  52.241  1.00  0.00     0.016 A 
HETATM   27  C3  UNL     1      27.094  -0.896  52.812  1.00  0.00     0.037 A 
HETATM   28  C2  UNL     1      28.228  -0.367  53.404  1.00  0.00     0.068 A 
HETATM   29  C24 UNL     1      28.418   1.012  53.391  1.00  0.00     0.037 A 
HETATM   30  C23 UNL     1      27.511   1.898  52.803  1.00  0.00     0.016 A 
BRANCH  28  31
HETATM   31  O1  UNL     1      29.148  -1.219  53.997  1.00  0.00    -0.356 OA
HETATM   32  C1  UNL     1      29.484  -2.417  53.354  1.00  0.00     0.210 C 
ENDBRANCH  28  31
ENDBRANCH   1  25
TORSDOF 5
ENDMDL
MODEL 4
REMARK VINA RESULT:      -8.5      3.659      6.648
REMARK  5 active torsions:
REMARK  status: ('A' for Active; 'I' for Inactive)
REMARK    1  A    between atoms: O1_2  and  C2_3 
REMARK    2  A    between atoms: C5_6  and  C6_7 
REMARK    3  A    between atoms: N2_9  and  C7_10 
REMARK    4  A    between atoms: C14_20  and  C15_21 
REMARK    5  A    between atoms: C18_24  and  O2_25 
ROOT
HETATM    1  C6  UNL     1      25.173   1.255  52.717  1.00  0.00     0.067 C 
HETATM    2  N1  UNL     1      25.035   2.487  52.382  1.00  0.00    -0.173 NA
HETATM    3  N2  UNL     1      23.679   2.831  52.197  1.00  0.00    -0.237 N 
HETATM    4  C14 UNL     1      22.915   1.734  52.666  1.00  0.00     0.152 C 
HETATM    5  C22 UNL     1      23.874   0.569  52.809  1.00  0.00     0.094 C 
ENDROOT
BRANCH   3   6
HETATM    6  C7  UNL     1      23.322   4.090  51.635  1.00  0.00     0.182 C 
HETATM    7  N3  UNL     1      24.224   4.692  50.998  1.00  0.00    -0.245 NA
HETATM    8  C8  UNL     1      23.993   5.924  50.410  1.00  0.00     0.102 A 
HETATM    9  C9  UNL     1      24.522   5.894  48.997  1.00  0.00     0.013 A 
HETATM   10  C12 UNL     1      24.777   7.069  50.944  1.00  0.00     0.035 A 
HETATM   11  C13 UNL     1      22.552   6.294  50.334  1.00  0.00     0.124 C 
HETATM   12  C10 UNL     1      25.439   6.849  48.776  1.00  0.00     0.022 A 
HETATM   13  C11 UNL     1      25.581   7.574  50.015  1.00  0.00     0.032 A 
HETATM   14 CL1  UNL     1      26.716   8.909  50.083  1.00  0.00    -0.085 Cl
HETATM   15  S1  UNL     1      21.873   5.138  51.562  1.00  0.00    -0.088 SA
ENDBRANCH   3   6
BRANCH   4  16
HETATM   16  C15 UNL     1      21.693   1.400  51.940  1.00  0.00    -0.027 A 
HETATM   17  C16 UNL     1      21.659   1.521  50.543  1.00  0.00     0.012 A 
HETATM   18  C17 UNL     1      20.571   1.234  49.732  1.00  0.00     0.037 A 
HETATM   19  C18 UNL     1      19.436   0.796  50.346  1.00  0.00     0.066 A 
HETATM   20  C19 UNL     1      19.385   0.652  51.697  1.00  0.00     0.043 A 
HETATM   21  C20 UNL     1      20.498   0.952  52.457  1.00  0.00    -0.051 A 
HETATM   22  C21 UNL     1      20.387   0.784  53.911  1.00  0.00     0.049 C 
BRANCH  19  23
HETATM   23  O2  UNL     1      18.359   0.515  49.516  1.00  0.00    -0.361 OA
HETATM   24  H14 UNL     1      18.375   0.886  48.586  1.00  0.00     0.217 HD
ENDBRANCH  19  23
ENDBRANCH   4  16
BRANCH   1  25
HETATM   25  C5  UNL     1      26.491   0.672  52.963  1.00  0.00    -0.010 A 
HETATM   26  C4  UNL     1      27.557   1.483  53.304  1.00  0.00     0.016 A 
HETATM   27  C3  UNL     1      28.834   1.029  53.554  1.00  0.00     0.037 A 
HETATM   28  C2  UNL     1      29.040  -0.336  53.450  1.00  0.00     0.068 A 
HETATM   29  C24 UNL     1      27.971  -1.159  53.107  1.00  0.00     0.037 A 
HETATM   30  C23 UNL     1      26.685  -0.669  52.859  1.00  0.00     0.016 A 
BRANCH  28  31
HETATM   31  O1  UNL     1      30.304  -0.854  53.690  1.00  0.00    -0.356 OA
HETATM   32  C1  UNL     1      30.432  -2.189  54.095  1.00  0.00     0.210 C 
ENDBRANCH  28  31
ENDBRANCH   1  25
TORSDOF 5
ENDMDL
MODEL 5
REMARK VINA RESULT:      -8.3      1.851      2.312
REMARK  5 active torsions:
REMARK  status: ('A' for Active; 'I' for Inactive)
REMARK    1  A    between atoms: O1_2  and  C2_3 
REMARK    2  A    between atoms: C5_6  and  C6_7 
REMARK    3  A    between atoms: N2_9  and  C7_10 
REMARK    4  A    between atoms: C14_20  and  C15_21 
REMARK    5  A    between atoms: C18_24  and  O2_25 
ROOT
HETATM    1  C6  UNL     1      25.731   6.018  49.091  1.00  0.00     0.067 C 
HETATM    2  N1  UNL     1      25.796   4.930  49.770  1.00  0.00    -0.173 NA
HETATM    3  N2  UNL     1      24.592   4.197  49.701  1.00  0.00    -0.237 N 
HETATM    4  C14 UNL     1      23.793   4.822  48.712  1.00  0.00     0.152 C 
HETATM    5  C22 UNL     1      24.419   6.176  48.442  1.00  0.00     0.094 C 
ENDROOT
BRANCH   3   6
HETATM    6  C7  UNL     1      24.386   3.063  50.539  1.00  0.00     0.182 C 
HETATM    7  N3  UNL     1      25.334   2.760  51.309  1.00  0.00    -0.245 NA
HETATM    8  C8  UNL     1      25.247   1.676  52.167  1.00  0.00     0.102 A 
HETATM    9  C9  UNL     1      25.704   2.107  53.539  1.00  0.00     0.013 A 
HETATM   10  C12 UNL     1      26.204   0.564  51.924  1.00  0.00     0.035 A 
HETATM   11  C13 UNL     1      23.869   1.130  52.310  1.00  0.00     0.124 C 
HETATM   12  C10 UNL     1      26.732   1.371  53.989  1.00  0.00     0.022 A 
HETATM   13  C11 UNL     1      27.028   0.409  52.955  1.00  0.00     0.032 A 
HETATM   14 CL1  UNL     1      28.337  -0.729  53.215  1.00  0.00    -0.085 Cl
HETATM   15  S1  UNL     1      23.094   1.863  50.838  1.00  0.00    -0.088 SA
ENDBRANCH   3   6
BRANCH   4  16
HETATM   16  C15 UNL     1      22.352   4.879  48.942  1.00  0.00    -0.027 A 
HETATM   17  C16 UNL     1      21.831   5.797  49.867  1.00  0.00     0.012 A 
HETATM   18  C17 UNL     1      20.490   5.959  50.178  1.00  0.00     0.037 A 
HETATM   19  C18 UNL     1      19.600   5.159  49.528  1.00  0.00     0.066 A 
HETATM   20  C19 UNL     1      20.021   4.241  48.617  1.00  0.00     0.043 A 
HETATM   21  C20 UNL     1      21.369   4.121  48.346  1.00  0.00    -0.051 A 
HETATM   22  C21 UNL     1      21.771   3.112  47.359  1.00  0.00     0.049 C 
BRANCH  19  23
HETATM   23  O2  UNL     1      18.261   5.338  49.854  1.00  0.00    -0.361 OA
HETATM   24  H14 UNL     1      18.030   5.493  50.816  1.00  0.00     0.217 HD
ENDBRANCH  19  23
ENDBRANCH   4  16
BRANCH   1  25
HETATM   25  C5  UNL     1      26.862   6.941  49.014  1.00  0.00    -0.010 A 
HETATM   26  C4  UNL     1      26.818   8.150  49.681  1.00  0.00     0.016 A 
HETATM   27  C3  UNL     1      27.830   9.086  49.669  1.00  0.00     0.037 A 
HETATM   28  C2  UNL     1      28.959   8.771  48.933  1.00  0.00     0.068 A 
HETATM   29  C24 UNL     1      29.010   7.554  48.258  1.00  0.00     0.037 A 
HETATM   30  C23 UNL     1      27.967   6.625  48.288  1.00  0.00     0.016 A 
BRANCH  28  31
HETATM   31  O1  UNL     1      30.012   9.672  48.882  1.00  0.00    -0.356 OA
HETATM   32  C1  UNL     1      29.741  11.032  48.684  1.00  0.00     0.210 C 
ENDBRANCH  28  31
ENDBRANCH   1  25
TORSDOF 5
ENDMDL
MODEL 6
REMARK VINA RESULT:      -8.1      4.563      7.265
REMARK  5 active torsions:
REMARK  status: ('A' for Active; 'I' for Inactive)
REMARK    1  A    between atoms: O1_2  and  C2_3 
REMARK    2  A    between atoms: C5_6  and  C6_7 
REMARK    3  A    between atoms: N2_9  and  C7_10 
REMARK    4  A    between atoms: C14_20  and  C15_21 
REMARK    5  A    between atoms: C18_24  and  O2_25 
ROOT
HETATM    1  C6  UNL     1      24.002   1.405  52.297  1.00  0.00     0.067 C 
HETATM    2  N1  UNL     1      23.945   1.925  51.125  1.00  0.00    -0.173 NA
HETATM    3  N2  UNL     1      22.632   2.325  50.791  1.00  0.00    -0.237 N 
HETATM    4  C14 UNL     1      21.861   2.209  51.975  1.00  0.00     0.152 C 
HETATM    5  C22 UNL     1      22.680   1.380  52.945  1.00  0.00     0.094 C 
ENDROOT
BRANCH   3   6
HETATM    6  C7  UNL     1      22.318   2.743  49.467  1.00  0.00     0.182 C 
HETATM    7  N3  UNL     1      22.305   3.984  49.262  1.00  0.00    -0.245 NA
HETATM    8  C8  UNL     1      22.011   4.507  48.014  1.00  0.00     0.102 A 
HETATM    9  C9  UNL     1      23.041   5.556  47.672  1.00  0.00     0.013 A 
HETATM   10  C12 UNL     1      20.776   5.329  47.917  1.00  0.00     0.035 A 
HETATM   11  C13 UNL     1      22.029   3.497  46.919  1.00  0.00     0.124 C 
HETATM   12  C10 UNL     1      22.486   6.754  47.428  1.00  0.00     0.022 A 
HETATM   13  C11 UNL     1      21.063   6.585  47.588  1.00  0.00     0.032 A 
HETATM   14 CL1  UNL     1      20.018   7.971  47.339  1.00  0.00    -0.085 Cl
HETATM   15  S1  UNL     1      21.908   1.974  47.904  1.00  0.00    -0.088 SA
ENDBRANCH   3   6
BRANCH   4  16
HETATM   16  C15 UNL     1      20.479   1.756  51.840  1.00  0.00    -0.027 A 
HETATM   17  C16 UNL     1      20.188   0.386  51.893  1.00  0.00     0.012 A 
HETATM   18  C17 UNL     1      18.926  -0.179  51.785  1.00  0.00     0.037 A 
HETATM   19  C18 UNL     1      17.877   0.673  51.611  1.00  0.00     0.066 A 
HETATM   20  C19 UNL     1      18.073   2.017  51.547  1.00  0.00     0.043 A 
HETATM   21  C20 UNL     1      19.351   2.526  51.661  1.00  0.00    -0.051 A 
HETATM   22  C21 UNL     1      19.508   3.982  51.580  1.00  0.00     0.049 C 
BRANCH  19  23
HETATM   23  O2  UNL     1      16.622   0.088  51.505  1.00  0.00    -0.361 OA
HETATM   24  H14 UNL     1      16.578  -0.903  51.366  1.00  0.00     0.217 HD
ENDBRANCH  19  23
ENDBRANCH   4  16
BRANCH   1  25
HETATM   25  C5  UNL     1      25.260   0.917  52.858  1.00  0.00    -0.010 A 
HETATM   26  C4  UNL     1      25.282   0.326  54.106  1.00  0.00     0.016 A 
HETATM   27  C3  UNL     1      26.415  -0.164  54.719  1.00  0.00     0.037 A 
HETATM   28  C2  UNL     1      27.602  -0.043  54.017  1.00  0.00     0.068 A 
HETATM   29  C24 UNL     1      27.588   0.553  52.759  1.00  0.00     0.037 A 
HETATM   30  C23 UNL     1      26.422   1.040  52.163  1.00  0.00     0.016 A 
BRANCH  28  31
HETATM   31  O1  UNL     1      28.778  -0.517  54.581  1.00  0.00    -0.356 OA
HETATM   32  C1  UNL     1      29.793  -0.998  53.745  1.00  0.00     0.210 C 
ENDBRANCH  28  31
ENDBRANCH   1  25
TORSDOF 5
ENDMDL
MODEL 7
REMARK VINA RESULT:      -8.1      4.398      7.231
REMARK  5 active torsions:
REMARK  status: ('A' for Active; 'I' for Inactive)
REMARK    1  A    between atoms: O1_2  and  C2_3 
REMARK    2  A    between atoms: C5_6  and  C6_7 
REMARK    3  A    between atoms: N2_9  and  C7_10 
REMARK    4  A    between atoms: C14_20  and  C15_21 
REMARK    5  A    between atoms: C18_24  and  O2_25 
ROOT
HETATM    1  C6  UNL     1      24.063   1.795  51.313  1.00  0.00     0.067 C 
HETATM    2  N1  UNL     1      22.804   1.645  51.517  1.00  0.00    -0.173 NA
HETATM    3  N2  UNL     1      22.032   2.408  50.615  1.00  0.00    -0.237 N 
HETATM    4  C14 UNL     1      22.929   2.914  49.642  1.00  0.00     0.152 C 
HETATM    5  C22 UNL     1      24.325   2.720  50.199  1.00  0.00     0.094 C 
ENDROOT
BRANCH   3   6
HETATM    6  C7  UNL     1      20.625   2.536  50.796  1.00  0.00     0.182 C 
HETATM    7  N3  UNL     1      19.959   1.470  50.755  1.00  0.00    -0.245 NA
HETATM    8  C8  UNL     1      18.583   1.473  50.916  1.00  0.00     0.102 A 
HETATM    9  C9  UNL     1      18.208   0.394  51.902  1.00  0.00     0.013 A 
HETATM   10  C12 UNL     1      17.780   1.029  49.746  1.00  0.00     0.035 A 
HETATM   11  C13 UNL     1      18.040   2.758  51.438  1.00  0.00     0.124 C 
HETATM   12  C10 UNL     1      17.350  -0.497  51.382  1.00  0.00     0.022 A 
HETATM   13  C11 UNL     1      17.097  -0.076  50.026  1.00  0.00     0.032 A 
HETATM   14 CL1  UNL     1      16.004  -1.028  49.040  1.00  0.00    -0.085 Cl
HETATM   15  S1  UNL     1      19.447   3.853  51.082  1.00  0.00    -0.088 SA
ENDBRANCH   3   6
BRANCH   4  16
HETATM   16  C15 UNL     1      22.685   4.260  49.131  1.00  0.00    -0.027 A 
HETATM   17  C16 UNL     1      22.928   5.371  49.952  1.00  0.00     0.012 A 
HETATM   18  C17 UNL     1      22.744   6.698  49.595  1.00  0.00     0.037 A 
HETATM   19  C18 UNL     1      22.288   6.944  48.335  1.00  0.00     0.066 A 
HETATM   20  C19 UNL     1      22.026   5.924  47.475  1.00  0.00     0.043 A 
HETATM   21  C20 UNL     1      22.227   4.621  47.883  1.00  0.00    -0.051 A 
HETATM   22  C21 UNL     1      21.924   3.558  46.919  1.00  0.00     0.049 C 
BRANCH  19  23
HETATM   23  O2  UNL     1      22.111   8.280  47.997  1.00  0.00    -0.361 OA
HETATM   24  H14 UNL     1      22.782   8.701  47.386  1.00  0.00     0.217 HD
ENDBRANCH  19  23
ENDBRANCH   4  16
BRANCH   1  25
HETATM   25  C5  UNL     1      25.058   1.101  52.128  1.00  0.00    -0.010 A 
HETATM   26  C4  UNL     1      26.401   1.205  51.821  1.00  0.00     0.016 A 
HETATM   27  C3  UNL     1      27.413   0.589  52.526  1.00  0.00     0.037 A 
HETATM   28  C2  UNL     1      27.034  -0.182  53.611  1.00  0.00     0.068 A 
HETATM   29  C24 UNL     1      25.683  -0.292  53.926  1.00  0.00     0.037 A 
HETATM   30  C23 UNL     1      24.678   0.345  53.192  1.00  0.00     0.016 A 
BRANCH  28  31
HETATM   31  O1  UNL     1      28.007  -0.828  54.361  1.00  0.00    -0.356 OA
HETATM   32  C1  UNL     1      29.328  -0.364  54.313  1.00  0.00     0.210 C 
ENDBRANCH  28  31
ENDBRANCH   1  25
TORSDOF 5
ENDMDL
MODEL 8
REMARK VINA RESULT:      -8.1      3.738      6.732
REMARK  5 active torsions:
REMARK  status: ('A' for Active; 'I' for Inactive)
REMARK    1  A    between atoms: O1_2  and  C2_3 
REMARK    2  A    between atoms: C5_6  and  C6_7 
REMARK    3  A    between atoms: N2_9  and  C7_10 
REMARK    4  A    between atoms: C14_20  and  C15_21 
REMARK    5  A    between atoms: C18_24  and  O2_25 
ROOT
HETATM    1  C6  UNL     1      24.036   1.877  51.864  1.00  0.00     0.067 C 
HETATM    2  N1  UNL     1      24.210   3.139  51.707  1.00  0.00    -0.173 NA
HETATM    3  N2  UNL     1      23.060   3.765  51.179  1.00  0.00    -0.237 N 
HETATM    4  C14 UNL     1      22.023   2.800  51.211  1.00  0.00     0.152 C 
HETATM    5  C22 UNL     1      22.688   1.458  51.445  1.00  0.00     0.094 C 
ENDROOT
BRANCH   3   6
HETATM    6  C7  UNL     1      23.109   5.122  50.748  1.00  0.00     0.182 C 
HETATM    7  N3  UNL     1      24.178   5.495  50.200  1.00  0.00    -0.245 NA
HETATM    8  C8  UNL     1      24.340   6.792  49.742  1.00  0.00     0.102 A 
HETATM    9  C9  UNL     1      24.912   6.746  48.347  1.00  0.00     0.013 A 
HETATM   10  C12 UNL     1      25.390   7.602  50.414  1.00  0.00     0.035 A 
HETATM   11  C13 UNL     1      23.071   7.569  49.675  1.00  0.00     0.124 C 
HETATM   12  C10 UNL     1      26.074   7.410  48.250  1.00  0.00     0.022 A 
HETATM   13  C11 UNL     1      26.353   7.939  49.562  1.00  0.00     0.032 A 
HETATM   14 CL1  UNL     1      27.816   8.875  49.799  1.00  0.00    -0.085 Cl
HETATM   15  S1  UNL     1      22.027   6.547  50.757  1.00  0.00    -0.088 SA
ENDBRANCH   3   6
BRANCH   4  16
HETATM   16  C15 UNL     1      21.069   2.795  50.105  1.00  0.00    -0.027 A 
HETATM   17  C16 UNL     1      19.704   2.987  50.362  1.00  0.00     0.012 A 
HETATM   18  C17 UNL     1      18.696   3.010  49.410  1.00  0.00     0.037 A 
HETATM   19  C18 UNL     1      19.065   2.831  48.111  1.00  0.00     0.066 A 
HETATM   20  C19 UNL     1      20.368   2.637  47.775  1.00  0.00     0.043 A 
HETATM   21  C20 UNL     1      21.331   2.623  48.764  1.00  0.00    -0.051 A 
HETATM   22  C21 UNL     1      22.721   2.404  48.348  1.00  0.00     0.049 C 
BRANCH  19  23
HETATM   23  O2  UNL     1      18.040   2.857  47.173  1.00  0.00    -0.361 OA
HETATM   24  H14 UNL     1      17.331   2.153  47.234  1.00  0.00     0.217 HD
ENDBRANCH  19  23
ENDBRANCH   4  16
BRANCH   1  25
HETATM   25  C5  UNL     1      25.092   1.019  52.398  1.00  0.00    -0.010 A 
HETATM   26  C4  UNL     1      26.382   1.120  51.912  1.00  0.00     0.016 A 
HETATM   27  C3  UNL     1      27.443   0.357  52.350  1.00  0.00     0.037 A 
HETATM   28  C2  UNL     1      27.175  -0.567  53.345  1.00  0.00     0.068 A 
HETATM   29  C24 UNL     1      25.878  -0.675  53.839  1.00  0.00     0.037 A 
HETATM   30  C23 UNL     1      24.821   0.113  53.375  1.00  0.00     0.016 A 
BRANCH  28  31
HETATM   31  O1  UNL     1      28.202  -1.365  53.827  1.00  0.00    -0.356 OA
HETATM   32  C1  UNL     1      29.520  -0.891  53.774  1.00  0.00     0.210 C 
ENDBRANCH  28  31
ENDBRANCH   1  25
TORSDOF 5
ENDMDL
MODEL 9
REMARK VINA RESULT:      -8.1      5.744     11.095
REMARK  5 active torsions:
REMARK  status: ('A' for Active; 'I' for Inactive)
REMARK    1  A    between atoms: O1_2  and  C2_3 
REMARK    2  A    between atoms: C5_6  and  C6_7 
REMARK    3  A    between atoms: N2_9  and  C7_10 
REMARK    4  A    between atoms: C14_20  and  C15_21 
REMARK    5  A    between atoms: C18_24  and  O2_25 
ROOT
HETATM    1  C6  UNL     1      28.731   6.132  48.085  1.00  0.00     0.067 C 
HETATM    2  N1  UNL     1      28.984   7.344  47.746  1.00  0.00    -0.173 NA
HETATM    3  N2  UNL     1      30.330   7.510  47.354  1.00  0.00    -0.237 N 
HETATM    4  C14 UNL     1      30.888   6.210  47.263  1.00  0.00     0.152 C 
HETATM    5  C22 UNL     1      29.922   5.275  47.964  1.00  0.00     0.094 C 
ENDROOT
BRANCH   3   6
HETATM    6  C7  UNL     1      30.864   8.811  47.130  1.00  0.00     0.182 C 
HETATM    7  N3  UNL     1      30.296   9.758  47.733  1.00  0.00    -0.245 NA
HETATM    8  C8  UNL     1      30.728  11.066  47.590  1.00  0.00     0.102 A 
HETATM    9  C9  UNL     1      30.835  11.694  48.958  1.00  0.00     0.013 A 
HETATM   10  C12 UNL     1      29.770  12.011  46.958  1.00  0.00     0.035 A 
HETATM   11  C13 UNL     1      32.062  11.193  46.940  1.00  0.00     0.124 C 
HETATM   12  C10 UNL     1      30.075  12.794  49.076  1.00  0.00     0.022 A 
HETATM   13  C11 UNL     1      29.416  12.972  47.805  1.00  0.00     0.032 A 
HETATM   14 CL1  UNL     1      28.330  14.334  47.604  1.00  0.00    -0.085 Cl
HETATM   15  S1  UNL     1      32.191   9.546  46.180  1.00  0.00    -0.088 SA
ENDBRANCH   3   6
BRANCH   4  16
HETATM   16  C15 UNL     1      32.276   6.039  47.682  1.00  0.00    -0.027 A 
HETATM   17  C16 UNL     1      32.618   6.185  49.033  1.00  0.00     0.012 A 
HETATM   18  C17 UNL     1      33.891   6.045  49.566  1.00  0.00     0.037 A 
HETATM   19  C18 UNL     1      34.897   5.739  48.700  1.00  0.00     0.066 A 
HETATM   20  C19 UNL     1      34.651   5.581  47.372  1.00  0.00     0.043 A 
HETATM   21  C20 UNL     1      33.364   5.732  46.895  1.00  0.00    -0.051 A 
HETATM   22  C21 UNL     1      33.155   5.556  45.454  1.00  0.00     0.049 C 
BRANCH  19  23
HETATM   23  O2  UNL     1      36.164   5.604  49.254  1.00  0.00    -0.361 OA
HETATM   24  H14 UNL     1      36.231   5.491  50.246  1.00  0.00     0.217 HD
ENDBRANCH  19  23
ENDBRANCH   4  16
BRANCH   1  25
HETATM   25  C5  UNL     1      27.399   5.723  48.526  1.00  0.00    -0.010 A 
HETATM   26  C4  UNL     1      27.187   4.441  48.995  1.00  0.00     0.016 A 
HETATM   27  C3  UNL     1      25.971   3.960  49.433  1.00  0.00     0.037 A 
HETATM   28  C2  UNL     1      24.904   4.841  49.390  1.00  0.00     0.068 A 
HETATM   29  C24 UNL     1      25.110   6.134  48.918  1.00  0.00     0.037 A 
HETATM   30  C23 UNL     1      26.356   6.593  48.481  1.00  0.00     0.016 A 
BRANCH  28  31
HETATM   31  O1  UNL     1      23.654   4.417  49.817  1.00  0.00    -0.356 OA
HETATM   32  C1  UNL     1      23.442   4.174  51.180  1.00  0.00     0.210 C 
ENDBRANCH  28  31
ENDBRANCH   1  25
TORSDOF 5
ENDMDL
