MODEL 1
REMARK VINA RESULT:      -9.1      0.000      0.000
REMARK  2 active torsions:
REMARK  status: ('A' for Active; 'I' for Inactive)
REMARK    1  A    between atoms: N1_2  and  C2_3 
REMARK    2  A    between atoms: C14_17  and  N3_18 
ROOT
HETATM    1  C2  UNL     1      26.649  -0.742  53.325  1.00  0.00     0.298 C 
HETATM    2  C3  UNL     1      26.987   0.588  52.581  1.00  0.00     0.097 C 
HETATM    3  C4  UNL     1      25.770   1.286  52.742  1.00  0.00     0.230 C 
HETATM    4  O1  UNL     1      24.808   0.382  52.160  1.00  0.00    -0.330 OA
HETATM    5  C5  UNL     1      24.109  -0.097  53.255  1.00  0.00     0.193 C 
HETATM    6  C6  UNL     1      23.231  -1.267  52.941  1.00  0.00     0.080 C 
HETATM    7  N2  UNL     1      23.425   1.033  53.778  1.00  0.00    -0.372 N 
HETATM    8  C7  UNL     1      23.133   2.136  52.986  1.00  0.00     0.080 A 
HETATM    9  C8  UNL     1      23.004   1.652  51.509  1.00  0.00     0.037 A 
HETATM   10  C9  UNL     1      22.695   1.547  50.203  1.00  0.00    -0.011 C 
HETATM   11  C10 UNL     1      21.875   2.596  49.559  1.00  0.00     0.009 C 
HETATM   12  C11 UNL     1      21.328   3.450  50.406  1.00  0.00    -0.029 C 
HETATM   13  C12 UNL     1      21.103   3.127  51.669  1.00  0.00     0.002 C 
HETATM   14  C13 UNL     1      22.487   2.888  52.106  1.00  0.00     0.063 A 
HETATM   15  C14 UNL     1      23.481   4.013  52.112  1.00  0.00     0.221 A 
HETATM   16  C15 UNL     1      24.428   4.214  51.027  1.00  0.00     0.010 A 
HETATM   17  C16 UNL     1      24.525   5.055  49.915  1.00  0.00     0.012 A 
HETATM   18  C17 UNL     1      25.615   5.028  49.039  1.00  0.00     0.001 A 
HETATM   19  C18 UNL     1      26.665   4.138  49.253  1.00  0.00     0.002 A 
HETATM   20  C19 UNL     1      26.641   3.268  50.336  1.00  0.00     0.030 A 
HETATM   21  C20 UNL     1      25.542   3.374  51.122  1.00  0.00     0.041 A 
HETATM   22  N4  UNL     1      25.315   2.527  52.266  1.00  0.00    -0.343 N 
HETATM   23  C21 UNL     1      24.250   3.228  53.057  1.00  0.00     0.161 A 
HETATM   24  C22 UNL     1      25.309  -0.599  54.045  1.00  0.00     0.214 C 
HETATM   25  O2  UNL     1      25.061  -0.845  55.214  1.00  0.00    -0.290 OA
HETATM   26  H12 UNL     1      22.730   0.786  54.499  1.00  0.00     0.157 HD
ENDROOT
BRANCH   1  27
HETATM   27  N1  UNL     1      26.627  -1.859  52.436  1.00  0.00     0.091 N 
HETATM   28  C1  UNL     1      27.822  -2.650  52.666  1.00  0.00     0.307 C 
HETATM   29  H4  UNL     1      26.544  -1.542  51.456  1.00  0.00     0.316 HD
ENDBRANCH   1  27
BRANCH  15  30
HETATM   30  N3  UNL     1      22.965   5.253  52.675  1.00  0.00     0.096 N 
HETATM   31  H16 UNL     1      23.513   6.087  52.390  1.00  0.00     0.314 HD
HETATM   32  H17 UNL     1      21.949   5.350  52.548  1.00  0.00     0.314 HD
ENDBRANCH  15  30
TORSDOF 2
ENDMDL
MODEL 2
REMARK VINA RESULT:      -8.6      3.235      6.291
REMARK  2 active torsions:
REMARK  status: ('A' for Active; 'I' for Inactive)
REMARK    1  A    between atoms: N1_2  and  C2_3 
REMARK    2  A    between atoms: C14_17  and  N3_18 
ROOT
HETATM    1  C2  UNL     1      27.480   6.745  48.357  1.00  0.00     0.298 C 
HETATM    2  C3  UNL     1      27.412   5.260  48.837  1.00  0.00     0.097 C 
HETATM    3  C4  UNL     1      26.014   5.093  48.946  1.00  0.00     0.230 C 
HETATM    4  O1  UNL     1      25.640   6.143  49.861  1.00  0.00    -0.330 OA
HETATM    5  C5  UNL     1      24.972   7.052  49.057  1.00  0.00     0.193 C 
HETATM    6  C6  UNL     1      24.721   8.369  49.720  1.00  0.00     0.080 C 
HETATM    7  N2  UNL     1      23.800   6.372  48.629  1.00  0.00    -0.372 N 
HETATM    8  C7  UNL     1      23.272   5.311  49.352  1.00  0.00     0.080 A 
HETATM    9  C8  UNL     1      23.666   5.500  50.849  1.00  0.00     0.037 A 
HETATM   10  C9  UNL     1      23.711   5.442  52.193  1.00  0.00    -0.011 C 
HETATM   11  C10 UNL     1      22.700   4.649  52.927  1.00  0.00     0.009 C 
HETATM   12  C11 UNL     1      21.691   4.237  52.180  1.00  0.00    -0.029 C 
HETATM   13  C12 UNL     1      21.348   4.868  51.068  1.00  0.00     0.002 C 
HETATM   14  C13 UNL     1      22.585   4.679  50.294  1.00  0.00     0.063 A 
HETATM   15  C14 UNL     1      23.022   3.298  49.897  1.00  0.00     0.221 A 
HETATM   16  C15 UNL     1      24.020   2.557  50.652  1.00  0.00     0.010 A 
HETATM   17  C16 UNL     1      24.011   1.531  51.601  1.00  0.00     0.012 A 
HETATM   18  C17 UNL     1      25.181   0.989  52.141  1.00  0.00     0.001 A 
HETATM   19  C18 UNL     1      26.425   1.467  51.738  1.00  0.00     0.002 A 
HETATM   20  C19 UNL     1      26.519   2.488  50.800  1.00  0.00     0.030 A 
HETATM   21  C20 UNL     1      25.327   2.943  50.341  1.00  0.00     0.041 A 
HETATM   22  N4  UNL     1      25.216   4.028  49.398  1.00  0.00    -0.343 N 
HETATM   23  C21 UNL     1      23.818   3.930  48.863  1.00  0.00     0.161 A 
HETATM   24  C22 UNL     1      26.073   7.240  48.024  1.00  0.00     0.214 C 
HETATM   25  O2  UNL     1      25.699   7.788  47.000  1.00  0.00    -0.290 OA
HETATM   26  H12 UNL     1      23.125   6.991  48.158  1.00  0.00     0.157 HD
ENDROOT
BRANCH   1  27
HETATM   27  N1  UNL     1      28.096   7.591  49.328  1.00  0.00     0.091 N 
HETATM   28  C1  UNL     1      28.551   8.797  48.661  1.00  0.00     0.307 C 
HETATM   29  H4  UNL     1      28.860   7.093  49.812  1.00  0.00     0.316 HD
ENDBRANCH   1  27
BRANCH  15  30
HETATM   30  N3  UNL     1      21.949   2.467  49.373  1.00  0.00     0.096 N 
HETATM   31  H16 UNL     1      21.197   3.016  48.914  1.00  0.00     0.314 HD
HETATM   32  H17 UNL     1      22.300   1.679  48.812  1.00  0.00     0.314 HD
ENDBRANCH  15  30
TORSDOF 2
ENDMDL
MODEL 3
REMARK VINA RESULT:      -8.6      3.220      4.817
REMARK  2 active torsions:
REMARK  status: ('A' for Active; 'I' for Inactive)
REMARK    1  A    between atoms: N1_2  and  C2_3 
REMARK    2  A    between atoms: C14_17  and  N3_18 
ROOT
HETATM    1  C2  UNL     1      22.130   1.965  51.666  1.00  0.00     0.298 C 
HETATM    2  C3  UNL     1      23.595   2.415  51.365  1.00  0.00     0.097 C 
HETATM    3  C4  UNL     1      23.407   3.806  51.212  1.00  0.00     0.230 C 
HETATM    4  O1  UNL     1      22.421   3.878  50.161  1.00  0.00    -0.330 OA
HETATM    5  C5  UNL     1      21.275   4.294  50.818  1.00  0.00     0.193 C 
HETATM    6  C6  UNL     1      20.034   4.179  49.990  1.00  0.00     0.080 C 
HETATM    7  N2  UNL     1      21.567   5.609  51.269  1.00  0.00    -0.372 N 
HETATM    8  C7  UNL     1      22.537   6.389  50.655  1.00  0.00     0.080 A 
HETATM    9  C8  UNL     1      22.651   5.938  49.166  1.00  0.00     0.037 A 
HETATM   10  C9  UNL     1      22.890   5.891  47.842  1.00  0.00    -0.011 C 
HETATM   11  C10 UNL     1      23.481   7.065  47.162  1.00  0.00     0.009 C 
HETATM   12  C11 UNL     1      23.517   8.157  47.906  1.00  0.00    -0.029 C 
HETATM   13  C12 UNL     1      22.683   8.337  48.916  1.00  0.00     0.002 C 
HETATM   14  C13 UNL     1      23.085   7.205  49.765  1.00  0.00     0.063 A 
HETATM   15  C14 UNL     1      24.469   7.152  50.344  1.00  0.00     0.221 A 
HETATM   16  C15 UNL     1      25.534   6.374  49.731  1.00  0.00     0.010 A 
HETATM   17  C16 UNL     1      26.636   6.641  48.913  1.00  0.00     0.012 A 
HETATM   18  C17 UNL     1      27.528   5.647  48.497  1.00  0.00     0.001 A 
HETATM   19  C18 UNL     1      27.341   4.326  48.897  1.00  0.00     0.002 A 
HETATM   20  C19 UNL     1      26.268   3.981  49.710  1.00  0.00     0.030 A 
HETATM   21  C20 UNL     1      25.464   5.016  50.054  1.00  0.00     0.041 A 
HETATM   22  N4  UNL     1      24.276   4.850  50.854  1.00  0.00    -0.343 N 
HETATM   23  C21 UNL     1      23.938   6.232  51.331  1.00  0.00     0.161 A 
HETATM   24  C22 UNL     1      21.249   3.196  51.872  1.00  0.00     0.214 C 
HETATM   25  O2  UNL     1      20.495   3.426  52.804  1.00  0.00    -0.290 OA
HETATM   26  H12 UNL     1      20.738   6.104  51.631  1.00  0.00     0.157 HD
ENDROOT
BRANCH   1  27
HETATM   27  N1  UNL     1      21.604   1.135  50.630  1.00  0.00     0.091 N 
HETATM   28  C1  UNL     1      20.546   0.317  51.193  1.00  0.00     0.307 C 
HETATM   29  H4  UNL     1      22.356   0.571  50.200  1.00  0.00     0.316 HD
ENDBRANCH   1  27
BRANCH  15  30
HETATM   30  N3  UNL     1      24.919   8.414  50.914  1.00  0.00     0.096 N 
HETATM   31  H16 UNL     1      24.779   8.469  51.941  1.00  0.00     0.314 HD
HETATM   32  H17 UNL     1      25.865   8.671  50.602  1.00  0.00     0.314 HD
ENDBRANCH  15  30
TORSDOF 2
ENDMDL
MODEL 4
REMARK VINA RESULT:      -8.5      2.969      5.828
REMARK  2 active torsions:
REMARK  status: ('A' for Active; 'I' for Inactive)
REMARK    1  A    between atoms: N1_2  and  C2_3 
REMARK    2  A    between atoms: C14_17  and  N3_18 
ROOT
HETATM    1  C2  UNL     1      18.259   1.526  50.846  1.00  0.00     0.298 C 
HETATM    2  C3  UNL     1      19.407   1.144  51.832  1.00  0.00     0.097 C 
HETATM    3  C4  UNL     1      20.224   2.291  51.727  1.00  0.00     0.230 C 
HETATM    4  O1  UNL     1      20.504   2.352  50.313  1.00  0.00    -0.330 OA
HETATM    5  C5  UNL     1      19.767   3.442  49.883  1.00  0.00     0.193 C 
HETATM    6  C6  UNL     1      19.670   3.551  48.394  1.00  0.00     0.080 C 
HETATM    7  N2  UNL     1      20.362   4.563  50.521  1.00  0.00    -0.372 N 
HETATM    8  C7  UNL     1      21.678   4.534  50.961  1.00  0.00     0.080 A 
HETATM    9  C8  UNL     1      22.466   3.526  50.069  1.00  0.00     0.037 A 
HETATM   10  C9  UNL     1      23.435   2.857  49.418  1.00  0.00    -0.011 C 
HETATM   11  C10 UNL     1      24.844   3.285  49.562  1.00  0.00     0.009 C 
HETATM   12  C11 UNL     1      24.995   4.452  50.165  1.00  0.00    -0.029 C 
HETATM   13  C12 UNL     1      24.032   5.358  50.173  1.00  0.00     0.002 C 
HETATM   14  C13 UNL     1      23.001   4.606  50.905  1.00  0.00     0.063 A 
HETATM   15  C14 UNL     1      23.233   4.202  52.332  1.00  0.00     0.221 A 
HETATM   16  C15 UNL     1      23.695   2.870  52.692  1.00  0.00     0.010 A 
HETATM   17  C16 UNL     1      24.913   2.288  53.055  1.00  0.00     0.012 A 
HETATM   18  C17 UNL     1      25.036   0.935  53.384  1.00  0.00     0.001 A 
HETATM   19  C18 UNL     1      23.919   0.103  53.361  1.00  0.00     0.002 A 
HETATM   20  C19 UNL     1      22.673   0.607  53.010  1.00  0.00     0.030 A 
HETATM   21  C20 UNL     1      22.662   1.929  52.707  1.00  0.00     0.041 A 
HETATM   22  N4  UNL     1      21.474   2.622  52.277  1.00  0.00    -0.343 N 
HETATM   23  C21 UNL     1      21.794   4.077  52.451  1.00  0.00     0.161 A 
HETATM   24  C22 UNL     1      18.417   2.984  50.416  1.00  0.00     0.214 C 
HETATM   25  O2  UNL     1      17.573   3.865  50.443  1.00  0.00    -0.290 OA
HETATM   26  H12 UNL     1      20.016   5.464  50.157  1.00  0.00     0.157 HD
ENDROOT
BRANCH   1  27
HETATM   27  N1  UNL     1      18.224   0.665  49.708  1.00  0.00     0.091 N 
HETATM   28  C1  UNL     1      17.020  -0.143  49.781  1.00  0.00     0.307 C 
HETATM   29  H4  UNL     1      19.083   0.093  49.658  1.00  0.00     0.316 HD
ENDBRANCH   1  27
BRANCH  15  30
HETATM   30  N3  UNL     1      23.793   5.259  53.162  1.00  0.00     0.096 N 
HETATM   31  H16 UNL     1      24.572   4.933  53.764  1.00  0.00     0.314 HD
HETATM   32  H17 UNL     1      24.000   6.112  52.625  1.00  0.00     0.314 HD
ENDBRANCH  15  30
TORSDOF 2
ENDMDL
MODEL 5
REMARK VINA RESULT:      -8.2      2.243      3.050
REMARK  2 active torsions:
REMARK  status: ('A' for Active; 'I' for Inactive)
REMARK    1  A    between atoms: N1_2  and  C2_3 
REMARK    2  A    between atoms: C14_17  and  N3_18 
ROOT
HETATM    1  C2  UNL     1      22.534  -0.011  53.862  1.00  0.00     0.298 C 
HETATM    2  C3  UNL     1      23.725   0.860  53.354  1.00  0.00     0.097 C 
HETATM    3  C4  UNL     1      23.024   1.862  52.649  1.00  0.00     0.230 C 
HETATM    4  O1  UNL     1      22.256   1.099  51.695  1.00  0.00    -0.330 OA
HETATM    5  C5  UNL     1      20.957   1.209  52.161  1.00  0.00     0.193 C 
HETATM    6  C6  UNL     1      19.999   0.272  51.497  1.00  0.00     0.080 C 
HETATM    7  N2  UNL     1      20.632   2.586  52.021  1.00  0.00    -0.372 N 
HETATM    8  C7  UNL     1      21.291   3.398  51.108  1.00  0.00     0.080 A 
HETATM    9  C8  UNL     1      21.790   2.501  49.933  1.00  0.00     0.037 A 
HETATM   10  C9  UNL     1      22.219   2.053  48.739  1.00  0.00    -0.011 C 
HETATM   11  C10 UNL     1      22.385   3.003  47.617  1.00  0.00     0.009 C 
HETATM   12  C11 UNL     1      21.876   4.201  47.844  1.00  0.00    -0.029 C 
HETATM   13  C12 UNL     1      20.901   4.386  48.718  1.00  0.00     0.002 C 
HETATM   14  C13 UNL     1      21.592   3.955  49.943  1.00  0.00     0.063 A 
HETATM   15  C14 UNL     1      22.782   4.720  50.446  1.00  0.00     0.221 A 
HETATM   16  C15 UNL     1      24.146   4.295  50.171  1.00  0.00     0.010 A 
HETATM   17  C16 UNL     1      25.157   4.663  49.278  1.00  0.00     0.012 A 
HETATM   18  C17 UNL     1      26.420   4.064  49.279  1.00  0.00     0.001 A 
HETATM   19  C18 UNL     1      26.719   3.057  50.192  1.00  0.00     0.002 A 
HETATM   20  C19 UNL     1      25.766   2.634  51.111  1.00  0.00     0.030 A 
HETATM   21  C20 UNL     1      24.575   3.276  51.026  1.00  0.00     0.041 A 
HETATM   22  N4  UNL     1      23.449   2.948  51.864  1.00  0.00    -0.343 N 
HETATM   23  C21 UNL     1      22.524   4.122  51.741  1.00  0.00     0.161 A 
HETATM   24  C22 UNL     1      21.216   0.705  53.573  1.00  0.00     0.214 C 
HETATM   25  O2  UNL     1      20.306   0.935  54.353  1.00  0.00    -0.290 OA
HETATM   26  H12 UNL     1      19.632   2.781  52.175  1.00  0.00     0.157 HD
ENDROOT
BRANCH   1  27
HETATM   27  N1  UNL     1      22.539  -1.315  53.278  1.00  0.00     0.091 N 
HETATM   28  C1  UNL     1      21.617  -2.153  54.023  1.00  0.00     0.307 C 
HETATM   29  H4  UNL     1      23.497  -1.700  53.258  1.00  0.00     0.316 HD
ENDBRANCH   1  27
BRANCH  15  30
HETATM   30  N3  UNL     1      22.605   6.164  50.431  1.00  0.00     0.096 N 
HETATM   31  H16 UNL     1      21.740   6.462  49.941  1.00  0.00     0.314 HD
HETATM   32  H17 UNL     1      22.731   6.586  51.361  1.00  0.00     0.314 HD
ENDBRANCH  15  30
TORSDOF 2
ENDMDL
MODEL 6
REMARK VINA RESULT:      -8.0      8.338     10.839
REMARK  2 active torsions:
REMARK  status: ('A' for Active; 'I' for Inactive)
REMARK    1  A    between atoms: N1_2  and  C2_3 
REMARK    2  A    between atoms: C14_17  and  N3_18 
ROOT
HETATM    1  C2  UNL     1      34.519   8.434  46.963  1.00  0.00     0.298 C 
HETATM    2  C3  UNL     1      33.650   9.715  47.170  1.00  0.00     0.097 C 
HETATM    3  C4  UNL     1      32.511   9.152  47.786  1.00  0.00     0.230 C 
HETATM    4  O1  UNL     1      32.087   8.164  46.824  1.00  0.00    -0.330 OA
HETATM    5  C5  UNL     1      32.402   6.961  47.433  1.00  0.00     0.193 C 
HETATM    6  C6  UNL     1      32.312   5.782  46.516  1.00  0.00     0.080 C 
HETATM    7  N2  UNL     1      31.555   6.892  48.571  1.00  0.00    -0.372 N 
HETATM    8  C7  UNL     1      30.363   7.601  48.633  1.00  0.00     0.080 A 
HETATM    9  C8  UNL     1      29.843   7.805  47.176  1.00  0.00     0.037 A 
HETATM   10  C9  UNL     1      29.070   8.022  46.096  1.00  0.00    -0.011 C 
HETATM   11  C10 UNL     1      27.620   8.258  46.269  1.00  0.00     0.009 C 
HETATM   12  C11 UNL     1      27.174   8.009  47.488  1.00  0.00    -0.029 C 
HETATM   13  C12 UNL     1      27.804   7.177  48.301  1.00  0.00     0.002 C 
HETATM   14  C13 UNL     1      29.085   7.889  48.429  1.00  0.00     0.063 A 
HETATM   15  C14 UNL     1      29.132   9.246  49.070  1.00  0.00     0.221 A 
HETATM   16  C15 UNL     1      29.146  10.470  48.285  1.00  0.00     0.010 A 
HETATM   17  C16 UNL     1      28.211  11.442  47.914  1.00  0.00     0.012 A 
HETATM   18  C17 UNL     1      28.548  12.562  47.149  1.00  0.00     0.001 A 
HETATM   19  C18 UNL     1      29.860  12.751  46.722  1.00  0.00     0.002 A 
HETATM   20  C19 UNL     1      30.847  11.828  47.048  1.00  0.00     0.030 A 
HETATM   21  C20 UNL     1      30.416  10.779  47.791  1.00  0.00     0.041 A 
HETATM   22  N4  UNL     1      31.281   9.697  48.190  1.00  0.00    -0.343 N 
HETATM   23  C21 UNL     1      30.543   9.005  49.298  1.00  0.00     0.161 A 
HETATM   24  C22 UNL     1      33.873   7.255  47.689  1.00  0.00     0.214 C 
HETATM   25  O2  UNL     1      34.399   6.485  48.476  1.00  0.00    -0.290 OA
HETATM   26  H12 UNL     1      31.565   5.967  49.025  1.00  0.00     0.157 HD
ENDROOT
BRANCH   1  27
HETATM   27  N1  UNL     1      34.707   8.134  45.580  1.00  0.00     0.091 N 
HETATM   28  C1  UNL     1      35.078   9.358  44.893  1.00  0.00     0.307 C 
HETATM   29  H4  UNL     1      33.858   7.699  45.184  1.00  0.00     0.316 HD
ENDBRANCH   1  27
BRANCH  15  30
HETATM   30  N3  UNL     1      28.357   9.346  50.298  1.00  0.00     0.096 N 
HETATM   31  H16 UNL     1      28.894   9.757  51.085  1.00  0.00     0.314 HD
HETATM   32  H17 UNL     1      27.433   9.774  50.146  1.00  0.00     0.314 HD
ENDBRANCH  15  30
TORSDOF 2
ENDMDL
MODEL 7
REMARK VINA RESULT:      -7.9      1.764      3.945
REMARK  2 active torsions:
REMARK  status: ('A' for Active; 'I' for Inactive)
REMARK    1  A    between atoms: N1_2  and  C2_3 
REMARK    2  A    between atoms: C14_17  and  N3_18 
ROOT
HETATM    1  C2  UNL     1      25.508  -0.836  53.835  1.00  0.00     0.298 C 
HETATM    2  C3  UNL     1      24.034  -0.599  53.380  1.00  0.00     0.097 C 
HETATM    3  C4  UNL     1      24.218   0.460  52.464  1.00  0.00     0.230 C 
HETATM    4  O1  UNL     1      24.874   1.462  53.268  1.00  0.00    -0.330 OA
HETATM    5  C5  UNL     1      26.171   1.471  52.782  1.00  0.00     0.193 C 
HETATM    6  C6  UNL     1      27.128   2.237  53.640  1.00  0.00     0.080 C 
HETATM    7  N2  UNL     1      26.060   1.947  51.448  1.00  0.00    -0.372 N 
HETATM    8  C7  UNL     1      24.984   2.723  51.041  1.00  0.00     0.080 A 
HETATM    9  C8  UNL     1      24.445   3.496  52.284  1.00  0.00     0.037 A 
HETATM   10  C9  UNL     1      23.846   4.389  53.094  1.00  0.00    -0.011 C 
HETATM   11  C10 UNL     1      23.129   5.543  52.508  1.00  0.00     0.009 C 
HETATM   12  C11 UNL     1      23.337   5.707  51.214  1.00  0.00    -0.029 C 
HETATM   13  C12 UNL     1      24.426   5.244  50.622  1.00  0.00     0.002 C 
HETATM   14  C13 UNL     1      24.238   3.805  50.865  1.00  0.00     0.063 A 
HETATM   15  C14 UNL     1      23.069   3.085  50.259  1.00  0.00     0.221 A 
HETATM   16  C15 UNL     1      21.850   2.822  51.008  1.00  0.00     0.010 A 
HETATM   17  C16 UNL     1      20.573   3.387  51.088  1.00  0.00     0.012 A 
HETATM   18  C17 UNL     1      19.568   2.872  51.912  1.00  0.00     0.001 A 
HETATM   19  C18 UNL     1      19.814   1.750  52.699  1.00  0.00     0.002 A 
HETATM   20  C19 UNL     1      21.059   1.132  52.676  1.00  0.00     0.030 A 
HETATM   21  C20 UNL     1      21.961   1.710  51.846  1.00  0.00     0.041 A 
HETATM   22  N4  UNL     1      23.318   1.241  51.719  1.00  0.00    -0.343 N 
HETATM   23  C21 UNL     1      23.822   1.861  50.449  1.00  0.00     0.161 A 
HETATM   24  C22 UNL     1      26.453  -0.014  52.960  1.00  0.00     0.214 C 
HETATM   25  O2  UNL     1      27.443  -0.402  52.362  1.00  0.00    -0.290 OA
HETATM   26  H12 UNL     1      26.973   2.163  51.020  1.00  0.00     0.157 HD
ENDROOT
BRANCH   1  27
HETATM   27  N1  UNL     1      25.697  -0.523  55.216  1.00  0.00     0.091 N 
HETATM   28  C1  UNL     1      24.625  -1.139  55.976  1.00  0.00     0.307 C 
HETATM   29  H4  UNL     1      25.744   0.500  55.352  1.00  0.00     0.316 HD
ENDBRANCH   1  27
BRANCH  15  30
HETATM   30  N3  UNL     1      22.837   3.409  48.859  1.00  0.00     0.096 N 
HETATM   31  H16 UNL     1      23.386   4.228  48.535  1.00  0.00     0.314 HD
HETATM   32  H17 UNL     1      22.907   2.584  48.247  1.00  0.00     0.314 HD
ENDBRANCH  15  30
TORSDOF 2
ENDMDL
MODEL 8
REMARK VINA RESULT:      -7.8      7.718     11.144
REMARK  2 active torsions:
REMARK  status: ('A' for Active; 'I' for Inactive)
REMARK    1  A    between atoms: N1_2  and  C2_3 
REMARK    2  A    between atoms: C14_17  and  N3_18 
ROOT
HETATM    1  C2  UNL     1      27.850   7.200  48.559  1.00  0.00     0.298 C 
HETATM    2  C3  UNL     1      28.903   6.066  48.352  1.00  0.00     0.097 C 
HETATM    3  C4  UNL     1      30.097   6.818  48.401  1.00  0.00     0.230 C 
HETATM    4  O1  UNL     1      29.901   7.792  47.355  1.00  0.00    -0.330 OA
HETATM    5  C5  UNL     1      29.708   8.976  48.046  1.00  0.00     0.193 C 
HETATM    6  C6  UNL     1      29.206  10.096  47.189  1.00  0.00     0.080 C 
HETATM    7  N2  UNL     1      30.948   9.233  48.690  1.00  0.00    -0.372 N 
HETATM    8  C7  UNL     1      32.137   8.699  48.213  1.00  0.00     0.080 A 
HETATM    9  C8  UNL     1      31.988   8.478  46.676  1.00  0.00     0.037 A 
HETATM   10  C9  UNL     1      32.231   8.300  45.364  1.00  0.00    -0.011 C 
HETATM   11  C10 UNL     1      33.627   8.278  44.874  1.00  0.00     0.009 C 
HETATM   12  C11 UNL     1      34.519   8.661  45.770  1.00  0.00    -0.029 C 
HETATM   13  C12 UNL     1      34.193   9.449  46.781  1.00  0.00     0.002 C 
HETATM   14  C13 UNL     1      33.223   8.578  47.461  1.00  0.00     0.063 A 
HETATM   15  C14 UNL     1      33.668   7.270  48.051  1.00  0.00     0.221 A 
HETATM   16  C15 UNL     1      33.496   6.008  47.348  1.00  0.00     0.010 A 
HETATM   17  C16 UNL     1      34.307   5.153  46.597  1.00  0.00     0.012 A 
HETATM   18  C17 UNL     1      33.842   3.950  46.056  1.00  0.00     0.001 A 
HETATM   19  C18 UNL     1      32.521   3.557  46.255  1.00  0.00     0.002 A 
HETATM   20  C19 UNL     1      31.651   4.354  46.990  1.00  0.00     0.030 A 
HETATM   21  C20 UNL     1      32.201   5.497  47.468  1.00  0.00     0.041 A 
HETATM   22  N4  UNL     1      31.447   6.473  48.215  1.00  0.00    -0.343 N 
HETATM   23  C21 UNL     1      32.482   7.329  48.882  1.00  0.00     0.161 A 
HETATM   24  C22 UNL     1      28.562   8.500  48.927  1.00  0.00     0.214 C 
HETATM   25  O2  UNL     1      28.326   9.239  49.870  1.00  0.00    -0.290 OA
HETATM   26  H12 UNL     1      30.999  10.175  49.106  1.00  0.00     0.157 HD
ENDROOT
BRANCH   1  27
HETATM   27  N1  UNL     1      27.030   7.383  47.404  1.00  0.00     0.091 N 
HETATM   28  C1  UNL     1      25.728   7.855  47.837  1.00  0.00     0.307 C 
HETATM   29  H4  UNL     1      26.973   6.508  46.856  1.00  0.00     0.316 HD
ENDBRANCH   1  27
BRANCH  15  30
HETATM   30  N3  UNL     1      34.909   7.355  48.806  1.00  0.00     0.096 N 
HETATM   31  H16 UNL     1      34.784   7.157  49.817  1.00  0.00     0.314 HD
HETATM   32  H17 UNL     1      35.676   6.830  48.364  1.00  0.00     0.314 HD
ENDBRANCH  15  30
TORSDOF 2
ENDMDL
MODEL 9
REMARK VINA RESULT:      -7.8      8.093     10.304
REMARK  2 active torsions:
REMARK  status: ('A' for Active; 'I' for Inactive)
REMARK    1  A    between atoms: N1_2  and  C2_3 
REMARK    2  A    between atoms: C14_17  and  N3_18 
ROOT
HETATM    1  C2  UNL     1      32.876   5.879  48.077  1.00  0.00     0.298 C 
HETATM    2  C3  UNL     1      33.210   7.317  47.568  1.00  0.00     0.097 C 
HETATM    3  C4  UNL     1      32.086   8.024  48.049  1.00  0.00     0.230 C 
HETATM    4  O1  UNL     1      30.984   7.308  47.455  1.00  0.00    -0.330 OA
HETATM    5  C5  UNL     1      30.410   6.646  48.527  1.00  0.00     0.193 C 
HETATM    6  C6  UNL     1      29.407   5.610  48.126  1.00  0.00     0.080 C 
HETATM    7  N2  UNL     1      29.896   7.675  49.362  1.00  0.00    -0.372 N 
HETATM    8  C7  UNL     1      29.584   8.930  48.858  1.00  0.00     0.080 A 
HETATM    9  C8  UNL     1      29.212   8.770  47.352  1.00  0.00     0.037 A 
HETATM   10  C9  UNL     1      28.716   8.954  46.114  1.00  0.00    -0.011 C 
HETATM   11  C10 UNL     1      27.898  10.152  45.824  1.00  0.00     0.009 C 
HETATM   12  C11 UNL     1      27.544  10.837  46.897  1.00  0.00    -0.029 C 
HETATM   13  C12 UNL     1      27.473  10.270  48.090  1.00  0.00     0.002 C 
HETATM   14  C13 UNL     1      28.882   9.879  48.253  1.00  0.00     0.063 A 
HETATM   15  C14 UNL     1      29.952  10.930  48.330  1.00  0.00     0.221 A 
HETATM   16  C15 UNL     1      30.751  11.305  47.174  1.00  0.00     0.010 A 
HETATM   17  C16 UNL     1      30.757  12.353  46.249  1.00  0.00     0.012 A 
HETATM   18  C17 UNL     1      31.707  12.456  45.228  1.00  0.00     0.001 A 
HETATM   19  C18 UNL     1      32.703  11.491  45.099  1.00  0.00     0.002 A 
HETATM   20  C19 UNL     1      32.764  10.418  45.979  1.00  0.00     0.030 A 
HETATM   21  C20 UNL     1      31.797  10.411  46.929  1.00  0.00     0.041 A 
HETATM   22  N4  UNL     1      31.667   9.357  47.904  1.00  0.00    -0.343 N 
HETATM   23  C21 UNL     1      30.782   9.929  48.972  1.00  0.00     0.161 A 
HETATM   24  C22 UNL     1      31.666   5.934  49.008  1.00  0.00     0.214 C 
HETATM   25  O2  UNL     1      31.566   5.463  50.129  1.00  0.00    -0.290 OA
HETATM   26  H12 UNL     1      29.293   7.317  50.117  1.00  0.00     0.157 HD
ENDROOT
BRANCH   1  27
HETATM   27  N1  UNL     1      32.643   4.973  46.998  1.00  0.00     0.091 N 
HETATM   28  C1  UNL     1      32.785   3.619  47.500  1.00  0.00     0.307 C 
HETATM   29  H4  UNL     1      33.281   5.173  46.211  1.00  0.00     0.316 HD
ENDBRANCH   1  27
BRANCH  15  30
HETATM   30  N3  UNL     1      29.619  12.048  49.200  1.00  0.00     0.096 N 
HETATM   31  H16 UNL     1      29.348  12.903  48.676  1.00  0.00     0.314 HD
HETATM   32  H17 UNL     1      28.965  11.784  49.948  1.00  0.00     0.314 HD
ENDBRANCH  15  30
TORSDOF 2
ENDMDL
