MODEL 1
REMARK VINA RESULT:      -7.1      0.000      0.000
REMARK  5 active torsions:
REMARK  status: ('A' for Active; 'I' for Inactive)
REMARK    1  A    between atoms: O1_2  and  C2_3 
REMARK    2  A    between atoms: C10_11  and  C11_12 
REMARK    3  A    between atoms: C11_12  and  C12_13 
REMARK    4  A    between atoms: C12_13  and  C13_14 
REMARK    5  A    between atoms: C13_14  and  O3_16 
ROOT
HETATM    1  C2  UNL     1      25.393   2.586  52.841  1.00  0.00     0.064 C 
HETATM    2  C3  UNL     1      26.195   2.303  51.810  1.00  0.00     0.010 C 
HETATM    3  C4  UNL     1      26.472   2.200  50.386  1.00  0.00     0.032 C 
HETATM    4  C5  UNL     1      26.205   3.344  49.501  1.00  0.00     0.032 C 
HETATM    5  C6  UNL     1      24.892   3.953  49.353  1.00  0.00     0.216 A 
HETATM    6  C7  UNL     1      23.725   3.263  48.960  1.00  0.00     0.028 C 
HETATM    7  C8  UNL     1      22.539   3.823  49.319  1.00  0.00    -0.050 C 
HETATM    8  C9  UNL     1      21.908   4.988  48.683  1.00  0.00     0.046 C 
HETATM    9  C10 UNL     1      22.017   2.948  50.357  1.00  0.00    -0.006 C 
HETATM   10  C14 UNL     1      20.921   2.397  49.444  1.00  0.00     0.034 C 
HETATM   11  C15 UNL     1      21.701   1.882  48.218  1.00  0.00     0.120 C 
HETATM   12  N1  UNL     1      23.155   2.140  48.275  1.00  0.00    -0.392 N 
HETATM   13  C16 UNL     1      21.837   3.711  51.517  1.00  0.00     0.024 C 
HETATM   14  C17 UNL     1      22.838   3.427  52.660  1.00  0.00    -0.018 C 
HETATM   15  C18 UNL     1      24.022   3.050  53.112  1.00  0.00     0.033 C 
HETATM   16  C19 UNL     1      21.774   5.176  51.749  1.00  0.00     0.037 C 
HETATM   17  C20 UNL     1      23.065   5.926  51.586  1.00  0.00    -0.014 C 
HETATM   18  C21 UNL     1      24.327   5.963  51.136  1.00  0.00     0.059 C 
HETATM   19  N2  UNL     1      24.602   4.769  50.518  1.00  0.00    -0.258 NA
HETATM   20  C22 UNL     1      24.723   5.541  49.267  1.00  0.00     0.400 A 
HETATM   21  O4  UNL     1      24.610   6.773  48.952  1.00  0.00    -0.425 OA
HETATM   22  H22 UNL     1      24.045   1.671  47.913  1.00  0.00     0.159 HD
ENDROOT
BRANCH   9  23
HETATM   23  C11 UNL     1      22.620   1.612  50.652  1.00  0.00     0.025 C 
BRANCH  23  24
HETATM   24  C12 UNL     1      21.550   0.611  51.059  1.00  0.00     0.111 C 
BRANCH  24  25
HETATM   25  C13 UNL     1      21.964  -0.028  52.373  1.00  0.00     0.139 C 
HETATM   26  O2  UNL     1      20.997  -0.350  53.111  1.00  0.00    -0.650 OA
BRANCH  25  27
HETATM   27  O3  UNL     1      23.264  -0.270  52.799  1.00  0.00    -0.776 OA
HETATM   28  H17 UNL     1      23.617  -1.225  52.926  1.00  0.00     0.167 HD
ENDBRANCH  25  27
ENDBRANCH  24  25
ENDBRANCH  23  24
ENDBRANCH   9  23
BRANCH   1  29
HETATM   29  O1  UNL     1      26.050   2.373  54.092  1.00  0.00    -0.356 OA
HETATM   30  C1  UNL     1      26.570   1.072  54.276  1.00  0.00     0.210 C 
ENDBRANCH   1  29
TORSDOF 5
ENDMDL
MODEL 2
REMARK VINA RESULT:      -6.9      6.932     10.134
REMARK  5 active torsions:
REMARK  status: ('A' for Active; 'I' for Inactive)
REMARK    1  A    between atoms: O1_2  and  C2_3 
REMARK    2  A    between atoms: C10_11  and  C11_12 
REMARK    3  A    between atoms: C11_12  and  C12_13 
REMARK    4  A    between atoms: C12_13  and  C13_14 
REMARK    5  A    between atoms: C13_14  and  O3_16 
ROOT
HETATM    1  C2  UNL     1      27.685   9.485  46.596  1.00  0.00     0.064 C 
HETATM    2  C3  UNL     1      27.735  10.146  47.757  1.00  0.00     0.010 C 
HETATM    3  C4  UNL     1      28.397  10.518  48.997  1.00  0.00     0.032 C 
HETATM    4  C5  UNL     1      29.776  11.031  48.968  1.00  0.00     0.032 C 
HETATM    5  C6  UNL     1      30.897  10.282  48.421  1.00  0.00     0.216 A 
HETATM    6  C7  UNL     1      31.290   8.995  48.847  1.00  0.00     0.028 C 
HETATM    7  C8  UNL     1      32.010   8.257  47.961  1.00  0.00    -0.050 C 
HETATM    8  C9  UNL     1      33.432   8.442  47.639  1.00  0.00     0.046 C 
HETATM    9  C10 UNL     1      31.098   7.210  47.527  1.00  0.00    -0.006 C 
HETATM   10  C14 UNL     1      31.857   6.128  48.297  1.00  0.00     0.034 C 
HETATM   11  C15 UNL     1      31.893   6.672  49.738  1.00  0.00     0.120 C 
HETATM   12  N1  UNL     1      31.294   8.015  49.892  1.00  0.00    -0.392 N 
HETATM   13  C16 UNL     1      30.957   7.306  46.138  1.00  0.00     0.024 C 
HETATM   14  C17 UNL     1      29.589   7.830  45.645  1.00  0.00    -0.018 C 
HETATM   15  C18 UNL     1      28.491   8.553  45.790  1.00  0.00     0.033 C 
HETATM   16  C19 UNL     1      31.755   8.005  45.099  1.00  0.00     0.037 C 
HETATM   17  C20 UNL     1      31.675   9.505  45.104  1.00  0.00    -0.014 C 
HETATM   18  C21 UNL     1      31.342  10.639  45.736  1.00  0.00     0.059 C 
HETATM   19  N2  UNL     1      30.840  10.316  46.971  1.00  0.00    -0.258 NA
HETATM   20  C22 UNL     1      32.017  11.003  47.536  1.00  0.00     0.400 A 
HETATM   21  O4  UNL     1      33.027  11.611  47.047  1.00  0.00    -0.425 OA
HETATM   22  H22 UNL     1      30.779   8.556  50.658  1.00  0.00     0.159 HD
ENDROOT
BRANCH   9  23
HETATM   23  C11 UNL     1      29.790   6.957  48.208  1.00  0.00     0.025 C 
BRANCH  23  24
HETATM   24  C12 UNL     1      29.348   5.514  48.016  1.00  0.00     0.111 C 
BRANCH  24  25
HETATM   25  C13 UNL     1      27.948   5.362  48.582  1.00  0.00     0.139 C 
HETATM   26  O2  UNL     1      27.139   6.241  48.187  1.00  0.00    -0.650 OA
BRANCH  25  27
HETATM   27  O3  UNL     1      27.516   4.374  49.459  1.00  0.00    -0.776 OA
HETATM   28  H17 UNL     1      27.625   3.378  49.239  1.00  0.00     0.167 HD
ENDBRANCH  25  27
ENDBRANCH  24  25
ENDBRANCH  23  24
ENDBRANCH   9  23
BRANCH   1  29
HETATM   29  O1  UNL     1      26.466   9.745  45.896  1.00  0.00    -0.356 OA
HETATM   30  C1  UNL     1      25.519   8.698  45.942  1.00  0.00     0.210 C 
ENDBRANCH   1  29
TORSDOF 5
ENDMDL
MODEL 3
REMARK VINA RESULT:      -6.8      7.398      9.630
REMARK  5 active torsions:
REMARK  status: ('A' for Active; 'I' for Inactive)
REMARK    1  A    between atoms: O1_2  and  C2_3 
REMARK    2  A    between atoms: C10_11  and  C11_12 
REMARK    3  A    between atoms: C11_12  and  C12_13 
REMARK    4  A    between atoms: C12_13  and  C13_14 
REMARK    5  A    between atoms: C13_14  and  O3_16 
ROOT
HETATM    1  C2  UNL     1      32.494   6.778  48.167  1.00  0.00     0.064 C 
HETATM    2  C3  UNL     1      32.719   6.458  46.889  1.00  0.00     0.010 C 
HETATM    3  C4  UNL     1      32.441   6.572  45.466  1.00  0.00     0.032 C 
HETATM    4  C5  UNL     1      32.391   7.899  44.832  1.00  0.00     0.032 C 
HETATM    5  C6  UNL     1      31.475   8.951  45.248  1.00  0.00     0.216 A 
HETATM    6  C7  UNL     1      30.070   8.822  45.295  1.00  0.00     0.028 C 
HETATM    7  C8  UNL     1      29.411   9.675  46.123  1.00  0.00    -0.050 C 
HETATM    8  C9  UNL     1      29.141  11.096  45.861  1.00  0.00     0.046 C 
HETATM    9  C10 UNL     1      28.951   8.841  47.222  1.00  0.00    -0.006 C 
HETATM   10  C14 UNL     1      27.492   8.926  46.775  1.00  0.00     0.034 C 
HETATM   11  C15 UNL     1      27.538   8.444  45.311  1.00  0.00     0.120 C 
HETATM   12  N1  UNL     1      28.899   8.151  44.814  1.00  0.00    -0.392 N 
HETATM   13  C16 UNL     1      29.495   9.349  48.409  1.00  0.00     0.024 C 
HETATM   14  C17 UNL     1      30.607   8.489  49.050  1.00  0.00    -0.018 C 
HETATM   15  C18 UNL     1      31.608   7.628  48.980  1.00  0.00     0.033 C 
HETATM   16  C19 UNL     1      30.119  10.654  48.743  1.00  0.00     0.037 C 
HETATM   17  C20 UNL     1      31.470  10.912  48.140  1.00  0.00    -0.014 C 
HETATM   18  C21 UNL     1      32.409  10.595  47.238  1.00  0.00     0.059 C 
HETATM   19  N2  UNL     1      31.949   9.545  46.485  1.00  0.00    -0.258 NA
HETATM   20  C22 UNL     1      31.954  10.474  45.338  1.00  0.00     0.400 A 
HETATM   21  O4  UNL     1      32.259  11.702  45.175  1.00  0.00    -0.425 OA
HETATM   22  H22 UNL     1      29.343   7.486  44.104  1.00  0.00     0.159 HD
ENDROOT
BRANCH   9  23
HETATM   23  C11 UNL     1      29.014   7.347  47.171  1.00  0.00     0.025 C 
BRANCH  23  24
HETATM   24  C12 UNL     1      27.926   6.728  48.035  1.00  0.00     0.111 C 
BRANCH  24  25
HETATM   25  C13 UNL     1      28.386   5.350  48.473  1.00  0.00     0.139 C 
HETATM   26  O2  UNL     1      29.510   5.017  48.015  1.00  0.00    -0.650 OA
BRANCH  25  27
HETATM   27  O3  UNL     1      27.694   4.472  49.299  1.00  0.00    -0.776 OA
HETATM   28  H17 UNL     1      26.874   3.954  48.963  1.00  0.00     0.167 HD
ENDBRANCH  25  27
ENDBRANCH  24  25
ENDBRANCH  23  24
ENDBRANCH   9  23
BRANCH   1  29
HETATM   29  O1  UNL     1      33.379   6.081  49.047  1.00  0.00    -0.356 OA
HETATM   30  C1  UNL     1      34.743   6.132  48.680  1.00  0.00     0.210 C 
ENDBRANCH   1  29
TORSDOF 5
ENDMDL
MODEL 4
REMARK VINA RESULT:      -6.7      1.881      5.016
REMARK  5 active torsions:
REMARK  status: ('A' for Active; 'I' for Inactive)
REMARK    1  A    between atoms: O1_2  and  C2_3 
REMARK    2  A    between atoms: C10_11  and  C11_12 
REMARK    3  A    between atoms: C11_12  and  C12_13 
REMARK    4  A    between atoms: C12_13  and  C13_14 
REMARK    5  A    between atoms: C13_14  and  O3_16 
ROOT
HETATM    1  C2  UNL     1      25.579   2.896  50.937  1.00  0.00     0.064 C 
HETATM    2  C3  UNL     1      25.102   3.003  52.181  1.00  0.00     0.010 C 
HETATM    3  C4  UNL     1      24.085   3.411  53.139  1.00  0.00     0.032 C 
HETATM    4  C5  UNL     1      22.684   3.010  52.938  1.00  0.00     0.032 C 
HETATM    5  C6  UNL     1      21.916   3.353  51.751  1.00  0.00     0.216 A 
HETATM    6  C7  UNL     1      21.700   4.667  51.284  1.00  0.00     0.028 C 
HETATM    7  C8  UNL     1      21.394   4.801  49.966  1.00  0.00    -0.050 C 
HETATM    8  C9  UNL     1      20.093   4.507  49.348  1.00  0.00     0.046 C 
HETATM    9  C10 UNL     1      22.580   5.396  49.371  1.00  0.00    -0.006 C 
HETATM   10  C14 UNL     1      21.889   6.745  49.163  1.00  0.00     0.034 C 
HETATM   11  C15 UNL     1      21.379   7.106  50.573  1.00  0.00     0.120 C 
HETATM   12  N1  UNL     1      21.632   6.066  51.592  1.00  0.00    -0.392 N 
HETATM   13  C16 UNL     1      23.046   4.532  48.373  1.00  0.00     0.024 C 
HETATM   14  C17 UNL     1      24.357   3.783  48.704  1.00  0.00    -0.018 C 
HETATM   15  C18 UNL     1      25.211   3.236  49.553  1.00  0.00     0.033 C 
HETATM   16  C19 UNL     1      22.412   3.392  47.662  1.00  0.00     0.037 C 
HETATM   17  C20 UNL     1      22.180   2.153  48.479  1.00  0.00    -0.014 C 
HETATM   18  C21 UNL     1      22.102   1.561  49.679  1.00  0.00     0.059 C 
HETATM   19  N2  UNL     1      22.330   2.509  50.645  1.00  0.00    -0.258 NA
HETATM   20  C22 UNL     1      20.934   2.291  51.068  1.00  0.00     0.400 A 
HETATM   21  O4  UNL     1      19.978   1.542  50.675  1.00  0.00    -0.425 OA
HETATM   22  H22 UNL     1      21.814   6.034  52.645  1.00  0.00     0.159 HD
ENDROOT
BRANCH   9  23
HETATM   23  C11 UNL     1      23.696   5.951  50.198  1.00  0.00     0.025 C 
BRANCH  23  24
HETATM   24  C12 UNL     1      24.401   7.084  49.469  1.00  0.00     0.111 C 
BRANCH  24  25
HETATM   25  C13 UNL     1      25.853   7.110  49.912  1.00  0.00     0.139 C 
HETATM   26  O2  UNL     1      26.624   6.446  49.171  1.00  0.00    -0.650 OA
BRANCH  25  27
HETATM   27  O3  UNL     1      26.367   7.777  51.017  1.00  0.00    -0.776 OA
HETATM   28  H17 UNL     1      25.762   8.316  51.647  1.00  0.00     0.167 HD
ENDBRANCH  25  27
ENDBRANCH  24  25
ENDBRANCH  23  24
ENDBRANCH   9  23
BRANCH   1  29
HETATM   29  O1  UNL     1      26.855   2.253  50.918  1.00  0.00    -0.356 OA
HETATM   30  C1  UNL     1      27.106   1.399  52.015  1.00  0.00     0.210 C 
ENDBRANCH   1  29
TORSDOF 5
ENDMDL
MODEL 5
REMARK VINA RESULT:      -6.5      2.331      5.130
REMARK  5 active torsions:
REMARK  status: ('A' for Active; 'I' for Inactive)
REMARK    1  A    between atoms: O1_2  and  C2_3 
REMARK    2  A    between atoms: C10_11  and  C11_12 
REMARK    3  A    between atoms: C11_12  and  C12_13 
REMARK    4  A    between atoms: C12_13  and  C13_14 
REMARK    5  A    between atoms: C13_14  and  O3_16 
ROOT
HETATM    1  C2  UNL     1      19.062   1.082  50.680  1.00  0.00     0.064 C 
HETATM    2  C3  UNL     1      18.396   2.130  51.175  1.00  0.00     0.010 C 
HETATM    3  C4  UNL     1      18.293   3.538  51.531  1.00  0.00     0.032 C 
HETATM    4  C5  UNL     1      18.623   4.572  50.538  1.00  0.00     0.032 C 
HETATM    5  C6  UNL     1      19.922   4.677  49.893  1.00  0.00     0.216 A 
HETATM    6  C7  UNL     1      21.150   4.814  50.575  1.00  0.00     0.028 C 
HETATM    7  C8  UNL     1      22.266   4.429  49.899  1.00  0.00    -0.050 C 
HETATM    8  C9  UNL     1      22.927   5.183  48.825  1.00  0.00     0.046 C 
HETATM    9  C10 UNL     1      22.692   3.204  50.558  1.00  0.00    -0.006 C 
HETATM   10  C14 UNL     1      23.906   3.881  51.194  1.00  0.00     0.034 C 
HETATM   11  C15 UNL     1      23.294   5.078  51.949  1.00  0.00     0.120 C 
HETATM   12  N1  UNL     1      21.836   5.228  51.764  1.00  0.00    -0.392 N 
HETATM   13  C16 UNL     1      22.708   2.181  49.603  1.00  0.00     0.024 C 
HETATM   14  C17 UNL     1      21.590   1.123  49.745  1.00  0.00    -0.018 C 
HETATM   15  C18 UNL     1      20.374   0.746  50.105  1.00  0.00     0.033 C 
HETATM   16  C19 UNL     1      22.693   2.199  48.119  1.00  0.00     0.037 C 
HETATM   17  C20 UNL     1      21.404   2.631  47.478  1.00  0.00    -0.014 C 
HETATM   18  C21 UNL     1      20.204   3.217  47.585  1.00  0.00     0.059 C 
HETATM   19  N2  UNL     1      20.045   3.646  48.878  1.00  0.00    -0.258 NA
HETATM   20  C22 UNL     1      20.045   5.017  48.335  1.00  0.00     0.400 A 
HETATM   21  O4  UNL     1      20.152   5.525  47.169  1.00  0.00    -0.425 OA
HETATM   22  H22 UNL     1      21.011   5.599  52.335  1.00  0.00     0.159 HD
ENDROOT
BRANCH   9  23
HETATM   23  C11 UNL     1      22.104   2.750  51.857  1.00  0.00     0.025 C 
BRANCH  23  24
HETATM   24  C12 UNL     1      23.081   1.866  52.616  1.00  0.00     0.111 C 
BRANCH  24  25
HETATM   25  C13 UNL     1      22.299   0.752  53.287  1.00  0.00     0.139 C 
HETATM   26  O2  UNL     1      22.964  -0.301  53.470  1.00  0.00    -0.650 OA
BRANCH  25  27
HETATM   27  O3  UNL     1      20.971   0.806  53.695  1.00  0.00    -0.776 OA
HETATM   28  H17 UNL     1      20.612   0.189  54.433  1.00  0.00     0.167 HD
ENDBRANCH  25  27
ENDBRANCH  24  25
ENDBRANCH  23  24
ENDBRANCH   9  23
BRANCH   1  29
HETATM   29  O1  UNL     1      18.269  -0.107  50.716  1.00  0.00    -0.356 OA
HETATM   30  C1  UNL     1      17.981  -0.590  52.012  1.00  0.00     0.210 C 
ENDBRANCH   1  29
TORSDOF 5
ENDMDL
MODEL 6
REMARK VINA RESULT:      -6.4      2.220      4.932
REMARK  5 active torsions:
REMARK  status: ('A' for Active; 'I' for Inactive)
REMARK    1  A    between atoms: O1_2  and  C2_3 
REMARK    2  A    between atoms: C10_11  and  C11_12 
REMARK    3  A    between atoms: C11_12  and  C12_13 
REMARK    4  A    between atoms: C12_13  and  C13_14 
REMARK    5  A    between atoms: C13_14  and  O3_16 
ROOT
HETATM    1  C2  UNL     1      21.657   1.349  50.792  1.00  0.00     0.064 C 
HETATM    2  C3  UNL     1      21.194   2.126  51.775  1.00  0.00     0.010 C 
HETATM    3  C4  UNL     1      20.859   3.425  52.340  1.00  0.00     0.032 C 
HETATM    4  C5  UNL     1      20.010   4.357  51.583  1.00  0.00     0.032 C 
HETATM    5  C6  UNL     1      20.349   4.854  50.258  1.00  0.00     0.216 A 
HETATM    6  C7  UNL     1      21.541   5.539  49.936  1.00  0.00     0.028 C 
HETATM    7  C8  UNL     1      21.921   5.513  48.631  1.00  0.00    -0.050 C 
HETATM    8  C9  UNL     1      21.327   6.303  47.543  1.00  0.00     0.046 C 
HETATM    9  C10 UNL     1      23.088   4.645  48.605  1.00  0.00    -0.006 C 
HETATM   10  C14 UNL     1      24.043   5.812  48.351  1.00  0.00     0.034 C 
HETATM   11  C15 UNL     1      23.737   6.782  49.510  1.00  0.00     0.120 C 
HETATM   12  N1  UNL     1      22.636   6.342  50.392  1.00  0.00    -0.392 N 
HETATM   13  C16 UNL     1      22.817   3.581  47.736  1.00  0.00     0.024 C 
HETATM   14  C17 UNL     1      22.595   2.211  48.415  1.00  0.00    -0.018 C 
HETATM   15  C18 UNL     1      22.213   1.457  49.432  1.00  0.00     0.033 C 
HETATM   16  C19 UNL     1      21.784   3.385  46.688  1.00  0.00     0.037 C 
HETATM   17  C20 UNL     1      20.375   3.204  47.178  1.00  0.00    -0.014 C 
HETATM   18  C21 UNL     1      19.478   3.302  48.168  1.00  0.00     0.059 C 
HETATM   19  N2  UNL     1      20.107   3.815  49.274  1.00  0.00    -0.258 NA
HETATM   20  C22 UNL     1      19.235   4.994  49.119  1.00  0.00     0.400 A 
HETATM   21  O4  UNL     1      18.318   5.337  48.300  1.00  0.00    -0.425 OA
HETATM   22  H22 UNL     1      22.372   6.450  51.423  1.00  0.00     0.159 HD
ENDROOT
BRANCH   9  23
HETATM   23  C11 UNL     1      23.773   4.189  49.854  1.00  0.00     0.025 C 
BRANCH  23  24
HETATM   24  C12 UNL     1      25.242   3.897  49.592  1.00  0.00     0.111 C 
BRANCH  24  25
HETATM   25  C13 UNL     1      25.827   3.233  50.825  1.00  0.00     0.139 C 
HETATM   26  O2  UNL     1      24.976   2.638  51.537  1.00  0.00    -0.650 OA
BRANCH  25  27
HETATM   27  O3  UNL     1      27.163   3.233  51.207  1.00  0.00    -0.776 OA
HETATM   28  H17 UNL     1      27.598   4.057  51.637  1.00  0.00     0.167 HD
ENDBRANCH  25  27
ENDBRANCH  24  25
ENDBRANCH  23  24
ENDBRANCH   9  23
BRANCH   1  29
HETATM   29  O1  UNL     1      21.615  -0.034  51.151  1.00  0.00    -0.356 OA
HETATM   30  C1  UNL     1      21.824  -0.297  52.524  1.00  0.00     0.210 C 
ENDBRANCH   1  29
TORSDOF 5
ENDMDL
MODEL 7
REMARK VINA RESULT:      -6.3      8.917     11.300
REMARK  5 active torsions:
REMARK  status: ('A' for Active; 'I' for Inactive)
REMARK    1  A    between atoms: O1_2  and  C2_3 
REMARK    2  A    between atoms: C10_11  and  C11_12 
REMARK    3  A    between atoms: C11_12  and  C12_13 
REMARK    4  A    between atoms: C12_13  and  C13_14 
REMARK    5  A    between atoms: C13_14  and  O3_16 
ROOT
HETATM    1  C2  UNL     1      34.139   5.613  46.875  1.00  0.00     0.064 C 
HETATM    2  C3  UNL     1      33.758   5.059  45.720  1.00  0.00     0.010 C 
HETATM    3  C4  UNL     1      33.022   5.078  44.465  1.00  0.00     0.032 C 
HETATM    4  C5  UNL     1      33.168   6.218  43.546  1.00  0.00     0.032 C 
HETATM    5  C6  UNL     1      32.861   7.591  43.919  1.00  0.00     0.216 A 
HETATM    6  C7  UNL     1      31.613   8.031  44.410  1.00  0.00     0.028 C 
HETATM    7  C8  UNL     1      31.619   9.179  45.139  1.00  0.00    -0.050 C 
HETATM    8  C9  UNL     1      31.741  10.542  44.602  1.00  0.00     0.046 C 
HETATM    9  C10 UNL     1      31.361   8.750  46.505  1.00  0.00    -0.006 C 
HETATM   10  C14 UNL     1      29.949   9.339  46.501  1.00  0.00     0.034 C 
HETATM   11  C15 UNL     1      29.291   8.683  45.271  1.00  0.00     0.120 C 
HETATM   12  N1  UNL     1      30.198   7.814  44.491  1.00  0.00    -0.392 N 
HETATM   13  C16 UNL     1      32.438   9.162  47.299  1.00  0.00     0.024 C 
HETATM   14  C17 UNL     1      33.370   8.030  47.789  1.00  0.00    -0.018 C 
HETATM   15  C18 UNL     1      33.941   6.845  47.657  1.00  0.00     0.033 C 
HETATM   16  C19 UNL     1      33.523  10.150  47.077  1.00  0.00     0.037 C 
HETATM   17  C20 UNL     1      34.559   9.772  46.056  1.00  0.00    -0.014 C 
HETATM   18  C21 UNL     1      34.940   8.993  45.036  1.00  0.00     0.059 C 
HETATM   19  N2  UNL     1      33.924   8.114  44.758  1.00  0.00    -0.258 NA
HETATM   20  C22 UNL     1      33.799   8.801  43.458  1.00  0.00     0.400 A 
HETATM   21  O4  UNL     1      34.397   9.776  42.892  1.00  0.00    -0.425 OA
HETATM   22  H22 UNL     1      30.109   6.938  43.885  1.00  0.00     0.159 HD
ENDROOT
BRANCH   9  23
HETATM   23  C11 UNL     1      30.918   7.360  46.835  1.00  0.00     0.025 C 
BRANCH  23  24
HETATM   24  C12 UNL     1      30.222   7.318  48.186  1.00  0.00     0.111 C 
BRANCH  24  25
HETATM   25  C13 UNL     1      29.974   5.867  48.554  1.00  0.00     0.139 C 
HETATM   26  O2  UNL     1      30.985   5.128  48.429  1.00  0.00    -0.650 OA
BRANCH  25  27
HETATM   27  O3  UNL     1      28.775   5.320  48.996  1.00  0.00    -0.776 OA
HETATM   28  H17 UNL     1      28.250   4.648  48.425  1.00  0.00     0.167 HD
ENDBRANCH  25  27
ENDBRANCH  24  25
ENDBRANCH  23  24
ENDBRANCH   9  23
BRANCH   1  29
HETATM   29  O1  UNL     1      35.014   4.752  47.607  1.00  0.00    -0.356 OA
HETATM   30  C1  UNL     1      34.586   3.408  47.698  1.00  0.00     0.210 C 
ENDBRANCH   1  29
TORSDOF 5
ENDMDL
MODEL 8
REMARK VINA RESULT:      -6.3      7.633     10.580
REMARK  5 active torsions:
REMARK  status: ('A' for Active; 'I' for Inactive)
REMARK    1  A    between atoms: O1_2  and  C2_3 
REMARK    2  A    between atoms: C10_11  and  C11_12 
REMARK    3  A    between atoms: C11_12  and  C12_13 
REMARK    4  A    between atoms: C12_13  and  C13_14 
REMARK    5  A    between atoms: C13_14  and  O3_16 
ROOT
HETATM    1  C2  UNL     1      29.263  12.723  46.719  1.00  0.00     0.064 C 
HETATM    2  C3  UNL     1      29.868  12.858  47.903  1.00  0.00     0.010 C 
HETATM    3  C4  UNL     1      30.253  12.362  49.216  1.00  0.00     0.032 C 
HETATM    4  C5  UNL     1      30.917  11.055  49.341  1.00  0.00     0.032 C 
HETATM    5  C6  UNL     1      30.326   9.809  48.878  1.00  0.00     0.216 A 
HETATM    6  C7  UNL     1      29.072   9.311  49.293  1.00  0.00     0.028 C 
HETATM    7  C8  UNL     1      28.462   8.430  48.455  1.00  0.00    -0.050 C 
HETATM    8  C9  UNL     1      28.820   7.016  48.280  1.00  0.00     0.046 C 
HETATM    9  C10 UNL     1      27.342   9.170  47.895  1.00  0.00    -0.006 C 
HETATM   10  C14 UNL     1      26.316   8.366  48.694  1.00  0.00     0.034 C 
HETATM   11  C15 UNL     1      26.791   8.527  50.152  1.00  0.00     0.120 C 
HETATM   12  N1  UNL     1      28.049   9.290  50.296  1.00  0.00    -0.392 N 
HETATM   13  C16 UNL     1      27.489   9.191  46.503  1.00  0.00     0.024 C 
HETATM   14  C17 UNL     1      27.879  10.560  45.899  1.00  0.00    -0.018 C 
HETATM   15  C18 UNL     1      28.466  11.743  45.963  1.00  0.00     0.033 C 
HETATM   16  C19 UNL     1      28.321   8.387  45.573  1.00  0.00     0.037 C 
HETATM   17  C20 UNL     1      29.801   8.641  45.627  1.00  0.00    -0.014 C 
HETATM   18  C21 UNL     1      30.859   9.160  46.264  1.00  0.00     0.059 C 
HETATM   19  N2  UNL     1      30.423   9.734  47.432  1.00  0.00    -0.258 NA
HETATM   20  C22 UNL     1      31.209   8.703  48.134  1.00  0.00     0.400 A 
HETATM   21  O4  UNL     1      31.949   7.729  47.769  1.00  0.00    -0.425 OA
HETATM   22  H22 UNL     1      28.492   9.933  51.027  1.00  0.00     0.159 HD
ENDROOT
BRANCH   9  23
HETATM   23  C11 UNL     1      26.911  10.497  48.435  1.00  0.00     0.025 C 
BRANCH  23  24
HETATM   24  C12 UNL     1      25.466  10.792  48.064  1.00  0.00     0.111 C 
BRANCH  24  25
HETATM   25  C13 UNL     1      25.303  12.295  47.927  1.00  0.00     0.139 C 
HETATM   26  O2  UNL     1      26.160  12.962  48.563  1.00  0.00    -0.650 OA
BRANCH  25  27
HETATM   27  O3  UNL     1      24.326  12.955  47.191  1.00  0.00    -0.776 OA
HETATM   28  H17 UNL     1      23.528  12.452  46.786  1.00  0.00     0.167 HD
ENDBRANCH  25  27
ENDBRANCH  24  25
ENDBRANCH  23  24
ENDBRANCH   9  23
BRANCH   1  29
HETATM   29  O1  UNL     1      29.419  13.893  45.913  1.00  0.00    -0.356 OA
HETATM   30  C1  UNL     1      29.207  15.114  46.592  1.00  0.00     0.210 C 
ENDBRANCH   1  29
TORSDOF 5
ENDMDL
MODEL 9
REMARK VINA RESULT:      -6.2      2.490      5.164
REMARK  5 active torsions:
REMARK  status: ('A' for Active; 'I' for Inactive)
REMARK    1  A    between atoms: O1_2  and  C2_3 
REMARK    2  A    between atoms: C10_11  and  C11_12 
REMARK    3  A    between atoms: C11_12  and  C12_13 
REMARK    4  A    between atoms: C12_13  and  C13_14 
REMARK    5  A    between atoms: C13_14  and  O3_16 
ROOT
HETATM    1  C2  UNL     1      21.082   4.860  47.200  1.00  0.00     0.064 C 
HETATM    2  C3  UNL     1      20.350   5.743  47.886  1.00  0.00     0.010 C 
HETATM    3  C4  UNL     1      19.872   6.329  49.129  1.00  0.00     0.032 C 
HETATM    4  C5  UNL     1      20.834   6.750  50.159  1.00  0.00     0.032 C 
HETATM    5  C6  UNL     1      21.790   5.846  50.779  1.00  0.00     0.216 A 
HETATM    6  C7  UNL     1      21.450   4.656  51.458  1.00  0.00     0.028 C 
HETATM    7  C8  UNL     1      22.424   3.713  51.555  1.00  0.00    -0.050 C 
HETATM    8  C9  UNL     1      23.574   3.752  52.470  1.00  0.00     0.046 C 
HETATM    9  C10 UNL     1      21.998   2.649  50.660  1.00  0.00    -0.006 C 
HETATM   10  C14 UNL     1      21.656   1.711  51.818  1.00  0.00     0.034 C 
HETATM   11  C15 UNL     1      20.677   2.540  52.672  1.00  0.00     0.120 C 
HETATM   12  N1  UNL     1      20.456   3.914  52.177  1.00  0.00    -0.392 N 
HETATM   13  C16 UNL     1      22.999   2.463  49.699  1.00  0.00     0.024 C 
HETATM   14  C17 UNL     1      22.648   2.945  48.273  1.00  0.00    -0.018 C 
HETATM   15  C18 UNL     1      22.009   3.740  47.430  1.00  0.00     0.033 C 
HETATM   16  C19 UNL     1      24.421   2.888  49.642  1.00  0.00     0.037 C 
HETATM   17  C20 UNL     1      24.662   4.359  49.454  1.00  0.00    -0.014 C 
HETATM   18  C21 UNL     1      24.196   5.615  49.476  1.00  0.00     0.059 C 
HETATM   19  N2  UNL     1      22.877   5.582  49.854  1.00  0.00    -0.258 NA
HETATM   20  C22 UNL     1      23.294   6.308  51.068  1.00  0.00     0.400 A 
HETATM   21  O4  UNL     1      24.404   6.747  51.521  1.00  0.00    -0.425 OA
HETATM   22  H22 UNL     1      19.660   4.629  52.186  1.00  0.00     0.159 HD
ENDROOT
BRANCH   9  23
HETATM   23  C11 UNL     1      20.629   2.612  50.058  1.00  0.00     0.025 C 
BRANCH  23  24
HETATM   24  C12 UNL     1      20.148   1.179  49.889  1.00  0.00     0.111 C 
BRANCH  24  25
HETATM   25  C13 UNL     1      18.632   1.170  49.960  1.00  0.00     0.139 C 
HETATM   26  O2  UNL     1      18.140   2.187  50.515  1.00  0.00    -0.650 OA
BRANCH  25  27
HETATM   27  O3  UNL     1      17.790   0.173  49.482  1.00  0.00    -0.776 OA
HETATM   28  H17 UNL     1      17.162  -0.343  50.109  1.00  0.00     0.167 HD
ENDBRANCH  25  27
ENDBRANCH  24  25
ENDBRANCH  23  24
ENDBRANCH   9  23
BRANCH   1  29
HETATM   29  O1  UNL     1      20.930   5.034  45.790  1.00  0.00    -0.356 OA
HETATM   30  C1  UNL     1      21.506   4.014  45.000  1.00  0.00     0.210 C 
ENDBRANCH   1  29
TORSDOF 5
ENDMDL
