MODEL 1
REMARK VINA RESULT:      -8.5      0.000      0.000
REMARK  6 active torsions:
REMARK  status: ('A' for Active; 'I' for Inactive)
REMARK    1  A    between atoms: O1_2  and  C2_3 
REMARK    2  A    between atoms: C6_7  and  O2_8 
REMARK    3  A    between atoms: C7_9  and  C8_10 
REMARK    4  A    between atoms: C8_10  and  C9_11 
REMARK    5  A    between atoms: C11_14  and  C12_15 
REMARK    6  A    between atoms: C20_24  and  N2_25 
ROOT
HETATM    1  C9  UNL     1      25.518   2.284  51.684  1.00  0.00     0.042 C 
HETATM    2  C10 UNL     1      24.323   1.999  52.174  1.00  0.00     0.120 C 
HETATM    3  N1  UNL     1      23.370   1.022  52.710  1.00  0.00    -0.246 NA
HETATM    4  C11 UNL     1      22.122   1.225  52.287  1.00  0.00     0.067 C 
HETATM    5  C18 UNL     1      21.795   2.544  51.686  1.00  0.00     0.033 C 
HETATM    6  C19 UNL     1      22.678   3.569  51.573  1.00  0.00     0.045 C 
HETATM    7  C20 UNL     1      24.056   3.449  52.075  1.00  0.00     0.293 C 
HETATM    8  N3  UNL     1      25.199   3.650  51.315  1.00  0.00    -0.349 N 
HETATM    9  H18 UNL     1      25.375   4.558  50.838  1.00  0.00     0.162 HD
ENDROOT
BRANCH   1  10
HETATM   10  C8  UNL     1      26.813   1.637  51.351  1.00  0.00     0.103 C 
BRANCH  10  11
HETATM   11  C7  UNL     1      27.504   1.099  52.528  1.00  0.00     0.014 A 
HETATM   12  C2  UNL     1      27.348  -0.172  53.041  1.00  0.00     0.077 A 
HETATM   13  C3  UNL     1      28.023  -0.632  54.152  1.00  0.00     0.037 A 
HETATM   14  C4  UNL     1      28.905   0.192  54.810  1.00  0.00     0.005 A 
HETATM   15  C5  UNL     1      29.120   1.486  54.360  1.00  0.00     0.037 A 
HETATM   16  C6  UNL     1      28.409   1.894  53.233  1.00  0.00     0.075 A 
BRANCH  12  17
HETATM   17  O1  UNL     1      26.457  -1.014  52.381  1.00  0.00    -0.355 OA
HETATM   18  C1  UNL     1      26.764  -2.396  52.226  1.00  0.00     0.210 C 
ENDBRANCH  12  17
BRANCH  16  19
HETATM   19  O2  UNL     1      28.611   3.199  52.760  1.00  0.00    -0.360 OA
HETATM   20  H7  UNL     1      29.510   3.587  52.592  1.00  0.00     0.217 HD
ENDBRANCH  16  19
ENDBRANCH  10  11
ENDBRANCH   1  10
BRANCH   7  21
HETATM   21  N2  UNL     1      24.161   3.987  53.467  1.00  0.00     0.117 N 
HETATM   22  H16 UNL     1      23.405   4.660  53.656  1.00  0.00     0.317 HD
HETATM   23  H17 UNL     1      25.110   4.394  53.609  1.00  0.00     0.317 HD
ENDBRANCH   7  21
BRANCH   4  24
HETATM   24  C12 UNL     1      20.904   0.481  52.555  1.00  0.00    -0.006 A 
HETATM   25  C13 UNL     1      20.518  -0.339  53.585  1.00  0.00     0.014 A 
HETATM   26  C14 UNL     1      19.270  -0.910  53.543  1.00  0.00     0.002 A 
HETATM   27  C15 UNL     1      18.361  -0.725  52.541  1.00  0.00     0.019 A 
HETATM   28  C16 UNL     1      18.746   0.098  51.506  1.00  0.00     0.011 A 
HETATM   29 BR1  UNL     1      17.455   0.342  50.109  1.00  0.00    -0.051 Br
HETATM   30  C17 UNL     1      19.994   0.693  51.508  1.00  0.00     0.032 A 
ENDBRANCH   4  24
TORSDOF 6
ENDMDL
MODEL 2
REMARK VINA RESULT:      -8.4      1.627      2.081
REMARK  6 active torsions:
REMARK  status: ('A' for Active; 'I' for Inactive)
REMARK    1  A    between atoms: O1_2  and  C2_3 
REMARK    2  A    between atoms: C6_7  and  O2_8 
REMARK    3  A    between atoms: C7_9  and  C8_10 
REMARK    4  A    between atoms: C8_10  and  C9_11 
REMARK    5  A    between atoms: C11_14  and  C12_15 
REMARK    6  A    between atoms: C20_24  and  N2_25 
ROOT
HETATM    1  C9  UNL     1      25.480   2.494  52.922  1.00  0.00     0.042 C 
HETATM    2  C10 UNL     1      24.263   2.525  52.406  1.00  0.00     0.120 C 
HETATM    3  N1  UNL     1      22.836   2.196  52.496  1.00  0.00    -0.246 NA
HETATM    4  C11 UNL     1      22.314   1.821  51.328  1.00  0.00     0.067 C 
HETATM    5  C18 UNL     1      23.075   2.132  50.091  1.00  0.00     0.033 C 
HETATM    6  C19 UNL     1      24.253   2.807  50.071  1.00  0.00     0.045 C 
HETATM    7  C20 UNL     1      24.864   3.313  51.310  1.00  0.00     0.293 C 
HETATM    8  N3  UNL     1      26.148   3.013  51.743  1.00  0.00    -0.349 N 
HETATM    9  H18 UNL     1      26.979   3.235  51.158  1.00  0.00     0.162 HD
ENDROOT
BRANCH   1  10
HETATM   10  C8  UNL     1      26.212   2.017  54.123  1.00  0.00     0.103 C 
BRANCH  10  11
HETATM   11  C7  UNL     1      27.189   0.967  53.819  1.00  0.00     0.014 A 
HETATM   12  C2  UNL     1      26.889  -0.323  53.432  1.00  0.00     0.077 A 
HETATM   13  C3  UNL     1      27.846  -1.276  53.155  1.00  0.00     0.037 A 
HETATM   14  C4  UNL     1      29.180  -0.962  53.262  1.00  0.00     0.005 A 
HETATM   15  C5  UNL     1      29.568   0.312  53.646  1.00  0.00     0.037 A 
HETATM   16  C6  UNL     1      28.556   1.233  53.912  1.00  0.00     0.075 A 
BRANCH  12  17
HETATM   17  O1  UNL     1      25.541  -0.651  53.320  1.00  0.00    -0.355 OA
HETATM   18  C1  UNL     1      24.776  -0.931  54.487  1.00  0.00     0.210 C 
ENDBRANCH  12  17
BRANCH  16  19
HETATM   19  O2  UNL     1      28.926   2.529  54.303  1.00  0.00    -0.360 OA
HETATM   20  H7  UNL     1      28.755   3.336  53.749  1.00  0.00     0.217 HD
ENDBRANCH  16  19
ENDBRANCH  10  11
ENDBRANCH   1  10
BRANCH   7  21
HETATM   21  N2  UNL     1      24.468   4.735  51.554  1.00  0.00     0.117 N 
HETATM   22  H16 UNL     1      25.253   5.269  51.952  1.00  0.00     0.317 HD
HETATM   23  H17 UNL     1      23.616   4.758  52.154  1.00  0.00     0.317 HD
ENDBRANCH   7  21
BRANCH   4  24
HETATM   24  C12 UNL     1      20.967   1.393  50.992  1.00  0.00    -0.006 A 
HETATM   25  C13 UNL     1      20.142   1.657  49.928  1.00  0.00     0.014 A 
HETATM   26  C14 UNL     1      18.892   1.089  49.905  1.00  0.00     0.002 A 
HETATM   27  C15 UNL     1      18.391   0.265  50.871  1.00  0.00     0.019 A 
HETATM   28  C16 UNL     1      19.218  -0.001  51.941  1.00  0.00     0.011 A 
HETATM   29 BR1  UNL     1      18.494  -1.158  53.287  1.00  0.00    -0.051 Br
HETATM   30  C17 UNL     1      20.484   0.551  52.005  1.00  0.00     0.032 A 
ENDBRANCH   4  24
TORSDOF 6
ENDMDL
MODEL 3
REMARK VINA RESULT:      -8.3      4.512      6.975
REMARK  6 active torsions:
REMARK  status: ('A' for Active; 'I' for Inactive)
REMARK    1  A    between atoms: O1_2  and  C2_3 
REMARK    2  A    between atoms: C6_7  and  O2_8 
REMARK    3  A    between atoms: C7_9  and  C8_10 
REMARK    4  A    between atoms: C8_10  and  C9_11 
REMARK    5  A    between atoms: C11_14  and  C12_15 
REMARK    6  A    between atoms: C20_24  and  N2_25 
ROOT
HETATM    1  C9  UNL     1      24.438   3.226  51.944  1.00  0.00     0.042 C 
HETATM    2  C10 UNL     1      24.987   3.746  50.860  1.00  0.00     0.120 C 
HETATM    3  N1  UNL     1      26.177   4.190  50.126  1.00  0.00    -0.246 NA
HETATM    4  C11 UNL     1      25.973   5.308  49.429  1.00  0.00     0.067 C 
HETATM    5  C18 UNL     1      24.570   5.727  49.178  1.00  0.00     0.033 C 
HETATM    6  C19 UNL     1      23.481   5.024  49.582  1.00  0.00     0.045 C 
HETATM    7  C20 UNL     1      23.620   3.747  50.299  1.00  0.00     0.293 C 
HETATM    8  N3  UNL     1      23.066   3.467  51.540  1.00  0.00    -0.349 N 
HETATM    9  H18 UNL     1      22.039   3.526  51.696  1.00  0.00     0.162 HD
ENDROOT
BRANCH   1  10
HETATM   10  C8  UNL     1      24.806   2.689  53.279  1.00  0.00     0.103 C 
BRANCH  10  11
HETATM   11  C7  UNL     1      25.634   1.481  53.203  1.00  0.00     0.014 A 
HETATM   12  C2  UNL     1      25.187   0.219  52.874  1.00  0.00     0.077 A 
HETATM   13  C3  UNL     1      26.008  -0.888  52.814  1.00  0.00     0.037 A 
HETATM   14  C4  UNL     1      27.349  -0.764  53.093  1.00  0.00     0.005 A 
HETATM   15  C5  UNL     1      27.880   0.470  53.433  1.00  0.00     0.037 A 
HETATM   16  C6  UNL     1      27.001   1.551  53.476  1.00  0.00     0.075 A 
BRANCH  12  17
HETATM   17  O1  UNL     1      23.831   0.083  52.589  1.00  0.00    -0.355 OA
HETATM   18  C1  UNL     1      22.967  -0.559  53.522  1.00  0.00     0.210 C 
ENDBRANCH  12  17
BRANCH  16  19
HETATM   19  O2  UNL     1      27.517   2.810  53.818  1.00  0.00    -0.360 OA
HETATM   20  H7  UNL     1      28.406   2.940  54.243  1.00  0.00     0.217 HD
ENDBRANCH  16  19
ENDBRANCH  10  11
ENDBRANCH   1  10
BRANCH   7  21
HETATM   21  N2  UNL     1      23.562   2.595  49.346  1.00  0.00     0.117 N 
HETATM   22  H16 UNL     1      24.101   2.800  48.493  1.00  0.00     0.317 HD
HETATM   23  H17 UNL     1      22.566   2.360  49.148  1.00  0.00     0.317 HD
ENDBRANCH   7  21
BRANCH   4  24
HETATM   24  C12 UNL     1      26.882   6.082  48.602  1.00  0.00    -0.006 A 
HETATM   25  C13 UNL     1      26.732   7.240  47.882  1.00  0.00     0.014 A 
HETATM   26  C14 UNL     1      27.808   7.728  47.183  1.00  0.00     0.002 A 
HETATM   27  C15 UNL     1      29.042   7.145  47.145  1.00  0.00     0.019 A 
HETATM   28  C16 UNL     1      29.196   5.982  47.866  1.00  0.00     0.011 A 
HETATM   29 BR1  UNL     1      30.935   5.178  47.796  1.00  0.00    -0.051 Br
HETATM   30  C17 UNL     1      28.137   5.455  48.584  1.00  0.00     0.032 A 
ENDBRANCH   4  24
TORSDOF 6
ENDMDL
MODEL 4
REMARK VINA RESULT:      -8.2      6.969      8.882
REMARK  6 active torsions:
REMARK  status: ('A' for Active; 'I' for Inactive)
REMARK    1  A    between atoms: O1_2  and  C2_3 
REMARK    2  A    between atoms: C6_7  and  O2_8 
REMARK    3  A    between atoms: C7_9  and  C8_10 
REMARK    4  A    between atoms: C8_10  and  C9_11 
REMARK    5  A    between atoms: C11_14  and  C12_15 
REMARK    6  A    between atoms: C20_24  and  N2_25 
ROOT
HETATM    1  C9  UNL     1      31.175   6.518  47.025  1.00  0.00     0.042 C 
HETATM    2  C10 UNL     1      30.160   6.190  47.806  1.00  0.00     0.120 C 
HETATM    3  N1  UNL     1      29.281   5.169  48.385  1.00  0.00    -0.246 NA
HETATM    4  C11 UNL     1      28.009   5.561  48.467  1.00  0.00     0.067 C 
HETATM    5  C18 UNL     1      27.717   7.012  48.339  1.00  0.00     0.033 C 
HETATM    6  C19 UNL     1      28.667   7.969  48.180  1.00  0.00     0.045 C 
HETATM    7  C20 UNL     1      30.097   7.627  48.146  1.00  0.00     0.293 C 
HETATM    8  N3  UNL     1      30.968   7.952  47.116  1.00  0.00    -0.349 N 
HETATM    9  H18 UNL     1      31.125   8.941  46.835  1.00  0.00     0.162 HD
ENDROOT
BRANCH   1  10
HETATM   10  C8  UNL     1      32.191   5.903  46.133  1.00  0.00     0.103 C 
BRANCH  10  11
HETATM   11  C7  UNL     1      33.045   4.931  46.823  1.00  0.00     0.014 A 
HETATM   12  C2  UNL     1      34.205   5.223  47.510  1.00  0.00     0.077 A 
HETATM   13  C3  UNL     1      34.974   4.272  48.145  1.00  0.00     0.037 A 
HETATM   14  C4  UNL     1      34.597   2.950  48.112  1.00  0.00     0.005 A 
HETATM   15  C5  UNL     1      33.444   2.570  47.443  1.00  0.00     0.037 A 
HETATM   16  C6  UNL     1      32.708   3.576  46.821  1.00  0.00     0.075 A 
BRANCH  12  17
HETATM   17  O1  UNL     1      34.595   6.559  47.549  1.00  0.00    -0.355 OA
HETATM   18  C1  UNL     1      35.484   7.013  48.564  1.00  0.00     0.210 C 
ENDBRANCH  12  17
BRANCH  16  19
HETATM   19  O2  UNL     1      31.537   3.214  46.137  1.00  0.00    -0.360 OA
HETATM   20  H7  UNL     1      31.234   2.274  46.033  1.00  0.00     0.217 HD
ENDBRANCH  16  19
ENDBRANCH  10  11
ENDBRANCH   1  10
BRANCH   7  21
HETATM   21  N2  UNL     1      30.706   7.759  49.507  1.00  0.00     0.117 N 
HETATM   22  H16 UNL     1      30.012   7.549  50.239  1.00  0.00     0.317 HD
HETATM   23  H17 UNL     1      31.126   8.707  49.607  1.00  0.00     0.317 HD
ENDBRANCH   7  21
BRANCH   4  24
HETATM   24  C12 UNL     1      26.834   4.854  48.946  1.00  0.00    -0.006 A 
HETATM   25  C13 UNL     1      26.655   3.615  49.508  1.00  0.00     0.014 A 
HETATM   26  C14 UNL     1      25.386   3.227  49.859  1.00  0.00     0.002 A 
HETATM   27  C15 UNL     1      24.264   3.987  49.693  1.00  0.00     0.019 A 
HETATM   28  C16 UNL     1      24.441   5.230  49.129  1.00  0.00     0.011 A 
HETATM   29 BR1  UNL     1      22.852   6.280  48.903  1.00  0.00    -0.051 Br
HETATM   30  C17 UNL     1      25.703   5.662  48.761  1.00  0.00     0.032 A 
ENDBRANCH   4  24
TORSDOF 6
ENDMDL
MODEL 5
REMARK VINA RESULT:      -8.1      4.605      7.286
REMARK  6 active torsions:
REMARK  status: ('A' for Active; 'I' for Inactive)
REMARK    1  A    between atoms: O1_2  and  C2_3 
REMARK    2  A    between atoms: C6_7  and  O2_8 
REMARK    3  A    between atoms: C7_9  and  C8_10 
REMARK    4  A    between atoms: C8_10  and  C9_11 
REMARK    5  A    between atoms: C11_14  and  C12_15 
REMARK    6  A    between atoms: C20_24  and  N2_25 
ROOT
HETATM    1  C9  UNL     1      24.267   3.428  51.781  1.00  0.00     0.042 C 
HETATM    2  C10 UNL     1      24.861   3.927  50.710  1.00  0.00     0.120 C 
HETATM    3  N1  UNL     1      26.081   4.357  50.018  1.00  0.00    -0.246 NA
HETATM    4  C11 UNL     1      25.907   5.460  49.290  1.00  0.00     0.067 C 
HETATM    5  C18 UNL     1      24.515   5.872  48.971  1.00  0.00     0.033 C 
HETATM    6  C19 UNL     1      23.410   5.176  49.344  1.00  0.00     0.045 C 
HETATM    7  C20 UNL     1      23.519   3.914  50.091  1.00  0.00     0.293 C 
HETATM    8  N3  UNL     1      22.913   3.659  51.314  1.00  0.00    -0.349 N 
HETATM    9  H18 UNL     1      21.880   3.720  51.425  1.00  0.00     0.162 HD
ENDROOT
BRANCH   1  10
HETATM   10  C8  UNL     1      24.578   2.919  53.141  1.00  0.00     0.103 C 
BRANCH  10  11
HETATM   11  C7  UNL     1      25.194   1.588  53.127  1.00  0.00     0.014 A 
HETATM   12  C2  UNL     1      26.544   1.327  53.016  1.00  0.00     0.077 A 
HETATM   13  C3  UNL     1      27.075   0.055  53.009  1.00  0.00     0.037 A 
HETATM   14  C4  UNL     1      26.246  -1.036  53.115  1.00  0.00     0.005 A 
HETATM   15  C5  UNL     1      24.875  -0.863  53.230  1.00  0.00     0.037 A 
HETATM   16  C6  UNL     1      24.397   0.446  53.231  1.00  0.00     0.075 A 
BRANCH  12  17
HETATM   17  O1  UNL     1      27.392   2.426  52.909  1.00  0.00    -0.355 OA
HETATM   18  C1  UNL     1      28.655   2.419  53.565  1.00  0.00     0.210 C 
ENDBRANCH  12  17
BRANCH  16  19
HETATM   19  O2  UNL     1      23.013   0.645  53.346  1.00  0.00    -0.360 OA
HETATM   20  H7  UNL     1      22.610   1.419  53.822  1.00  0.00     0.217 HD
ENDBRANCH  16  19
ENDBRANCH  10  11
ENDBRANCH   1  10
BRANCH   7  21
HETATM   21  N2  UNL     1      23.502   2.743  49.161  1.00  0.00     0.117 N 
HETATM   22  H16 UNL     1      23.215   1.887  49.657  1.00  0.00     0.317 HD
HETATM   23  H17 UNL     1      24.434   2.652  48.702  1.00  0.00     0.317 HD
ENDBRANCH   7  21
BRANCH   4  24
HETATM   24  C12 UNL     1      26.850   6.218  48.487  1.00  0.00    -0.006 A 
HETATM   25  C13 UNL     1      26.731   7.365  47.743  1.00  0.00     0.014 A 
HETATM   26  C14 UNL     1      27.835   7.838  47.079  1.00  0.00     0.002 A 
HETATM   27  C15 UNL     1      29.068   7.251  47.098  1.00  0.00     0.019 A 
HETATM   28  C16 UNL     1      29.190   6.100  47.844  1.00  0.00     0.011 A 
HETATM   29 BR1  UNL     1      30.928   5.292  47.856  1.00  0.00    -0.051 Br
HETATM   30  C17 UNL     1      28.102   5.588  48.529  1.00  0.00     0.032 A 
ENDBRANCH   4  24
TORSDOF 6
ENDMDL
MODEL 6
REMARK VINA RESULT:      -8.0      7.065      8.998
REMARK  6 active torsions:
REMARK  status: ('A' for Active; 'I' for Inactive)
REMARK    1  A    between atoms: O1_2  and  C2_3 
REMARK    2  A    between atoms: C6_7  and  O2_8 
REMARK    3  A    between atoms: C7_9  and  C8_10 
REMARK    4  A    between atoms: C8_10  and  C9_11 
REMARK    5  A    between atoms: C11_14  and  C12_15 
REMARK    6  A    between atoms: C20_24  and  N2_25 
ROOT
HETATM    1  C9  UNL     1      31.029   6.605  47.069  1.00  0.00     0.042 C 
HETATM    2  C10 UNL     1      30.003   6.297  47.844  1.00  0.00     0.120 C 
HETATM    3  N1  UNL     1      29.070   5.300  48.380  1.00  0.00    -0.246 NA
HETATM    4  C11 UNL     1      27.824   5.760  48.495  1.00  0.00     0.067 C 
HETATM    5  C18 UNL     1      27.616   7.230  48.443  1.00  0.00     0.033 C 
HETATM    6  C19 UNL     1      28.618   8.137  48.322  1.00  0.00     0.045 C 
HETATM    7  C20 UNL     1      30.026   7.716  48.256  1.00  0.00     0.293 C 
HETATM    8  N3  UNL     1      30.906   8.042  47.234  1.00  0.00    -0.349 N 
HETATM    9  H18 UNL     1      31.117   9.033  47.001  1.00  0.00     0.162 HD
ENDROOT
BRANCH   1  10
HETATM   10  C8  UNL     1      32.001   5.978  46.138  1.00  0.00     0.103 C 
BRANCH  10  11
HETATM   11  C7  UNL     1      33.007   5.161  46.824  1.00  0.00     0.014 A 
HETATM   12  C2  UNL     1      33.995   5.637  47.660  1.00  0.00     0.077 A 
HETATM   13  C3  UNL     1      34.919   4.826  48.285  1.00  0.00     0.037 A 
HETATM   14  C4  UNL     1      34.886   3.466  48.085  1.00  0.00     0.005 A 
HETATM   15  C5  UNL     1      33.925   2.906  47.258  1.00  0.00     0.037 A 
HETATM   16  C6  UNL     1      33.018   3.775  46.655  1.00  0.00     0.075 A 
BRANCH  12  17
HETATM   17  O1  UNL     1      34.036   7.013  47.869  1.00  0.00    -0.355 OA
HETATM   18  C1  UNL     1      35.246   7.634  48.290  1.00  0.00     0.210 C 
ENDBRANCH  12  17
BRANCH  16  19
HETATM   19  O2  UNL     1      32.037   3.230  45.814  1.00  0.00    -0.360 OA
HETATM   20  H7  UNL     1      31.375   3.780  45.317  1.00  0.00     0.217 HD
ENDBRANCH  16  19
ENDBRANCH  10  11
ENDBRANCH   1  10
BRANCH   7  21
HETATM   21  N2  UNL     1      30.651   7.744  49.615  1.00  0.00     0.117 N 
HETATM   22  H16 UNL     1      29.962   8.022  50.328  1.00  0.00     0.317 HD
HETATM   23  H17 UNL     1      31.489   8.364  49.597  1.00  0.00     0.317 HD
ENDBRANCH   7  21
BRANCH   4  24
HETATM   24  C12 UNL     1      26.614   5.098  48.951  1.00  0.00    -0.006 A 
HETATM   25  C13 UNL     1      25.280   5.354  48.754  1.00  0.00     0.014 A 
HETATM   26  C14 UNL     1      24.356   4.524  49.338  1.00  0.00     0.002 A 
HETATM   27  C15 UNL     1      24.659   3.442  50.114  1.00  0.00     0.019 A 
HETATM   28  C16 UNL     1      25.997   3.184  50.313  1.00  0.00     0.011 A 
HETATM   29 BR1  UNL     1      26.400   1.661  51.407  1.00  0.00    -0.051 Br
HETATM   30  C17 UNL     1      26.962   3.995  49.743  1.00  0.00     0.032 A 
ENDBRANCH   4  24
TORSDOF 6
ENDMDL
MODEL 7
REMARK VINA RESULT:      -7.9      3.950      6.958
REMARK  6 active torsions:
REMARK  status: ('A' for Active; 'I' for Inactive)
REMARK    1  A    between atoms: O1_2  and  C2_3 
REMARK    2  A    between atoms: C6_7  and  O2_8 
REMARK    3  A    between atoms: C7_9  and  C8_10 
REMARK    4  A    between atoms: C8_10  and  C9_11 
REMARK    5  A    between atoms: C11_14  and  C12_15 
REMARK    6  A    between atoms: C20_24  and  N2_25 
ROOT
HETATM    1  C9  UNL     1      21.951   2.092  51.181  1.00  0.00     0.042 C 
HETATM    2  C10 UNL     1      22.732   2.963  50.566  1.00  0.00     0.120 C 
HETATM    3  N1  UNL     1      23.800   3.253  49.603  1.00  0.00    -0.246 NA
HETATM    4  C11 UNL     1      24.633   4.208  50.019  1.00  0.00     0.067 C 
HETATM    5  C18 UNL     1      24.193   5.075  51.142  1.00  0.00     0.033 C 
HETATM    6  C19 UNL     1      22.982   4.981  51.749  1.00  0.00     0.045 C 
HETATM    7  C20 UNL     1      21.981   3.998  51.306  1.00  0.00     0.293 C 
HETATM    8  N3  UNL     1      21.388   3.044  52.121  1.00  0.00    -0.349 N 
HETATM    9  H18 UNL     1      20.849   3.319  52.967  1.00  0.00     0.162 HD
ENDROOT
BRANCH   1  10
HETATM   10  C8  UNL     1      21.664   0.636  51.235  1.00  0.00     0.103 C 
BRANCH  10  11
HETATM   11  C7  UNL     1      22.002   0.034  52.528  1.00  0.00     0.014 A 
HETATM   12  C2  UNL     1      23.273  -0.091  53.049  1.00  0.00     0.077 A 
HETATM   13  C3  UNL     1      23.540  -0.666  54.274  1.00  0.00     0.037 A 
HETATM   14  C4  UNL     1      22.510  -1.154  55.043  1.00  0.00     0.005 A 
HETATM   15  C5  UNL     1      21.202  -1.069  54.592  1.00  0.00     0.037 A 
HETATM   16  C6  UNL     1      20.995  -0.477  53.348  1.00  0.00     0.075 A 
BRANCH  12  17
HETATM   17  O1  UNL     1      24.323   0.400  52.278  1.00  0.00    -0.355 OA
HETATM   18  C1  UNL     1      25.216   1.366  52.822  1.00  0.00     0.210 C 
ENDBRANCH  12  17
BRANCH  16  19
HETATM   19  O2  UNL     1      19.678  -0.381  52.872  1.00  0.00    -0.360 OA
HETATM   20  H7  UNL     1      19.144  -1.165  52.579  1.00  0.00     0.217 HD
ENDBRANCH  16  19
ENDBRANCH  10  11
ENDBRANCH   1  10
BRANCH   7  21
HETATM   21  N2  UNL     1      21.037   4.611  50.319  1.00  0.00     0.117 N 
HETATM   22  H16 UNL     1      20.692   3.902  49.656  1.00  0.00     0.317 HD
HETATM   23  H17 UNL     1      21.504   5.414  49.847  1.00  0.00     0.317 HD
ENDBRANCH   7  21
BRANCH   4  24
HETATM   24  C12 UNL     1      25.817   4.766  49.390  1.00  0.00    -0.006 A 
HETATM   25  C13 UNL     1      27.066   4.257  49.136  1.00  0.00     0.014 A 
HETATM   26  C14 UNL     1      27.991   5.058  48.513  1.00  0.00     0.002 A 
HETATM   27  C15 UNL     1      27.767   6.345  48.117  1.00  0.00     0.019 A 
HETATM   28  C16 UNL     1      26.515   6.858  48.371  1.00  0.00     0.011 A 
HETATM   29 BR1  UNL     1      26.223   8.668  47.809  1.00  0.00    -0.051 Br
HETATM   30  C17 UNL     1      25.553   6.086  48.997  1.00  0.00     0.032 A 
ENDBRANCH   4  24
TORSDOF 6
ENDMDL
MODEL 8
REMARK VINA RESULT:      -7.9      3.287      7.421
REMARK  6 active torsions:
REMARK  status: ('A' for Active; 'I' for Inactive)
REMARK    1  A    between atoms: O1_2  and  C2_3 
REMARK    2  A    between atoms: C6_7  and  O2_8 
REMARK    3  A    between atoms: C7_9  and  C8_10 
REMARK    4  A    between atoms: C8_10  and  C9_11 
REMARK    5  A    between atoms: C11_14  and  C12_15 
REMARK    6  A    between atoms: C20_24  and  N2_25 
ROOT
HETATM    1  C9  UNL     1      22.579   1.904  50.810  1.00  0.00     0.042 C 
HETATM    2  C10 UNL     1      23.820   2.053  51.241  1.00  0.00     0.120 C 
HETATM    3  N1  UNL     1      25.193   1.550  51.359  1.00  0.00    -0.246 NA
HETATM    4  C11 UNL     1      25.738   1.794  52.551  1.00  0.00     0.067 C 
HETATM    5  C18 UNL     1      25.089   2.811  53.418  1.00  0.00     0.033 C 
HETATM    6  C19 UNL     1      23.998   3.534  53.060  1.00  0.00     0.045 C 
HETATM    7  C20 UNL     1      23.376   3.373  51.736  1.00  0.00     0.293 C 
HETATM    8  N3  UNL     1      22.044   3.053  51.517  1.00  0.00    -0.349 N 
HETATM    9  H18 UNL     1      21.279   3.655  51.882  1.00  0.00     0.162 HD
ENDROOT
BRANCH   1  10
HETATM   10  C8  UNL     1      21.729   0.957  50.045  1.00  0.00     0.103 C 
BRANCH  10  11
HETATM   11  C7  UNL     1      20.465   0.647  50.720  1.00  0.00     0.014 A 
HETATM   12  C2  UNL     1      20.339   0.015  51.939  1.00  0.00     0.077 A 
HETATM   13  C3  UNL     1      19.124  -0.253  52.535  1.00  0.00     0.037 A 
HETATM   14  C4  UNL     1      17.957   0.113  51.909  1.00  0.00     0.005 A 
HETATM   15  C5  UNL     1      17.995   0.753  50.680  1.00  0.00     0.037 A 
HETATM   16  C6  UNL     1      19.251   0.997  50.128  1.00  0.00     0.075 A 
BRANCH  12  17
HETATM   17  O1  UNL     1      21.516  -0.359  52.582  1.00  0.00    -0.355 OA
HETATM   18  C1  UNL     1      21.838   0.187  53.856  1.00  0.00     0.210 C 
ENDBRANCH  12  17
BRANCH  16  19
HETATM   19  O2  UNL     1      19.313   1.644  48.885  1.00  0.00    -0.360 OA
HETATM   20  H7  UNL     1      18.704   2.383  48.622  1.00  0.00     0.217 HD
ENDBRANCH  16  19
ENDBRANCH  10  11
ENDBRANCH   1  10
BRANCH   7  21
HETATM   21  N2  UNL     1      23.915   4.381  50.771  1.00  0.00     0.117 N 
HETATM   22  H16 UNL     1      24.855   4.111  50.449  1.00  0.00     0.317 HD
HETATM   23  H17 UNL     1      23.893   5.326  51.210  1.00  0.00     0.317 HD
ENDBRANCH   7  21
BRANCH   4  24
HETATM   24  C12 UNL     1      27.045   1.447  53.079  1.00  0.00    -0.006 A 
HETATM   25  C13 UNL     1      28.038   2.184  53.674  1.00  0.00     0.014 A 
HETATM   26  C14 UNL     1      29.187   1.546  54.069  1.00  0.00     0.002 A 
HETATM   27  C15 UNL     1      29.431   0.211  53.917  1.00  0.00     0.019 A 
HETATM   28  C16 UNL     1      28.436  -0.531  53.320  1.00  0.00     0.011 A 
HETATM   29 BR1  UNL     1      28.799  -2.403  53.114  1.00  0.00    -0.051 Br
HETATM   30  C17 UNL     1      27.262   0.072  52.906  1.00  0.00     0.032 A 
ENDBRANCH   4  24
TORSDOF 6
ENDMDL
MODEL 9
REMARK VINA RESULT:      -7.9      2.055      2.906
REMARK  6 active torsions:
REMARK  status: ('A' for Active; 'I' for Inactive)
REMARK    1  A    between atoms: O1_2  and  C2_3 
REMARK    2  A    between atoms: C6_7  and  O2_8 
REMARK    3  A    between atoms: C7_9  and  C8_10 
REMARK    4  A    between atoms: C8_10  and  C9_11 
REMARK    5  A    between atoms: C11_14  and  C12_15 
REMARK    6  A    between atoms: C20_24  and  N2_25 
ROOT
HETATM    1  C9  UNL     1      23.798   2.875  51.278  1.00  0.00     0.042 C 
HETATM    2  C10 UNL     1      22.535   2.640  50.965  1.00  0.00     0.120 C 
HETATM    3  N1  UNL     1      21.168   2.296  51.372  1.00  0.00    -0.246 NA
HETATM    4  C11 UNL     1      20.562   1.470  50.519  1.00  0.00     0.067 C 
HETATM    5  C18 UNL     1      21.148   1.316  49.162  1.00  0.00     0.033 C 
HETATM    6  C19 UNL     1      22.241   1.991  48.723  1.00  0.00     0.045 C 
HETATM    7  C20 UNL     1      22.928   2.970  49.579  1.00  0.00     0.293 C 
HETATM    8  N3  UNL     1      24.276   2.931  49.909  1.00  0.00    -0.349 N 
HETATM    9  H18 UNL     1      25.010   2.952  49.172  1.00  0.00     0.162 HD
ENDROOT
BRANCH   1  10
HETATM   10  C8  UNL     1      24.702   2.941  52.454  1.00  0.00     0.103 C 
BRANCH  10  11
HETATM   11  C7  UNL     1      25.446   1.697  52.675  1.00  0.00     0.014 A 
HETATM   12  C2  UNL     1      24.919   0.522  53.168  1.00  0.00     0.077 A 
HETATM   13  C3  UNL     1      25.661  -0.624  53.358  1.00  0.00     0.037 A 
HETATM   14  C4  UNL     1      27.002  -0.633  53.053  1.00  0.00     0.005 A 
HETATM   15  C5  UNL     1      27.611   0.508  52.554  1.00  0.00     0.037 A 
HETATM   16  C6  UNL     1      26.810   1.635  52.383  1.00  0.00     0.075 A 
BRANCH  12  17
HETATM   17  O1  UNL     1      23.562   0.520  53.479  1.00  0.00    -0.355 OA
HETATM   18  C1  UNL     1      22.770  -0.633  53.212  1.00  0.00     0.210 C 
ENDBRANCH  12  17
BRANCH  16  19
HETATM   19  O2  UNL     1      27.405   2.801  51.879  1.00  0.00    -0.360 OA
HETATM   20  H7  UNL     1      27.484   2.998  50.909  1.00  0.00     0.217 HD
ENDBRANCH  16  19
ENDBRANCH  10  11
ENDBRANCH   1  10
BRANCH   7  21
HETATM   21  N2  UNL     1      22.417   4.352  49.321  1.00  0.00     0.117 N 
HETATM   22  H16 UNL     1      23.049   4.863  48.689  1.00  0.00     0.317 HD
HETATM   23  H17 UNL     1      22.270   4.842  50.229  1.00  0.00     0.317 HD
ENDBRANCH   7  21
BRANCH   4  24
HETATM   24  C12 UNL     1      19.238   0.875  50.563  1.00  0.00    -0.006 A 
HETATM   25  C13 UNL     1      18.133   0.997  49.758  1.00  0.00     0.014 A 
HETATM   26  C14 UNL     1      17.002   0.287  50.078  1.00  0.00     0.002 A 
HETATM   27  C15 UNL     1      16.883  -0.549  51.151  1.00  0.00     0.019 A 
HETATM   28  C16 UNL     1      17.991  -0.672  51.960  1.00  0.00     0.011 A 
HETATM   29 BR1  UNL     1      17.801  -1.849  53.462  1.00  0.00    -0.051 Br
HETATM   30  C17 UNL     1      19.150   0.025  51.675  1.00  0.00     0.032 A 
ENDBRANCH   4  24
TORSDOF 6
ENDMDL
