MODEL 1
REMARK VINA RESULT:      -6.7      0.000      0.000
REMARK  7 active torsions:
REMARK  status: ('A' for Active; 'I' for Inactive)
REMARK    1  A    between atoms: C2_2  and  C3_3 
REMARK    2  A    between atoms: C3_3  and  C4_4 
REMARK    3  A    between atoms: C4_4  and  N1_6 
REMARK    4  A    between atoms: N1_6  and  C5_7 
REMARK    5  A    between atoms: C7_9  and  C8_10 
REMARK    6  A    between atoms: C11_15  and  C12_16 
REMARK    7  A    between atoms: N4_23  and  O3_24 
ROOT
HETATM    1  C5  UNL     1      24.303   1.230  53.101  1.00  0.00     0.155 C 
HETATM    2  C6  UNL     1      23.137   0.683  52.703  1.00  0.00     0.063 C 
HETATM    3  C7  UNL     1      22.397   1.678  51.857  1.00  0.00     0.188 C 
HETATM    4  O1  UNL     1      22.574   2.916  52.394  1.00  0.00    -0.376 OA
HETATM    5  C9  UNL     1      22.266   4.181  52.098  1.00  0.00     0.110 C 
HETATM    6  C10 UNL     1      23.341   4.670  51.410  1.00  0.00     0.122 A 
HETATM    7  C11 UNL     1      23.367   6.013  50.934  1.00  0.00    -0.044 A 
HETATM    8  C13 UNL     1      24.596   5.484  50.540  1.00  0.00     0.086 A 
HETATM    9  C14 UNL     1      25.159   4.098  50.745  1.00  0.00     0.083 A 
HETATM   10  C15 UNL     1      25.261   3.069  51.523  1.00  0.00     0.096 A 
HETATM   11  C16 UNL     1      26.098   2.352  50.567  1.00  0.00     0.237 A 
HETATM   12  O2  UNL     1      25.937   3.479  49.780  1.00  0.00    -0.346 OA
HETATM   13  N4  UNL     1      24.854   2.538  52.814  1.00  0.00    -0.206 N 
ENDROOT
BRANCH   1  14
HETATM   14  N1  UNL     1      25.158   0.442  53.920  1.00  0.00    -0.221 NA
BRANCH  14  15
HETATM   15  C4  UNL     1      26.107  -0.310  53.499  1.00  0.00     0.112 C 
HETATM   16 BR1  UNL     1      26.870  -1.686  52.429  1.00  0.00    -0.029 Br
BRANCH  15  17
HETATM   17  C3  UNL     1      27.106   0.256  54.343  1.00  0.00     0.090 C 
BRANCH  17  18
HETATM   18  C2  UNL     1      27.968   1.182  53.955  1.00  0.00    -0.152 C 
HETATM   19  C1  UNL     1      28.470   2.327  53.514  1.00  0.00     0.096 C 
ENDBRANCH  17  18
ENDBRANCH  15  17
ENDBRANCH  14  15
ENDBRANCH   1  14
BRANCH  13  20
HETATM   20  O3  UNL     1      25.012   3.338  53.874  1.00  0.00    -0.281 OA
HETATM   21  H15 UNL     1      25.675   2.951  54.487  1.00  0.00     0.245 HD
ENDBRANCH  13  20
BRANCH   3  22
HETATM   22  C8  UNL     1      22.781   1.549  50.448  1.00  0.00     0.116 C 
HETATM   23  N2  UNL     1      22.177   1.794  49.369  1.00  0.00    -0.314 NA
HETATM   24  H7  UNL     1      21.211   2.165  49.313  1.00  0.00     0.185 HD
ENDBRANCH   3  22
BRANCH   7  25
HETATM   25  C12 UNL     1      23.364   7.403  50.453  1.00  0.00     0.111 C 
HETATM   26  N3  UNL     1      24.077   7.826  51.420  1.00  0.00    -0.312 NA
HETATM   27  H11 UNL     1      24.383   8.799  51.563  1.00  0.00     0.186 HD
ENDBRANCH   7  25
TORSDOF 7
ENDMDL
MODEL 2
REMARK VINA RESULT:      -6.7      2.791      4.908
REMARK  7 active torsions:
REMARK  status: ('A' for Active; 'I' for Inactive)
REMARK    1  A    between atoms: C2_2  and  C3_3 
REMARK    2  A    between atoms: C3_3  and  C4_4 
REMARK    3  A    between atoms: C4_4  and  N1_6 
REMARK    4  A    between atoms: N1_6  and  C5_7 
REMARK    5  A    between atoms: C7_9  and  C8_10 
REMARK    6  A    between atoms: C11_15  and  C12_16 
REMARK    7  A    between atoms: N4_23  and  O3_24 
ROOT
HETATM    1  C5  UNL     1      23.189   1.104  51.984  1.00  0.00     0.155 C 
HETATM    2  C6  UNL     1      24.149   0.526  52.735  1.00  0.00     0.063 C 
HETATM    3  C7  UNL     1      25.451   1.228  52.482  1.00  0.00     0.188 C 
HETATM    4  O1  UNL     1      25.527   1.533  51.158  1.00  0.00    -0.376 OA
HETATM    5  C9  UNL     1      26.344   2.196  50.337  1.00  0.00     0.110 C 
HETATM    6  C10 UNL     1      25.856   3.471  50.281  1.00  0.00     0.122 A 
HETATM    7  C11 UNL     1      26.483   4.470  49.481  1.00  0.00    -0.044 A 
HETATM    8  C13 UNL     1      25.397   5.125  50.061  1.00  0.00     0.086 A 
HETATM    9  C14 UNL     1      24.353   4.599  51.017  1.00  0.00     0.083 A 
HETATM   10  C15 UNL     1      23.611   3.603  51.378  1.00  0.00     0.096 A 
HETATM   11  C16 UNL     1      23.007   4.365  52.465  1.00  0.00     0.237 A 
HETATM   12  O2  UNL     1      23.838   5.386  52.035  1.00  0.00    -0.346 OA
HETATM   13  N4  UNL     1      23.282   2.220  51.067  1.00  0.00    -0.206 N 
ENDROOT
BRANCH   1  14
HETATM   14  N1  UNL     1      21.870   0.580  52.078  1.00  0.00    -0.221 NA
BRANCH  14  15
HETATM   15  C4  UNL     1      21.416  -0.124  53.048  1.00  0.00     0.112 C 
HETATM   16 BR1  UNL     1      21.546  -1.353  54.495  1.00  0.00    -0.029 Br
BRANCH  15  17
HETATM   17  C3  UNL     1      20.064   0.303  52.897  1.00  0.00     0.090 C 
BRANCH  17  18
HETATM   18  C2  UNL     1      19.037  -0.520  52.764  1.00  0.00    -0.152 C 
HETATM   19  C1  UNL     1      17.880  -1.131  52.974  1.00  0.00     0.096 C 
ENDBRANCH  17  18
ENDBRANCH  15  17
ENDBRANCH  14  15
ENDBRANCH   1  14
BRANCH  13  20
HETATM   20  O3  UNL     1      23.022   1.933  49.787  1.00  0.00    -0.281 OA
HETATM   21  H15 UNL     1      22.075   1.695  49.685  1.00  0.00     0.245 HD
ENDBRANCH  13  20
BRANCH   3  22
HETATM   22  C8  UNL     1      25.614   2.364  53.394  1.00  0.00     0.116 C 
HETATM   23  N2  UNL     1      26.569   2.751  54.119  1.00  0.00    -0.314 NA
HETATM   24  H7  UNL     1      27.484   2.269  54.186  1.00  0.00     0.185 HD
ENDBRANCH   3  22
BRANCH   7  25
HETATM   25  C12 UNL     1      27.153   5.481  48.648  1.00  0.00     0.111 C 
HETATM   26  N3  UNL     1      28.322   5.118  49.004  1.00  0.00    -0.312 NA
HETATM   27  H11 UNL     1      29.206   5.537  48.683  1.00  0.00     0.186 HD
ENDBRANCH   7  25
TORSDOF 7
ENDMDL
MODEL 3
REMARK VINA RESULT:      -6.6      7.747      9.029
REMARK  7 active torsions:
REMARK  status: ('A' for Active; 'I' for Inactive)
REMARK    1  A    between atoms: C2_2  and  C3_3 
REMARK    2  A    between atoms: C3_3  and  C4_4 
REMARK    3  A    between atoms: C4_4  and  N1_6 
REMARK    4  A    between atoms: N1_6  and  C5_7 
REMARK    5  A    between atoms: C7_9  and  C8_10 
REMARK    6  A    between atoms: C11_15  and  C12_16 
REMARK    7  A    between atoms: N4_23  and  O3_24 
ROOT
HETATM    1  C5  UNL     1      30.554   6.120  48.478  1.00  0.00     0.155 C 
HETATM    2  C6  UNL     1      29.307   5.833  48.052  1.00  0.00     0.063 C 
HETATM    3  C7  UNL     1      28.545   7.115  47.883  1.00  0.00     0.188 C 
HETATM    4  O1  UNL     1      28.885   7.955  48.898  1.00  0.00    -0.376 OA
HETATM    5  C9  UNL     1      28.642   9.215  49.269  1.00  0.00     0.110 C 
HETATM    6  C10 UNL     1      29.653   9.959  48.733  1.00  0.00     0.122 A 
HETATM    7  C11 UNL     1      29.723  11.368  48.933  1.00  0.00    -0.044 A 
HETATM    8  C13 UNL     1      30.846  11.075  48.159  1.00  0.00     0.086 A 
HETATM    9  C14 UNL     1      31.321   9.749  47.614  1.00  0.00     0.083 A 
HETATM   10  C15 UNL     1      31.441   8.475  47.804  1.00  0.00     0.096 A 
HETATM   11  C16 UNL     1      32.091   8.281  46.512  1.00  0.00     0.237 A 
HETATM   12  O2  UNL     1      31.918   9.648  46.368  1.00  0.00    -0.346 OA
HETATM   13  N4  UNL     1      31.164   7.405  48.749  1.00  0.00    -0.206 N 
ENDROOT
BRANCH   1  14
HETATM   14  N1  UNL     1      31.443   5.032  48.702  1.00  0.00    -0.221 NA
BRANCH  14  15
HETATM   15  C4  UNL     1      32.635   4.939  48.240  1.00  0.00     0.112 C 
HETATM   16 BR1  UNL     1      34.524   5.161  48.286  1.00  0.00    -0.029 Br
BRANCH  15  17
HETATM   17  C3  UNL     1      32.252   4.315  47.017  1.00  0.00     0.090 C 
BRANCH  17  18
HETATM   18  C2  UNL     1      32.276   3.009  46.810  1.00  0.00    -0.152 C 
HETATM   19  C1  UNL     1      32.571   1.722  46.926  1.00  0.00     0.096 C 
ENDBRANCH  17  18
ENDBRANCH  15  17
ENDBRANCH  14  15
ENDBRANCH   1  14
BRANCH  13  20
HETATM   20  O3  UNL     1      31.519   7.614  50.021  1.00  0.00    -0.281 OA
HETATM   21  H15 UNL     1      31.554   8.578  50.202  1.00  0.00     0.245 HD
ENDBRANCH  13  20
BRANCH   3  22
HETATM   22  C8  UNL     1      28.733   7.658  46.535  1.00  0.00     0.116 C 
HETATM   23  N2  UNL     1      28.027   8.404  45.805  1.00  0.00    -0.314 NA
HETATM   24  H7  UNL     1      27.104   8.787  46.081  1.00  0.00     0.185 HD
ENDBRANCH   3  22
BRANCH   7  25
HETATM   25  C12 UNL     1      29.767  12.822  49.155  1.00  0.00     0.111 C 
HETATM   26  N3  UNL     1      28.586  12.868  49.631  1.00  0.00    -0.312 NA
HETATM   27  H11 UNL     1      28.103  13.715  49.963  1.00  0.00     0.186 HD
ENDBRANCH   7  25
TORSDOF 7
ENDMDL
MODEL 4
REMARK VINA RESULT:      -6.4      3.067      5.639
REMARK  7 active torsions:
REMARK  status: ('A' for Active; 'I' for Inactive)
REMARK    1  A    between atoms: C2_2  and  C3_3 
REMARK    2  A    between atoms: C3_3  and  C4_4 
REMARK    3  A    between atoms: C4_4  and  N1_6 
REMARK    4  A    between atoms: N1_6  and  C5_7 
REMARK    5  A    between atoms: C7_9  and  C8_10 
REMARK    6  A    between atoms: C11_15  and  C12_16 
REMARK    7  A    between atoms: N4_23  and  O3_24 
ROOT
HETATM    1  C5  UNL     1      23.540   4.253  50.098  1.00  0.00     0.155 C 
HETATM    2  C6  UNL     1      23.021   5.325  50.730  1.00  0.00     0.063 C 
HETATM    3  C7  UNL     1      22.202   4.851  51.896  1.00  0.00     0.188 C 
HETATM    4  O1  UNL     1      21.537   3.723  51.525  1.00  0.00    -0.376 OA
HETATM    5  C9  UNL     1      20.747   2.806  52.088  1.00  0.00     0.110 C 
HETATM    6  C10 UNL     1      21.578   1.803  52.499  1.00  0.00     0.122 A 
HETATM    7  C11 UNL     1      21.073   0.639  53.146  1.00  0.00    -0.044 A 
HETATM    8  C13 UNL     1      22.449   0.425  53.080  1.00  0.00     0.086 A 
HETATM    9  C14 UNL     1      23.535   1.307  52.511  1.00  0.00     0.083 A 
HETATM   10  C15 UNL     1      23.885   2.146  51.591  1.00  0.00     0.096 A 
HETATM   11  C16 UNL     1      25.229   2.284  52.140  1.00  0.00     0.237 A 
HETATM   12  O2  UNL     1      24.785   1.393  53.103  1.00  0.00    -0.346 OA
HETATM   13  N4  UNL     1      23.408   2.845  50.408  1.00  0.00    -0.206 N 
ENDROOT
BRANCH   1  14
HETATM   14  N1  UNL     1      24.355   4.490  48.956  1.00  0.00    -0.221 NA
BRANCH  14  15
HETATM   15  C4  UNL     1      25.160   5.475  48.806  1.00  0.00     0.112 C 
HETATM   16 BR1  UNL     1      25.622   7.281  48.426  1.00  0.00    -0.029 Br
BRANCH  15  17
HETATM   17  C3  UNL     1      26.336   4.729  49.107  1.00  0.00     0.090 C 
BRANCH  17  18
HETATM   18  C2  UNL     1      27.564   5.137  48.831  1.00  0.00    -0.152 C 
HETATM   19  C1  UNL     1      28.724   5.307  48.212  1.00  0.00     0.096 C 
ENDBRANCH  17  18
ENDBRANCH  15  17
ENDBRANCH  14  15
ENDBRANCH   1  14
BRANCH  13  20
HETATM   20  O3  UNL     1      22.780   2.111  49.483  1.00  0.00    -0.281 OA
HETATM   21  H15 UNL     1      23.342   2.037  48.680  1.00  0.00     0.245 HD
ENDBRANCH  13  20
BRANCH   3  22
HETATM   22  C8  UNL     1      23.034   4.719  53.095  1.00  0.00     0.116 C 
HETATM   23  N2  UNL     1      23.981   5.407  53.562  1.00  0.00    -0.314 NA
HETATM   24  H7  UNL     1      24.355   6.265  53.115  1.00  0.00     0.185 HD
ENDBRANCH   3  22
BRANCH   7  25
HETATM   25  C12 UNL     1      20.521  -0.551  53.813  1.00  0.00     0.111 C 
HETATM   26  N3  UNL     1      21.043  -0.263  54.939  1.00  0.00    -0.312 NA
HETATM   27  H11 UNL     1      20.954  -0.816  55.803  1.00  0.00     0.186 HD
ENDBRANCH   7  25
TORSDOF 7
ENDMDL
MODEL 5
REMARK VINA RESULT:      -6.3      7.561      9.614
REMARK  7 active torsions:
REMARK  status: ('A' for Active; 'I' for Inactive)
REMARK    1  A    between atoms: C2_2  and  C3_3 
REMARK    2  A    between atoms: C3_3  and  C4_4 
REMARK    3  A    between atoms: C4_4  and  N1_6 
REMARK    4  A    between atoms: N1_6  and  C5_7 
REMARK    5  A    between atoms: C7_9  and  C8_10 
REMARK    6  A    between atoms: C11_15  and  C12_16 
REMARK    7  A    between atoms: N4_23  and  O3_24 
ROOT
HETATM    1  C5  UNL     1      28.906   6.494  47.777  1.00  0.00     0.155 C 
HETATM    2  C6  UNL     1      29.471   5.342  48.191  1.00  0.00     0.063 C 
HETATM    3  C7  UNL     1      30.962   5.463  48.075  1.00  0.00     0.188 C 
HETATM    4  O1  UNL     1      31.252   6.148  46.935  1.00  0.00    -0.376 OA
HETATM    5  C9  UNL     1      32.329   6.642  46.319  1.00  0.00     0.110 C 
HETATM    6  C10 UNL     1      32.441   7.933  46.750  1.00  0.00     0.122 A 
HETATM    7  C11 UNL     1      33.489   8.780  46.288  1.00  0.00    -0.044 A 
HETATM    8  C13 UNL     1      32.752   9.587  47.155  1.00  0.00     0.086 A 
HETATM    9  C14 UNL     1      31.521   9.257  47.965  1.00  0.00     0.083 A 
HETATM   10  C15 UNL     1      30.400   8.614  48.029  1.00  0.00     0.096 A 
HETATM   11  C16 UNL     1      30.110   9.127  49.364  1.00  0.00     0.237 A 
HETATM   12  O2  UNL     1      31.326   9.777  49.235  1.00  0.00    -0.346 OA
HETATM   13  N4  UNL     1      29.532   7.707  47.294  1.00  0.00    -0.206 N 
ENDROOT
BRANCH   1  14
HETATM   14  N1  UNL     1      27.487   6.584  47.807  1.00  0.00    -0.221 NA
BRANCH  14  15
HETATM   15  C4  UNL     1      26.793   7.082  48.763  1.00  0.00     0.112 C 
HETATM   16 BR1  UNL     1      26.385   8.360  50.112  1.00  0.00    -0.029 Br
BRANCH  15  17
HETATM   17  C3  UNL     1      25.798   6.062  48.747  1.00  0.00     0.090 C 
BRANCH  17  18
HETATM   18  C2  UNL     1      25.950   4.868  49.296  1.00  0.00    -0.152 C 
HETATM   19  C1  UNL     1      26.480   3.710  49.660  1.00  0.00     0.096 C 
ENDBRANCH  17  18
ENDBRANCH  15  17
ENDBRANCH  14  15
ENDBRANCH   1  14
BRANCH  13  20
HETATM   20  O3  UNL     1      29.262   8.025  46.023  1.00  0.00    -0.281 OA
HETATM   21  H15 UNL     1      28.579   8.729  45.995  1.00  0.00     0.245 HD
ENDBRANCH  13  20
BRANCH   3  22
HETATM   22  C8  UNL     1      31.535   6.024  49.302  1.00  0.00     0.116 C 
HETATM   23  N2  UNL     1      31.549   5.632  50.499  1.00  0.00    -0.314 NA
HETATM   24  H7  UNL     1      31.108   4.754  50.831  1.00  0.00     0.185 HD
ENDBRANCH   3  22
BRANCH   7  25
HETATM   25  C12 UNL     1      34.583   9.631  45.794  1.00  0.00     0.111 C 
HETATM   26  N3  UNL     1      35.474   9.016  46.466  1.00  0.00    -0.312 NA
HETATM   27  H11 UNL     1      36.480   9.235  46.475  1.00  0.00     0.186 HD
ENDBRANCH   7  25
TORSDOF 7
ENDMDL
MODEL 6
REMARK VINA RESULT:      -6.2      1.986      2.795
REMARK  7 active torsions:
REMARK  status: ('A' for Active; 'I' for Inactive)
REMARK    1  A    between atoms: C2_2  and  C3_3 
REMARK    2  A    between atoms: C3_3  and  C4_4 
REMARK    3  A    between atoms: C4_4  and  N1_6 
REMARK    4  A    between atoms: N1_6  and  C5_7 
REMARK    5  A    between atoms: C7_9  and  C8_10 
REMARK    6  A    between atoms: C11_15  and  C12_16 
REMARK    7  A    between atoms: N4_23  and  O3_24 
ROOT
HETATM    1  C5  UNL     1      23.023   2.542  52.239  1.00  0.00     0.155 C 
HETATM    2  C6  UNL     1      21.819   2.590  51.636  1.00  0.00     0.063 C 
HETATM    3  C7  UNL     1      21.752   3.824  50.783  1.00  0.00     0.188 C 
HETATM    4  O1  UNL     1      22.373   4.839  51.443  1.00  0.00    -0.376 OA
HETATM    5  C9  UNL     1      22.717   6.108  51.215  1.00  0.00     0.110 C 
HETATM    6  C10 UNL     1      23.993   6.063  50.729  1.00  0.00     0.122 A 
HETATM    7  C11 UNL     1      24.695   7.252  50.378  1.00  0.00    -0.044 A 
HETATM    8  C13 UNL     1      25.603   6.227  50.116  1.00  0.00     0.086 A 
HETATM    9  C14 UNL     1      25.445   4.734  50.280  1.00  0.00     0.083 A 
HETATM   10  C15 UNL     1      24.946   3.762  50.973  1.00  0.00     0.096 A 
HETATM   11  C16 UNL     1      25.519   2.754  50.088  1.00  0.00     0.237 A 
HETATM   12  O2  UNL     1      26.010   3.841  49.384  1.00  0.00    -0.346 OA
HETATM   13  N4  UNL     1      24.140   3.459  52.145  1.00  0.00    -0.206 N 
ENDROOT
BRANCH   1  14
HETATM   14  N1  UNL     1      23.289   1.441  53.100  1.00  0.00    -0.221 NA
BRANCH  14  15
HETATM   15  C4  UNL     1      24.253   0.608  52.967  1.00  0.00     0.112 C 
HETATM   16 BR1  UNL     1      26.067   0.099  52.704  1.00  0.00    -0.029 Br
BRANCH  15  17
HETATM   17  C3  UNL     1      23.440  -0.555  53.101  1.00  0.00     0.090 C 
BRANCH  17  18
HETATM   18  C2  UNL     1      22.505  -0.705  54.025  1.00  0.00    -0.152 C 
HETATM   19  C1  UNL     1      21.476  -1.187  54.706  1.00  0.00     0.096 C 
ENDBRANCH  17  18
ENDBRANCH  15  17
ENDBRANCH  14  15
ENDBRANCH   1  14
BRANCH  13  20
HETATM   20  O3  UNL     1      24.463   4.087  53.281  1.00  0.00    -0.281 OA
HETATM   21  H15 UNL     1      23.817   4.805  53.459  1.00  0.00     0.245 HD
ENDBRANCH  13  20
BRANCH   3  22
HETATM   22  C8  UNL     1      22.263   3.552  49.436  1.00  0.00     0.116 C 
HETATM   23  N2  UNL     1      21.737   3.609  48.292  1.00  0.00    -0.314 NA
HETATM   24  H7  UNL     1      20.755   3.890  48.114  1.00  0.00     0.185 HD
ENDBRANCH   3  22
BRANCH   7  25
HETATM   25  C12 UNL     1      25.394   8.497  50.021  1.00  0.00     0.111 C 
HETATM   26  N3  UNL     1      26.497   8.122  50.535  1.00  0.00    -0.312 NA
HETATM   27  H11 UNL     1      27.370   8.669  50.553  1.00  0.00     0.186 HD
ENDBRANCH   7  25
TORSDOF 7
ENDMDL
MODEL 7
REMARK VINA RESULT:      -6.2      2.737      4.072
REMARK  7 active torsions:
REMARK  status: ('A' for Active; 'I' for Inactive)
REMARK    1  A    between atoms: C2_2  and  C3_3 
REMARK    2  A    between atoms: C3_3  and  C4_4 
REMARK    3  A    between atoms: C4_4  and  N1_6 
REMARK    4  A    between atoms: N1_6  and  C5_7 
REMARK    5  A    between atoms: C7_9  and  C8_10 
REMARK    6  A    between atoms: C11_15  and  C12_16 
REMARK    7  A    between atoms: N4_23  and  O3_24 
ROOT
HETATM    1  C5  UNL     1      22.448   4.648  51.434  1.00  0.00     0.155 C 
HETATM    2  C6  UNL     1      21.412   5.024  50.658  1.00  0.00     0.063 C 
HETATM    3  C7  UNL     1      21.831   6.201  49.826  1.00  0.00     0.188 C 
HETATM    4  O1  UNL     1      22.613   7.012  50.589  1.00  0.00    -0.376 OA
HETATM    5  C9  UNL     1      23.339   8.122  50.437  1.00  0.00     0.110 C 
HETATM    6  C10 UNL     1      24.605   7.699  50.148  1.00  0.00     0.122 A 
HETATM    7  C11 UNL     1      25.664   8.626  49.926  1.00  0.00    -0.044 A 
HETATM    8  C13 UNL     1      26.266   7.376  49.786  1.00  0.00     0.086 A 
HETATM    9  C14 UNL     1      25.662   5.997  49.898  1.00  0.00     0.083 A 
HETATM   10  C15 UNL     1      24.807   5.228  50.492  1.00  0.00     0.096 A 
HETATM   11  C16 UNL     1      25.189   4.075  49.684  1.00  0.00     0.237 A 
HETATM   12  O2  UNL     1      26.072   4.956  49.082  1.00  0.00    -0.346 OA
HETATM   13  N4  UNL     1      23.783   5.202  51.524  1.00  0.00    -0.206 N 
ENDROOT
BRANCH   1  14
HETATM   14  N1  UNL     1      22.254   3.540  52.306  1.00  0.00    -0.221 NA
BRANCH  14  15
HETATM   15  C4  UNL     1      22.215   2.310  51.949  1.00  0.00     0.112 C 
HETATM   16 BR1  UNL     1      21.524   0.810  51.003  1.00  0.00    -0.029 Br
BRANCH  15  17
HETATM   17  C3  UNL     1      23.337   1.911  52.733  1.00  0.00     0.090 C 
BRANCH  17  18
HETATM   18  C2  UNL     1      23.623   0.655  53.034  1.00  0.00    -0.152 C 
HETATM   19  C1  UNL     1      24.245  -0.413  53.512  1.00  0.00     0.096 C 
ENDBRANCH  17  18
ENDBRANCH  15  17
ENDBRANCH  14  15
ENDBRANCH   1  14
BRANCH  13  20
HETATM   20  O3  UNL     1      24.101   5.740  52.707  1.00  0.00    -0.281 OA
HETATM   21  H15 UNL     1      24.408   6.664  52.579  1.00  0.00     0.245 HD
ENDBRANCH  13  20
BRANCH   3  22
HETATM   22  C8  UNL     1      22.436   5.758  48.566  1.00  0.00     0.116 C 
HETATM   23  N2  UNL     1      22.494   6.270  47.416  1.00  0.00    -0.314 NA
HETATM   24  H7  UNL     1      22.077   7.184  47.163  1.00  0.00     0.185 HD
ENDBRANCH   3  22
BRANCH   7  25
HETATM   25  C12 UNL     1      26.737   9.608  49.700  1.00  0.00     0.111 C 
HETATM   26  N3  UNL     1      27.111   9.602  50.918  1.00  0.00    -0.312 NA
HETATM   27  H11 UNL     1      27.883  10.158  51.313  1.00  0.00     0.186 HD
ENDBRANCH   7  25
TORSDOF 7
ENDMDL
MODEL 8
REMARK VINA RESULT:      -6.2      2.951      5.721
REMARK  7 active torsions:
REMARK  status: ('A' for Active; 'I' for Inactive)
REMARK    1  A    between atoms: C2_2  and  C3_3 
REMARK    2  A    between atoms: C3_3  and  C4_4 
REMARK    3  A    between atoms: C4_4  and  N1_6 
REMARK    4  A    between atoms: N1_6  and  C5_7 
REMARK    5  A    between atoms: C7_9  and  C8_10 
REMARK    6  A    between atoms: C11_15  and  C12_16 
REMARK    7  A    between atoms: N4_23  and  O3_24 
ROOT
HETATM    1  C5  UNL     1      21.935   3.492  50.789  1.00  0.00     0.155 C 
HETATM    2  C6  UNL     1      21.717   4.502  51.655  1.00  0.00     0.063 C 
HETATM    3  C7  UNL     1      22.939   4.686  52.506  1.00  0.00     0.188 C 
HETATM    4  O1  UNL     1      23.449   3.458  52.799  1.00  0.00    -0.376 OA
HETATM    5  C9  UNL     1      24.517   2.947  53.416  1.00  0.00     0.110 C 
HETATM    6  C10 UNL     1      25.450   2.754  52.438  1.00  0.00     0.122 A 
HETATM    7  C11 UNL     1      26.732   2.207  52.734  1.00  0.00    -0.044 A 
HETATM    8  C13 UNL     1      26.758   2.418  51.356  1.00  0.00     0.086 A 
HETATM    9  C14 UNL     1      25.694   2.985  50.447  1.00  0.00     0.083 A 
HETATM   10  C15 UNL     1      24.433   3.080  50.174  1.00  0.00     0.096 A 
HETATM   11  C16 UNL     1      24.684   3.927  49.013  1.00  0.00     0.237 A 
HETATM   12  O2  UNL     1      26.016   3.796  49.370  1.00  0.00    -0.346 OA
HETATM   13  N4  UNL     1      23.111   2.665  50.614  1.00  0.00    -0.206 N 
ENDROOT
BRANCH   1  14
HETATM   14  N1  UNL     1      20.888   3.155  49.887  1.00  0.00    -0.221 NA
BRANCH  14  15
HETATM   15  C4  UNL     1      19.635   3.185  50.156  1.00  0.00     0.112 C 
HETATM   16 BR1  UNL     1      18.014   4.000  50.729  1.00  0.00    -0.029 Br
BRANCH  15  17
HETATM   17  C3  UNL     1      19.395   1.823  49.812  1.00  0.00     0.090 C 
BRANCH  17  18
HETATM   18  C2  UNL     1      19.400   0.826  50.682  1.00  0.00    -0.152 C 
HETATM   19  C1  UNL     1      19.522   0.142  51.810  1.00  0.00     0.096 C 
ENDBRANCH  17  18
ENDBRANCH  15  17
ENDBRANCH  14  15
ENDBRANCH   1  14
BRANCH  13  20
HETATM   20  O3  UNL     1      22.942   1.365  50.882  1.00  0.00    -0.281 OA
HETATM   21  H15 UNL     1      21.994   1.127  50.789  1.00  0.00     0.245 HD
ENDBRANCH  13  20
BRANCH   3  22
HETATM   22  C8  UNL     1      23.879   5.615  51.871  1.00  0.00     0.116 C 
HETATM   23  N2  UNL     1      24.321   6.747  52.204  1.00  0.00    -0.314 NA
HETATM   24  H7  UNL     1      24.056   7.245  53.074  1.00  0.00     0.185 HD
ENDBRANCH   3  22
BRANCH   7  25
HETATM   25  C12 UNL     1      28.048   1.642  53.071  1.00  0.00     0.111 C 
HETATM   26  N3  UNL     1      28.657   2.749  52.907  1.00  0.00    -0.312 NA
HETATM   27  H11 UNL     1      29.668   2.905  53.029  1.00  0.00     0.186 HD
ENDBRANCH   7  25
TORSDOF 7
ENDMDL
MODEL 9
REMARK VINA RESULT:      -6.0      7.578      9.788
REMARK  7 active torsions:
REMARK  status: ('A' for Active; 'I' for Inactive)
REMARK    1  A    between atoms: C2_2  and  C3_3 
REMARK    2  A    between atoms: C3_3  and  C4_4 
REMARK    3  A    between atoms: C4_4  and  N1_6 
REMARK    4  A    between atoms: N1_6  and  C5_7 
REMARK    5  A    between atoms: C7_9  and  C8_10 
REMARK    6  A    between atoms: C11_15  and  C12_16 
REMARK    7  A    between atoms: N4_23  and  O3_24 
ROOT
HETATM    1  C5  UNL     1      29.515   6.555  47.691  1.00  0.00     0.155 C 
HETATM    2  C6  UNL     1      29.551   7.574  46.810  1.00  0.00     0.063 C 
HETATM    3  C7  UNL     1      30.982   7.960  46.571  1.00  0.00     0.188 C 
HETATM    4  O1  UNL     1      31.653   7.881  47.753  1.00  0.00    -0.376 OA
HETATM    5  C9  UNL     1      32.907   8.007  48.194  1.00  0.00     0.110 C 
HETATM    6  C10 UNL     1      33.433   6.747  48.172  1.00  0.00     0.122 A 
HETATM    7  C11 UNL     1      34.772   6.495  48.589  1.00  0.00    -0.044 A 
HETATM    8  C13 UNL     1      34.282   5.239  48.235  1.00  0.00     0.086 A 
HETATM    9  C14 UNL     1      32.921   4.850  47.706  1.00  0.00     0.083 A 
HETATM   10  C15 UNL     1      31.644   5.052  47.735  1.00  0.00     0.096 A 
HETATM   11  C16 UNL     1      31.393   4.008  46.748  1.00  0.00     0.237 A 
HETATM   12  O2  UNL     1      32.769   3.854  46.756  1.00  0.00    -0.346 OA
HETATM   13  N4  UNL     1      30.605   5.865  48.349  1.00  0.00    -0.206 N 
ENDROOT
BRANCH   1  14
HETATM   14  N1  UNL     1      28.241   6.039  48.055  1.00  0.00    -0.221 NA
BRANCH  14  15
HETATM   15  C4  UNL     1      27.333   6.679  48.694  1.00  0.00     0.112 C 
HETATM   16 BR1  UNL     1      26.623   8.153  49.665  1.00  0.00    -0.029 Br
BRANCH  15  17
HETATM   17  C3  UNL     1      26.341   5.664  48.564  1.00  0.00     0.090 C 
BRANCH  17  18
HETATM   18  C2  UNL     1      26.387   4.497  49.185  1.00  0.00    -0.152 C 
HETATM   19  C1  UNL     1      26.337   3.575  50.136  1.00  0.00     0.096 C 
ENDBRANCH  17  18
ENDBRANCH  15  17
ENDBRANCH  14  15
ENDBRANCH   1  14
BRANCH  13  20
HETATM   20  O3  UNL     1      30.642   5.989  49.680  1.00  0.00    -0.281 OA
HETATM   21  H15 UNL     1      31.573   6.078  49.980  1.00  0.00     0.245 HD
ENDBRANCH  13  20
BRANCH   3  22
HETATM   22  C8  UNL     1      31.556   7.173  45.475  1.00  0.00     0.116 C 
HETATM   23  N2  UNL     1      32.483   7.399  44.652  1.00  0.00    -0.314 NA
HETATM   24  H7  UNL     1      33.039   8.274  44.624  1.00  0.00     0.185 HD
ENDBRANCH   3  22
BRANCH   7  25
HETATM   25  C12 UNL     1      36.159   6.268  49.025  1.00  0.00     0.111 C 
HETATM   26  N3  UNL     1      35.820   5.494  49.978  1.00  0.00    -0.312 NA
HETATM   27  H11 UNL     1      36.463   5.031  50.636  1.00  0.00     0.186 HD
ENDBRANCH   7  25
TORSDOF 7
ENDMDL
