MODEL 1
REMARK VINA RESULT:      -6.8      0.000      0.000
REMARK  11 active torsions:
REMARK  status: ('A' for Active; 'I' for Inactive)
REMARK    1  A    between atoms: N1_2  and  C3_4 
REMARK    2  A    between atoms: C3_4  and  C4_5 
REMARK    3  A    between atoms: C4_5  and  C5_6 
REMARK    4  A    between atoms: C4_5  and  C7_10 
REMARK    5  A    between atoms: C5_6  and  S1_7 
REMARK    6  A    between atoms: S1_7  and  C6_8 
REMARK    7  A    between atoms: C6_8  and  N2_9 
REMARK    8  A    between atoms: C7_10  and  C8_12 
REMARK    9  A    between atoms: C11_15  and  O2_16 
REMARK   10  A    between atoms: O2_16  and  C12_17 
REMARK   11  A    between atoms: C12_17  and  C13_18 
ROOT
HETATM    1  C8  UNL     1      23.066  -0.101  53.323  1.00  0.00     0.010 A 
HETATM    2  C9  UNL     1      22.095   0.674  52.727  1.00  0.00     0.018 A 
HETATM    3  C10 UNL     1      20.746   0.519  52.862  1.00  0.00     0.037 A 
HETATM    4  C11 UNL     1      20.282  -0.503  53.665  1.00  0.00     0.069 A 
HETATM    5  C19 UNL     1      21.196  -1.311  54.286  1.00  0.00     0.037 A 
HETATM    6  C20 UNL     1      22.550  -1.124  54.127  1.00  0.00     0.018 A 
ENDROOT
BRANCH   1   7
HETATM    7  C7  UNL     1      24.509   0.056  53.218  1.00  0.00     0.166 C 
HETATM    8  O1  UNL     1      25.191  -0.540  54.133  1.00  0.00    -0.292 OA
BRANCH   7   9
HETATM    9  C4  UNL     1      25.289   0.791  52.228  1.00  0.00     0.098 C 
BRANCH   9  10
HETATM   10  C3  UNL     1      25.310   2.276  52.345  1.00  0.00     0.284 C 
BRANCH  10  11
HETATM   11  N1  UNL     1      24.661   2.973  51.231  1.00  0.00     0.080 N 
HETATM   12  C1  UNL     1      23.866   4.029  51.896  1.00  0.00     0.309 C 
HETATM   13  C2  UNL     1      25.630   3.722  50.439  1.00  0.00     0.309 C 
ENDBRANCH  10  11
ENDBRANCH   9  10
BRANCH   9  14
HETATM   14  C5  UNL     1      26.740   0.338  52.304  1.00  0.00     0.090 C 
BRANCH  14  15
HETATM   15  S1  UNL     1      27.821   1.583  52.993  1.00  0.00    -0.139 SA
BRANCH  15  16
HETATM   16  C6  UNL     1      28.769   0.873  54.363  1.00  0.00     0.340 C 
BRANCH  16  17
HETATM   17  N2  UNL     1      28.077  -0.248  54.969  1.00  0.00     0.087 N 
HETATM   18  H14 UNL     1      28.628  -1.102  55.070  1.00  0.00     0.313 HD
HETATM   19  H15 UNL     1      27.136  -0.405  54.552  1.00  0.00     0.313 HD
ENDBRANCH  16  17
ENDBRANCH  15  16
ENDBRANCH  14  15
ENDBRANCH   9  14
ENDBRANCH   7   9
ENDBRANCH   1   7
BRANCH   4  20
HETATM   20  O2  UNL     1      18.924  -0.705  53.840  1.00  0.00    -0.347 OA
BRANCH  20  21
HETATM   21  C12 UNL     1      18.103  -0.875  52.691  1.00  0.00     0.214 C 
BRANCH  21  22
HETATM   22  C13 UNL     1      17.161  -2.030  52.835  1.00  0.00    -0.034 A 
HETATM   23  C14 UNL     1      17.651  -3.115  53.570  1.00  0.00     0.009 A 
HETATM   24  C15 UNL     1      16.869  -4.231  53.761  1.00  0.00     0.001 A 
HETATM   25  C16 UNL     1      15.600  -4.248  53.211  1.00  0.00     0.000 A 
HETATM   26  C17 UNL     1      15.131  -3.164  52.484  1.00  0.00     0.001 A 
HETATM   27  C18 UNL     1      15.881  -2.032  52.272  1.00  0.00     0.009 A 
ENDBRANCH  21  22
ENDBRANCH  20  21
ENDBRANCH   4  20
TORSDOF 11
ENDMDL
MODEL 2
REMARK VINA RESULT:      -6.7      5.234      8.270
REMARK  11 active torsions:
REMARK  status: ('A' for Active; 'I' for Inactive)
REMARK    1  A    between atoms: N1_2  and  C3_4 
REMARK    2  A    between atoms: C3_4  and  C4_5 
REMARK    3  A    between atoms: C4_5  and  C5_6 
REMARK    4  A    between atoms: C4_5  and  C7_10 
REMARK    5  A    between atoms: C5_6  and  S1_7 
REMARK    6  A    between atoms: S1_7  and  C6_8 
REMARK    7  A    between atoms: C6_8  and  N2_9 
REMARK    8  A    between atoms: C7_10  and  C8_12 
REMARK    9  A    between atoms: C11_15  and  O2_16 
REMARK   10  A    between atoms: O2_16  and  C12_17 
REMARK   11  A    between atoms: C12_17  and  C13_18 
ROOT
HETATM    1  C8  UNL     1      27.186   5.391  48.681  1.00  0.00     0.010 A 
HETATM    2  C9  UNL     1      25.985   6.063  48.741  1.00  0.00     0.018 A 
HETATM    3  C10 UNL     1      24.801   5.559  49.195  1.00  0.00     0.037 A 
HETATM    4  C11 UNL     1      24.775   4.254  49.641  1.00  0.00     0.069 A 
HETATM    5  C19 UNL     1      25.935   3.529  49.607  1.00  0.00     0.037 A 
HETATM    6  C20 UNL     1      27.112   4.072  49.143  1.00  0.00     0.018 A 
ENDROOT
BRANCH   1   7
HETATM    7  C7  UNL     1      28.468   5.910  48.227  1.00  0.00     0.166 C 
HETATM    8  O1  UNL     1      29.423   5.047  48.187  1.00  0.00    -0.292 OA
BRANCH   7   9
HETATM    9  C4  UNL     1      28.823   7.263  47.814  1.00  0.00     0.098 C 
BRANCH   9  10
HETATM   10  C3  UNL     1      28.930   8.294  48.884  1.00  0.00     0.284 C 
BRANCH  10  11
HETATM   11  N1  UNL     1      27.865   9.300  48.855  1.00  0.00     0.080 N 
HETATM   12  C1  UNL     1      27.256   9.201  50.200  1.00  0.00     0.309 C 
HETATM   13  C2  UNL     1      28.412  10.651  48.826  1.00  0.00     0.309 C 
ENDBRANCH  10  11
ENDBRANCH   9  10
BRANCH   9  14
HETATM   14  C5  UNL     1      30.175   7.229  47.117  1.00  0.00     0.090 C 
BRANCH  14  15
HETATM   15  S1  UNL     1      31.470   8.005  48.075  1.00  0.00    -0.139 SA
BRANCH  15  16
HETATM   16  C6  UNL     1      32.398   6.738  48.977  1.00  0.00     0.340 C 
BRANCH  16  17
HETATM   17  N2  UNL     1      31.616   6.167  50.056  1.00  0.00     0.087 N 
HETATM   18  H14 UNL     1      30.631   6.440  50.079  1.00  0.00     0.313 HD
HETATM   19  H15 UNL     1      32.093   6.248  50.978  1.00  0.00     0.313 HD
ENDBRANCH  16  17
ENDBRANCH  15  16
ENDBRANCH  14  15
ENDBRANCH   9  14
ENDBRANCH   7   9
ENDBRANCH   1   7
BRANCH   4  20
HETATM   20  O2  UNL     1      23.601   3.691  50.114  1.00  0.00    -0.347 OA
BRANCH  20  21
HETATM   21  C12 UNL     1      23.340   3.725  51.512  1.00  0.00     0.214 C 
BRANCH  21  22
HETATM   22  C13 UNL     1      23.563   2.395  52.161  1.00  0.00    -0.034 A 
HETATM   23  C14 UNL     1      22.488   1.501  52.084  1.00  0.00     0.009 A 
HETATM   24  C15 UNL     1      22.586   0.251  52.650  1.00  0.00     0.001 A 
HETATM   25  C16 UNL     1      23.763  -0.092  53.291  1.00  0.00     0.000 A 
HETATM   26  C17 UNL     1      24.818   0.806  53.359  1.00  0.00     0.001 A 
HETATM   27  C18 UNL     1      24.759   2.062  52.806  1.00  0.00     0.009 A 
ENDBRANCH  21  22
ENDBRANCH  20  21
ENDBRANCH   4  20
TORSDOF 11
ENDMDL
MODEL 3
REMARK VINA RESULT:      -6.7      6.050      9.234
REMARK  11 active torsions:
REMARK  status: ('A' for Active; 'I' for Inactive)
REMARK    1  A    between atoms: N1_2  and  C3_4 
REMARK    2  A    between atoms: C3_4  and  C4_5 
REMARK    3  A    between atoms: C4_5  and  C5_6 
REMARK    4  A    between atoms: C4_5  and  C7_10 
REMARK    5  A    between atoms: C5_6  and  S1_7 
REMARK    6  A    between atoms: S1_7  and  C6_8 
REMARK    7  A    between atoms: C6_8  and  N2_9 
REMARK    8  A    between atoms: C7_10  and  C8_12 
REMARK    9  A    between atoms: C11_15  and  O2_16 
REMARK   10  A    between atoms: O2_16  and  C12_17 
REMARK   11  A    between atoms: C12_17  and  C13_18 
ROOT
HETATM    1  C8  UNL     1      27.288   5.939  48.568  1.00  0.00     0.010 A 
HETATM    2  C9  UNL     1      27.593   4.607  48.738  1.00  0.00     0.018 A 
HETATM    3  C10 UNL     1      26.795   3.665  49.320  1.00  0.00     0.037 A 
HETATM    4  C11 UNL     1      25.559   4.057  49.793  1.00  0.00     0.069 A 
HETATM    5  C19 UNL     1      25.195   5.369  49.657  1.00  0.00     0.037 A 
HETATM    6  C20 UNL     1      26.027   6.292  49.063  1.00  0.00     0.018 A 
ENDROOT
BRANCH   1   7
HETATM    7  C7  UNL     1      28.106   6.959  47.929  1.00  0.00     0.166 C 
HETATM    8  O1  UNL     1      27.534   7.594  46.966  1.00  0.00    -0.292 OA
BRANCH   7   9
HETATM    9  C4  UNL     1      29.477   7.361  48.223  1.00  0.00     0.098 C 
BRANCH   9  10
HETATM   10  C3  UNL     1      30.569   6.544  47.622  1.00  0.00     0.284 C 
BRANCH  10  11
HETATM   11  N1  UNL     1      31.879   6.740  48.250  1.00  0.00     0.080 N 
HETATM   12  C1  UNL     1      31.756   6.030  49.542  1.00  0.00     0.309 C 
HETATM   13  C2  UNL     1      32.919   5.997  47.549  1.00  0.00     0.309 C 
ENDBRANCH  10  11
ENDBRANCH   9  10
BRANCH   9  14
HETATM   14  C5  UNL     1      29.692   8.785  47.732  1.00  0.00     0.090 C 
BRANCH  14  15
HETATM   15  S1  UNL     1      29.501  10.003  49.027  1.00  0.00    -0.139 SA
BRANCH  15  16
HETATM   16  C6  UNL     1      27.786  10.003  49.610  1.00  0.00     0.340 C 
BRANCH  16  17
HETATM   17  N2  UNL     1      27.643   9.268  50.852  1.00  0.00     0.087 N 
HETATM   18  H14 UNL     1      26.689   8.991  51.092  1.00  0.00     0.313 HD
HETATM   19  H15 UNL     1      28.158   9.716  51.639  1.00  0.00     0.313 HD
ENDBRANCH  16  17
ENDBRANCH  15  16
ENDBRANCH  14  15
ENDBRANCH   9  14
ENDBRANCH   7   9
ENDBRANCH   1   7
BRANCH   4  20
HETATM   20  O2  UNL     1      24.708   3.144  50.391  1.00  0.00    -0.347 OA
BRANCH  20  21
HETATM   21  C12 UNL     1      24.772   2.969  51.801  1.00  0.00     0.214 C 
BRANCH  21  22
HETATM   22  C13 UNL     1      25.241   1.599  52.180  1.00  0.00    -0.034 A 
HETATM   23  C14 UNL     1      24.335   0.840  52.930  1.00  0.00     0.009 A 
HETATM   24  C15 UNL     1      24.666  -0.433  53.335  1.00  0.00     0.001 A 
HETATM   25  C16 UNL     1      25.907  -0.933  52.983  1.00  0.00     0.000 A 
HETATM   26  C17 UNL     1      26.793  -0.167  52.240  1.00  0.00     0.001 A 
HETATM   27  C18 UNL     1      26.499   1.106  51.818  1.00  0.00     0.009 A 
ENDBRANCH  21  22
ENDBRANCH  20  21
ENDBRANCH   4  20
TORSDOF 11
ENDMDL
MODEL 4
REMARK VINA RESULT:      -6.6      4.726      8.105
REMARK  11 active torsions:
REMARK  status: ('A' for Active; 'I' for Inactive)
REMARK    1  A    between atoms: N1_2  and  C3_4 
REMARK    2  A    between atoms: C3_4  and  C4_5 
REMARK    3  A    between atoms: C4_5  and  C5_6 
REMARK    4  A    between atoms: C4_5  and  C7_10 
REMARK    5  A    between atoms: C5_6  and  S1_7 
REMARK    6  A    between atoms: S1_7  and  C6_8 
REMARK    7  A    between atoms: C6_8  and  N2_9 
REMARK    8  A    between atoms: C7_10  and  C8_12 
REMARK    9  A    between atoms: C11_15  and  O2_16 
REMARK   10  A    between atoms: O2_16  and  C12_17 
REMARK   11  A    between atoms: C12_17  and  C13_18 
ROOT
HETATM    1  C8  UNL     1      22.392   2.492  52.319  1.00  0.00     0.010 A 
HETATM    2  C9  UNL     1      22.102   1.162  52.527  1.00  0.00     0.018 A 
HETATM    3  C10 UNL     1      22.966   0.212  52.992  1.00  0.00     0.037 A 
HETATM    4  C11 UNL     1      24.259   0.593  53.288  1.00  0.00     0.069 A 
HETATM    5  C19 UNL     1      24.612   1.902  53.101  1.00  0.00     0.037 A 
HETATM    6  C20 UNL     1      23.713   2.833  52.631  1.00  0.00     0.018 A 
ENDROOT
BRANCH   1   7
HETATM    7  C7  UNL     1      21.486   3.531  51.850  1.00  0.00     0.166 C 
HETATM    8  O1  UNL     1      20.361   3.595  52.472  1.00  0.00    -0.292 OA
BRANCH   7   9
HETATM    9  C4  UNL     1      21.671   4.504  50.780  1.00  0.00     0.098 C 
BRANCH   9  10
HETATM   10  C3  UNL     1      20.666   4.504  49.680  1.00  0.00     0.284 C 
BRANCH  10  11
HETATM   11  N1  UNL     1      20.968   3.569  48.593  1.00  0.00     0.080 N 
HETATM   12  C1  UNL     1      19.823   3.729  47.668  1.00  0.00     0.309 C 
HETATM   13  C2  UNL     1      22.108   4.022  47.806  1.00  0.00     0.309 C 
ENDBRANCH  10  11
ENDBRANCH   9  10
BRANCH   9  14
HETATM   14  C5  UNL     1      21.653   5.905  51.375  1.00  0.00     0.090 C 
BRANCH  14  15
HETATM   15  S1  UNL     1      22.343   7.134  50.276  1.00  0.00    -0.139 SA
BRANCH  15  16
HETATM   16  C6  UNL     1      24.012   7.570  50.825  1.00  0.00     0.340 C 
BRANCH  16  17
HETATM   17  N2  UNL     1      24.382   6.858  52.033  1.00  0.00     0.087 N 
HETATM   18  H14 UNL     1      23.857   7.112  52.872  1.00  0.00     0.313 HD
HETATM   19  H15 UNL     1      25.413   6.831  52.177  1.00  0.00     0.313 HD
ENDBRANCH  16  17
ENDBRANCH  15  16
ENDBRANCH  14  15
ENDBRANCH   9  14
ENDBRANCH   7   9
ENDBRANCH   1   7
BRANCH   4  20
HETATM   20  O2  UNL     1      25.176  -0.328  53.764  1.00  0.00    -0.347 OA
BRANCH  20  21
HETATM   21  C12 UNL     1      26.006  -1.013  52.833  1.00  0.00     0.214 C 
BRANCH  21  22
HETATM   22  C13 UNL     1      27.461  -0.814  53.121  1.00  0.00    -0.034 A 
HETATM   23  C14 UNL     1      28.243  -1.976  53.089  1.00  0.00     0.009 A 
HETATM   24  C15 UNL     1      29.594  -1.908  53.341  1.00  0.00     0.001 A 
HETATM   25  C16 UNL     1      30.149  -0.674  53.625  1.00  0.00     0.000 A 
HETATM   26  C17 UNL     1      29.360   0.467  53.653  1.00  0.00     0.001 A 
HETATM   27  C18 UNL     1      28.009   0.440  53.407  1.00  0.00     0.009 A 
ENDBRANCH  21  22
ENDBRANCH  20  21
ENDBRANCH   4  20
TORSDOF 11
ENDMDL
MODEL 5
REMARK VINA RESULT:      -6.5      5.721      8.582
REMARK  11 active torsions:
REMARK  status: ('A' for Active; 'I' for Inactive)
REMARK    1  A    between atoms: N1_2  and  C3_4 
REMARK    2  A    between atoms: C3_4  and  C4_5 
REMARK    3  A    between atoms: C4_5  and  C5_6 
REMARK    4  A    between atoms: C4_5  and  C7_10 
REMARK    5  A    between atoms: C5_6  and  S1_7 
REMARK    6  A    between atoms: S1_7  and  C6_8 
REMARK    7  A    between atoms: C6_8  and  N2_9 
REMARK    8  A    between atoms: C7_10  and  C8_12 
REMARK    9  A    between atoms: C11_15  and  O2_16 
REMARK   10  A    between atoms: O2_16  and  C12_17 
REMARK   11  A    between atoms: C12_17  and  C13_18 
ROOT
HETATM    1  C8  UNL     1      24.149   3.081  49.600  1.00  0.00     0.010 A 
HETATM    2  C9  UNL     1      25.409   3.535  49.276  1.00  0.00     0.018 A 
HETATM    3  C10 UNL     1      26.540   3.375  50.024  1.00  0.00     0.037 A 
HETATM    4  C11 UNL     1      26.441   2.699  51.223  1.00  0.00     0.069 A 
HETATM    5  C19 UNL     1      25.216   2.224  51.605  1.00  0.00     0.037 A 
HETATM    6  C20 UNL     1      24.096   2.404  50.824  1.00  0.00     0.018 A 
ENDROOT
BRANCH   1   7
HETATM    7  C7  UNL     1      22.933   3.215  48.813  1.00  0.00     0.166 C 
HETATM    8  O1  UNL     1      22.773   2.321  47.899  1.00  0.00    -0.292 OA
BRANCH   7   9
HETATM    9  C4  UNL     1      21.873   4.213  48.910  1.00  0.00     0.098 C 
BRANCH   9  10
HETATM   10  C3  UNL     1      21.016   4.177  50.128  1.00  0.00     0.284 C 
BRANCH  10  11
HETATM   11  N1  UNL     1      19.740   3.479  49.941  1.00  0.00     0.080 N 
HETATM   12  C1  UNL     1      18.747   4.407  50.527  1.00  0.00     0.309 C 
HETATM   13  C2  UNL     1      19.368   3.424  48.533  1.00  0.00     0.309 C 
ENDBRANCH  10  11
ENDBRANCH   9  10
BRANCH   9  14
HETATM   14  C5  UNL     1      22.495   5.601  48.868  1.00  0.00     0.090 C 
BRANCH  14  15
HETATM   15  S1  UNL     1      22.225   6.529  50.371  1.00  0.00    -0.139 SA
BRANCH  15  16
HETATM   16  C6  UNL     1      23.810   6.827  51.194  1.00  0.00     0.340 C 
BRANCH  16  17
HETATM   17  N2  UNL     1      24.084   5.827  52.208  1.00  0.00     0.087 N 
HETATM   18  H14 UNL     1      24.130   4.862  51.874  1.00  0.00     0.313 HD
HETATM   19  H15 UNL     1      23.490   5.948  53.054  1.00  0.00     0.313 HD
ENDBRANCH  16  17
ENDBRANCH  15  16
ENDBRANCH  14  15
ENDBRANCH   9  14
ENDBRANCH   7   9
ENDBRANCH   1   7
BRANCH   4  20
HETATM   20  O2  UNL     1      27.556   2.506  52.020  1.00  0.00    -0.347 OA
BRANCH  20  21
HETATM   21  C12 UNL     1      27.400   1.840  53.267  1.00  0.00     0.214 C 
BRANCH  21  22
HETATM   22  C13 UNL     1      27.983   0.461  53.248  1.00  0.00    -0.034 A 
HETATM   23  C14 UNL     1      29.328   0.373  53.626  1.00  0.00     0.009 A 
HETATM   24  C15 UNL     1      29.964  -0.847  53.641  1.00  0.00     0.001 A 
HETATM   25  C16 UNL     1      29.244  -1.969  53.275  1.00  0.00     0.000 A 
HETATM   26  C17 UNL     1      27.912  -1.864  52.901  1.00  0.00     0.001 A 
HETATM   27  C18 UNL     1      27.242  -0.665  52.874  1.00  0.00     0.009 A 
ENDBRANCH  21  22
ENDBRANCH  20  21
ENDBRANCH   4  20
TORSDOF 11
ENDMDL
MODEL 6
REMARK VINA RESULT:      -6.5      3.715      8.396
REMARK  11 active torsions:
REMARK  status: ('A' for Active; 'I' for Inactive)
REMARK    1  A    between atoms: N1_2  and  C3_4 
REMARK    2  A    between atoms: C3_4  and  C4_5 
REMARK    3  A    between atoms: C4_5  and  C5_6 
REMARK    4  A    between atoms: C4_5  and  C7_10 
REMARK    5  A    between atoms: C5_6  and  S1_7 
REMARK    6  A    between atoms: S1_7  and  C6_8 
REMARK    7  A    between atoms: C6_8  and  N2_9 
REMARK    8  A    between atoms: C7_10  and  C8_12 
REMARK    9  A    between atoms: C11_15  and  O2_16 
REMARK   10  A    between atoms: O2_16  and  C12_17 
REMARK   11  A    between atoms: C12_17  and  C13_18 
ROOT
HETATM    1  C8  UNL     1      21.711   1.542  52.564  1.00  0.00     0.010 A 
HETATM    2  C9  UNL     1      21.725   0.394  53.326  1.00  0.00     0.018 A 
HETATM    3  C10 UNL     1      22.835  -0.284  53.740  1.00  0.00     0.037 A 
HETATM    4  C11 UNL     1      24.073   0.203  53.374  1.00  0.00     0.069 A 
HETATM    5  C19 UNL     1      24.129   1.340  52.615  1.00  0.00     0.037 A 
HETATM    6  C20 UNL     1      22.988   1.998  52.216  1.00  0.00     0.018 A 
ENDROOT
BRANCH   1   7
HETATM    7  C7  UNL     1      20.547   2.299  52.130  1.00  0.00     0.166 C 
HETATM    8  O1  UNL     1      20.280   3.342  52.836  1.00  0.00    -0.292 OA
BRANCH   7   9
HETATM    9  C4  UNL     1      19.643   2.046  51.014  1.00  0.00     0.098 C 
BRANCH   9  10
HETATM   10  C3  UNL     1      20.087   1.059  49.989  1.00  0.00     0.284 C 
BRANCH  10  11
HETATM   11  N1  UNL     1      20.537   1.663  48.732  1.00  0.00     0.080 N 
HETATM   12  C1  UNL     1      19.698   2.877  48.610  1.00  0.00     0.309 C 
HETATM   13  C2  UNL     1      21.890   2.193  48.852  1.00  0.00     0.309 C 
ENDBRANCH  10  11
ENDBRANCH   9  10
BRANCH   9  14
HETATM   14  C5  UNL     1      18.318   1.529  51.556  1.00  0.00     0.090 C 
BRANCH  14  15
HETATM   15  S1  UNL     1      18.199  -0.255  51.515  1.00  0.00    -0.139 SA
BRANCH  15  16
HETATM   16  C6  UNL     1      18.466  -0.919  53.178  1.00  0.00     0.340 C 
BRANCH  16  17
HETATM   17  N2  UNL     1      17.268  -1.544  53.704  1.00  0.00     0.087 N 
HETATM   18  H14 UNL     1      17.211  -2.557  53.583  1.00  0.00     0.313 HD
HETATM   19  H15 UNL     1      16.401  -1.040  53.421  1.00  0.00     0.313 HD
ENDBRANCH  16  17
ENDBRANCH  15  16
ENDBRANCH  14  15
ENDBRANCH   9  14
ENDBRANCH   7   9
ENDBRANCH   1   7
BRANCH   4  20
HETATM   20  O2  UNL     1      25.232  -0.444  53.768  1.00  0.00    -0.347 OA
BRANCH  20  21
HETATM   21  C12 UNL     1      26.083  -0.995  52.770  1.00  0.00     0.214 C 
BRANCH  21  22
HETATM   22  C13 UNL     1      27.531  -0.836  53.110  1.00  0.00    -0.034 A 
HETATM   23  C14 UNL     1      28.296  -2.007  53.039  1.00  0.00     0.009 A 
HETATM   24  C15 UNL     1      29.640  -1.974  53.335  1.00  0.00     0.001 A 
HETATM   25  C16 UNL     1      30.204  -0.766  53.700  1.00  0.00     0.000 A 
HETATM   26  C17 UNL     1      29.432   0.384  53.767  1.00  0.00     0.001 A 
HETATM   27  C18 UNL     1      28.088   0.393  53.479  1.00  0.00     0.009 A 
ENDBRANCH  21  22
ENDBRANCH  20  21
ENDBRANCH   4  20
TORSDOF 11
ENDMDL
MODEL 7
REMARK VINA RESULT:      -6.4      5.936      9.468
REMARK  11 active torsions:
REMARK  status: ('A' for Active; 'I' for Inactive)
REMARK    1  A    between atoms: N1_2  and  C3_4 
REMARK    2  A    between atoms: C3_4  and  C4_5 
REMARK    3  A    between atoms: C4_5  and  C5_6 
REMARK    4  A    between atoms: C4_5  and  C7_10 
REMARK    5  A    between atoms: C5_6  and  S1_7 
REMARK    6  A    between atoms: S1_7  and  C6_8 
REMARK    7  A    between atoms: C6_8  and  N2_9 
REMARK    8  A    between atoms: C7_10  and  C8_12 
REMARK    9  A    between atoms: C11_15  and  O2_16 
REMARK   10  A    between atoms: O2_16  and  C12_17 
REMARK   11  A    between atoms: C12_17  and  C13_18 
ROOT
HETATM    1  C8  UNL     1      27.235   6.029  48.578  1.00  0.00     0.010 A 
HETATM    2  C9  UNL     1      27.588   4.709  48.749  1.00  0.00     0.018 A 
HETATM    3  C10 UNL     1      26.801   3.726  49.279  1.00  0.00     0.037 A 
HETATM    4  C11 UNL     1      25.528   4.060  49.691  1.00  0.00     0.069 A 
HETATM    5  C19 UNL     1      25.115   5.358  49.550  1.00  0.00     0.037 A 
HETATM    6  C20 UNL     1      25.936   6.322  49.011  1.00  0.00     0.018 A 
ENDROOT
BRANCH   1   7
HETATM    7  C7  UNL     1      28.042   7.091  47.994  1.00  0.00     0.166 C 
HETATM    8  O1  UNL     1      27.476   7.744  47.040  1.00  0.00    -0.292 OA
BRANCH   7   9
HETATM    9  C4  UNL     1      29.394   7.517  48.334  1.00  0.00     0.098 C 
BRANCH   9  10
HETATM   10  C3  UNL     1      30.520   6.774  47.702  1.00  0.00     0.284 C 
BRANCH  10  11
HETATM   11  N1  UNL     1      31.041   5.670  48.515  1.00  0.00     0.080 N 
HETATM   12  C1  UNL     1      31.968   4.970  47.599  1.00  0.00     0.309 C 
HETATM   13  C2  UNL     1      31.913   6.159  49.576  1.00  0.00     0.309 C 
ENDBRANCH  10  11
ENDBRANCH   9  10
BRANCH   9  14
HETATM   14  C5  UNL     1      29.570   8.975  47.936  1.00  0.00     0.090 C 
BRANCH  14  15
HETATM   15  S1  UNL     1      30.732   9.845  48.979  1.00  0.00    -0.139 SA
BRANCH  15  16
HETATM   16  C6  UNL     1      30.429  11.627  48.869  1.00  0.00     0.340 C 
BRANCH  16  17
HETATM   17  N2  UNL     1      31.068  12.208  47.703  1.00  0.00     0.087 N 
HETATM   18  H14 UNL     1      32.028  11.903  47.530  1.00  0.00     0.313 HD
HETATM   19  H15 UNL     1      30.943  13.241  47.657  1.00  0.00     0.313 HD
ENDBRANCH  16  17
ENDBRANCH  15  16
ENDBRANCH  14  15
ENDBRANCH   9  14
ENDBRANCH   7   9
ENDBRANCH   1   7
BRANCH   4  20
HETATM   20  O2  UNL     1      24.687   3.104  50.234  1.00  0.00    -0.347 OA
BRANCH  20  21
HETATM   21  C12 UNL     1      24.573   3.014  51.648  1.00  0.00     0.214 C 
BRANCH  21  22
HETATM   22  C13 UNL     1      24.949   1.659  52.161  1.00  0.00    -0.034 A 
HETATM   23  C14 UNL     1      26.245   1.236  51.842  1.00  0.00     0.009 A 
HETATM   24  C15 UNL     1      26.693   0.004  52.261  1.00  0.00     0.001 A 
HETATM   25  C16 UNL     1      25.836  -0.793  52.998  1.00  0.00     0.000 A 
HETATM   26  C17 UNL     1      24.555  -0.358  53.304  1.00  0.00     0.001 A 
HETATM   27  C18 UNL     1      24.071   0.864  52.904  1.00  0.00     0.009 A 
ENDBRANCH  21  22
ENDBRANCH  20  21
ENDBRANCH   4  20
TORSDOF 11
ENDMDL
MODEL 8
REMARK VINA RESULT:      -6.2      6.704     12.448
REMARK  11 active torsions:
REMARK  status: ('A' for Active; 'I' for Inactive)
REMARK    1  A    between atoms: N1_2  and  C3_4 
REMARK    2  A    between atoms: C3_4  and  C4_5 
REMARK    3  A    between atoms: C4_5  and  C5_6 
REMARK    4  A    between atoms: C4_5  and  C7_10 
REMARK    5  A    between atoms: C5_6  and  S1_7 
REMARK    6  A    between atoms: S1_7  and  C6_8 
REMARK    7  A    between atoms: C6_8  and  N2_9 
REMARK    8  A    between atoms: C7_10  and  C8_12 
REMARK    9  A    between atoms: C11_15  and  O2_16 
REMARK   10  A    between atoms: O2_16  and  C12_17 
REMARK   11  A    between atoms: C12_17  and  C13_18 
ROOT
HETATM    1  C8  UNL     1      26.668   5.923  48.879  1.00  0.00     0.010 A 
HETATM    2  C9  UNL     1      27.223   7.152  48.599  1.00  0.00     0.018 A 
HETATM    3  C10 UNL     1      28.495   7.380  48.159  1.00  0.00     0.037 A 
HETATM    4  C11 UNL     1      29.326   6.295  47.970  1.00  0.00     0.069 A 
HETATM    5  C19 UNL     1      28.835   5.044  48.232  1.00  0.00     0.037 A 
HETATM    6  C20 UNL     1      27.546   4.852  48.674  1.00  0.00     0.018 A 
ENDROOT
BRANCH   1   7
HETATM    7  C7  UNL     1      25.310   5.648  49.324  1.00  0.00     0.166 C 
HETATM    8  O1  UNL     1      24.812   6.520  50.130  1.00  0.00    -0.292 OA
BRANCH   7   9
HETATM    9  C4  UNL     1      24.437   4.529  48.989  1.00  0.00     0.098 C 
BRANCH   9  10
HETATM   10  C3  UNL     1      24.202   3.508  50.049  1.00  0.00     0.284 C 
BRANCH  10  11
HETATM   11  N1  UNL     1      25.155   3.570  51.161  1.00  0.00     0.080 N 
HETATM   12  C1  UNL     1      24.326   3.257  52.347  1.00  0.00     0.309 C 
HETATM   13  C2  UNL     1      26.106   2.466  51.107  1.00  0.00     0.309 C 
ENDBRANCH  10  11
ENDBRANCH   9  10
BRANCH   9  14
HETATM   14  C5  UNL     1      23.066   5.067  48.606  1.00  0.00     0.090 C 
BRANCH  14  15
HETATM   15  S1  UNL     1      21.752   4.408  49.623  1.00  0.00    -0.139 SA
BRANCH  15  16
HETATM   16  C6  UNL     1      21.158   5.691  50.754  1.00  0.00     0.340 C 
BRANCH  16  17
HETATM   17  N2  UNL     1      22.225   6.198  51.596  1.00  0.00     0.087 N 
HETATM   18  H14 UNL     1      22.197   7.201  51.785  1.00  0.00     0.313 HD
HETATM   19  H15 UNL     1      23.162   5.853  51.299  1.00  0.00     0.313 HD
ENDBRANCH  16  17
ENDBRANCH  15  16
ENDBRANCH  14  15
ENDBRANCH   9  14
ENDBRANCH   7   9
ENDBRANCH   1   7
BRANCH   4  20
HETATM   20  O2  UNL     1      30.625   6.468  47.523  1.00  0.00    -0.347 OA
BRANCH  20  21
HETATM   21  C12 UNL     1      31.687   6.418  48.468  1.00  0.00     0.214 C 
BRANCH  21  22
HETATM   22  C13 UNL     1      32.642   5.300  48.186  1.00  0.00    -0.034 A 
HETATM   23  C14 UNL     1      33.975   5.548  48.534  1.00  0.00     0.009 A 
HETATM   24  C15 UNL     1      34.938   4.590  48.316  1.00  0.00     0.001 A 
HETATM   25  C16 UNL     1      34.553   3.388  47.748  1.00  0.00     0.000 A 
HETATM   26  C17 UNL     1      33.228   3.159  47.409  1.00  0.00     0.001 A 
HETATM   27  C18 UNL     1      32.238   4.091  47.611  1.00  0.00     0.009 A 
ENDBRANCH  21  22
ENDBRANCH  20  21
ENDBRANCH   4  20
TORSDOF 11
ENDMDL
MODEL 9
REMARK VINA RESULT:      -6.1      5.810      9.365
REMARK  11 active torsions:
REMARK  status: ('A' for Active; 'I' for Inactive)
REMARK    1  A    between atoms: N1_2  and  C3_4 
REMARK    2  A    between atoms: C3_4  and  C4_5 
REMARK    3  A    between atoms: C4_5  and  C5_6 
REMARK    4  A    between atoms: C4_5  and  C7_10 
REMARK    5  A    between atoms: C5_6  and  S1_7 
REMARK    6  A    between atoms: S1_7  and  C6_8 
REMARK    7  A    between atoms: C6_8  and  N2_9 
REMARK    8  A    between atoms: C7_10  and  C8_12 
REMARK    9  A    between atoms: C11_15  and  O2_16 
REMARK   10  A    between atoms: O2_16  and  C12_17 
REMARK   11  A    between atoms: C12_17  and  C13_18 
ROOT
HETATM    1  C8  UNL     1      27.229   6.673  48.374  1.00  0.00     0.010 A 
HETATM    2  C9  UNL     1      26.078   6.620  49.129  1.00  0.00     0.018 A 
HETATM    3  C10 UNL     1      25.586   5.521  49.772  1.00  0.00     0.037 A 
HETATM    4  C11 UNL     1      26.287   4.337  49.673  1.00  0.00     0.069 A 
HETATM    5  C19 UNL     1      27.439   4.321  48.935  1.00  0.00     0.037 A 
HETATM    6  C20 UNL     1      27.906   5.449  48.300  1.00  0.00     0.018 A 
ENDROOT
BRANCH   1   7
HETATM    7  C7  UNL     1      27.790   7.833  47.698  1.00  0.00     0.166 C 
HETATM    8  O1  UNL     1      26.938   8.563  47.068  1.00  0.00    -0.292 OA
BRANCH   7   9
HETATM    9  C4  UNL     1      29.176   8.284  47.634  1.00  0.00     0.098 C 
BRANCH   9  10
HETATM   10  C3  UNL     1      29.408   9.746  47.468  1.00  0.00     0.284 C 
BRANCH  10  11
HETATM   11  N1  UNL     1      29.379  10.504  48.722  1.00  0.00     0.080 N 
HETATM   12  C1  UNL     1      30.527  11.430  48.595  1.00  0.00     0.309 C 
HETATM   13  C2  UNL     1      28.226  11.394  48.776  1.00  0.00     0.309 C 
ENDBRANCH  10  11
ENDBRANCH   9  10
BRANCH   9  14
HETATM   14  C5  UNL     1      29.888   7.883  48.919  1.00  0.00     0.090 C 
BRANCH  14  15
HETATM   15  S1  UNL     1      31.618   7.510  48.666  1.00  0.00    -0.139 SA
BRANCH  15  16
HETATM   16  C6  UNL     1      31.974   5.843  49.276  1.00  0.00     0.340 C 
BRANCH  16  17
HETATM   17  N2  UNL     1      31.608   5.693  50.671  1.00  0.00     0.087 N 
HETATM   18  H14 UNL     1      32.308   5.242  51.264  1.00  0.00     0.313 HD
HETATM   19  H15 UNL     1      30.648   5.306  50.790  1.00  0.00     0.313 HD
ENDBRANCH  16  17
ENDBRANCH  15  16
ENDBRANCH  14  15
ENDBRANCH   9  14
ENDBRANCH   7   9
ENDBRANCH   1   7
BRANCH   4  20
HETATM   20  O2  UNL     1      25.835   3.192  50.307  1.00  0.00    -0.347 OA
BRANCH  20  21
HETATM   21  C12 UNL     1      26.684   2.550  51.250  1.00  0.00     0.214 C 
BRANCH  21  22
HETATM   22  C13 UNL     1      25.989   1.438  51.971  1.00  0.00    -0.034 A 
HETATM   23  C14 UNL     1      24.683   1.718  52.390  1.00  0.00     0.009 A 
HETATM   24  C15 UNL     1      23.953   0.767  53.065  1.00  0.00     0.001 A 
HETATM   25  C16 UNL     1      24.543  -0.459  53.315  1.00  0.00     0.000 A 
HETATM   26  C17 UNL     1      25.838  -0.720  52.895  1.00  0.00     0.001 A 
HETATM   27  C18 UNL     1      26.598   0.203  52.218  1.00  0.00     0.009 A 
ENDBRANCH  21  22
ENDBRANCH  20  21
ENDBRANCH   4  20
TORSDOF 11
ENDMDL
