MODEL 1
REMARK VINA RESULT:      -8.8      0.000      0.000
REMARK  7 active torsions:
REMARK  status: ('A' for Active; 'I' for Inactive)
REMARK    1  A    between atoms: C2_2  and  O1_3 
REMARK    2  A    between atoms: O1_3  and  C3_4 
REMARK    3  A    between atoms: C7_8  and  C8_9 
REMARK    4  A    between atoms: C19_20  and  C20_21 
REMARK    5  A    between atoms: C20_21  and  C21_22 
REMARK    6  A    between atoms: C21_22  and  C22_23 
REMARK    7  A    between atoms: C22_23  and  O3_25 
ROOT
HETATM    1  C8  UNL     1      26.172   5.512  48.673  1.00  0.00     0.066 A 
HETATM    2  C9  UNL     1      27.009   4.398  49.124  1.00  0.00    -0.012 A 
HETATM    3  C10 UNL     1      26.745   3.357  49.906  1.00  0.00     0.011 A 
HETATM    4  C11 UNL     1      25.358   3.341  50.393  1.00  0.00    -0.005 A 
HETATM    5  C12 UNL     1      25.004   2.333  51.185  1.00  0.00     0.053 A 
HETATM    6  C13 UNL     1      23.648   2.276  51.688  1.00  0.00     0.103 A 
HETATM    7  C14 UNL     1      23.169   1.331  52.481  1.00  0.00    -0.032 C 
HETATM    8  C15 UNL     1      24.131   0.240  52.877  1.00  0.00     0.065 C 
HETATM    9  C16 UNL     1      23.206  -0.757  53.470  1.00  0.00    -0.019 C 
HETATM   10  C17 UNL     1      21.969  -0.285  53.575  1.00  0.00    -0.079 C 
HETATM   11  C18 UNL     1      20.951  -1.219  54.168  1.00  0.00     0.044 C 
HETATM   12  C19 UNL     1      21.839   1.078  53.088  1.00  0.00     0.046 C 
HETATM   13  O4  UNL     1      22.709   3.262  51.356  1.00  0.00    -0.237 OA
HETATM   14  N1  UNL     1      23.036   4.322  50.540  1.00  0.00    -0.260 N 
HETATM   15  C24 UNL     1      24.372   4.358  50.057  1.00  0.00     0.062 A 
HETATM   16  C25 UNL     1      24.797   5.325  49.268  1.00  0.00     0.019 A 
HETATM   17  H27 UNL     1      22.425   5.108  50.228  1.00  0.00     0.195 HD
ENDROOT
BRANCH  12  18
HETATM   18  C20 UNL     1      20.701   1.436  52.226  1.00  0.00     0.023 C 
BRANCH  18  19
HETATM   19  C21 UNL     1      20.388   0.557  51.074  1.00  0.00     0.112 C 
BRANCH  19  20
HETATM   20  C22 UNL     1      20.332   1.268  49.777  1.00  0.00     0.258 C 
HETATM   21  O2  UNL     1      20.224   1.893  48.711  1.00  0.00    -0.265 OA
BRANCH  20  22
HETATM   22  O3  UNL     1      21.452   0.936  49.067  1.00  0.00    -0.326 OA
HETATM   23  C23 UNL     1      22.123   1.744  48.162  1.00  0.00     0.213 C 
ENDBRANCH  20  22
ENDBRANCH  19  20
ENDBRANCH  18  19
ENDBRANCH  12  18
BRANCH   1  24
HETATM   24  C7  UNL     1      26.711   6.837  49.065  1.00  0.00    -0.044 A 
HETATM   25  C6  UNL     1      26.016   7.612  49.967  1.00  0.00     0.008 A 
HETATM   26  C5  UNL     1      26.553   8.816  50.296  1.00  0.00     0.003 A 
HETATM   27  C4  UNL     1      27.734   9.301  49.791  1.00  0.00     0.037 A 
HETATM   28  C3  UNL     1      28.463   8.536  48.872  1.00  0.00     0.069 A 
HETATM   29  C26 UNL     1      27.906   7.299  48.538  1.00  0.00     0.044 A 
BRANCH  28  30
HETATM   30  O1  UNL     1      29.644   8.804  48.243  1.00  0.00    -0.352 OA
BRANCH  30  31
HETATM   31  C2  UNL     1      30.822   9.112  48.933  1.00  0.00     0.171 C 
HETATM   32  C1  UNL     1      31.550   7.903  49.451  1.00  0.00     0.034 C 
ENDBRANCH  30  31
ENDBRANCH  28  30
ENDBRANCH   1  24
TORSDOF 7
ENDMDL
MODEL 2
REMARK VINA RESULT:      -8.3      1.480      1.903
REMARK  7 active torsions:
REMARK  status: ('A' for Active; 'I' for Inactive)
REMARK    1  A    between atoms: C2_2  and  O1_3 
REMARK    2  A    between atoms: O1_3  and  C3_4 
REMARK    3  A    between atoms: C7_8  and  C8_9 
REMARK    4  A    between atoms: C19_20  and  C20_21 
REMARK    5  A    between atoms: C20_21  and  C21_22 
REMARK    6  A    between atoms: C21_22  and  C22_23 
REMARK    7  A    between atoms: C22_23  and  O3_25 
ROOT
HETATM    1  C8  UNL     1      26.085   5.577  48.708  1.00  0.00     0.066 A 
HETATM    2  C9  UNL     1      26.926   4.425  49.038  1.00  0.00    -0.012 A 
HETATM    3  C10 UNL     1      26.708   3.367  49.811  1.00  0.00     0.011 A 
HETATM    4  C11 UNL     1      25.377   3.376  50.435  1.00  0.00    -0.005 A 
HETATM    5  C12 UNL     1      25.071   2.353  51.228  1.00  0.00     0.053 A 
HETATM    6  C13 UNL     1      23.771   2.319  51.864  1.00  0.00     0.103 A 
HETATM    7  C14 UNL     1      23.343   1.362  52.673  1.00  0.00    -0.032 C 
HETATM    8  C15 UNL     1      24.304   0.231  52.937  1.00  0.00     0.065 C 
HETATM    9  C16 UNL     1      23.411  -0.758  53.589  1.00  0.00    -0.019 C 
HETATM   10  C17 UNL     1      22.207  -0.254  53.833  1.00  0.00    -0.079 C 
HETATM   11  C18 UNL     1      21.224  -1.177  54.497  1.00  0.00     0.044 C 
HETATM   12  C19 UNL     1      22.073   1.128  53.403  1.00  0.00     0.046 C 
HETATM   13  O4  UNL     1      22.836   3.342  51.658  1.00  0.00    -0.237 OA
HETATM   14  N1  UNL     1      23.114   4.418  50.846  1.00  0.00    -0.260 N 
HETATM   15  C24 UNL     1      24.395   4.431  50.231  1.00  0.00     0.062 A 
HETATM   16  C25 UNL     1      24.770   5.412  49.433  1.00  0.00     0.019 A 
HETATM   17  H27 UNL     1      22.501   5.232  50.621  1.00  0.00     0.195 HD
ENDROOT
BRANCH  12  18
HETATM   18  C20 UNL     1      20.867   1.548  52.672  1.00  0.00     0.023 C 
BRANCH  18  19
HETATM   19  C21 UNL     1      20.383   0.690  51.563  1.00  0.00     0.112 C 
BRANCH  19  20
HETATM   20  C22 UNL     1      18.915   0.506  51.546  1.00  0.00     0.258 C 
HETATM   21  O2  UNL     1      17.679   0.416  51.503  1.00  0.00    -0.265 OA
BRANCH  20  22
HETATM   22  O3  UNL     1      18.641  -0.727  52.069  1.00  0.00    -0.326 OA
HETATM   23  C23 UNL     1      17.669  -1.024  53.012  1.00  0.00     0.213 C 
ENDBRANCH  20  22
ENDBRANCH  19  20
ENDBRANCH  18  19
ENDBRANCH  12  18
BRANCH   1  24
HETATM   24  C7  UNL     1      26.703   6.872  49.084  1.00  0.00    -0.044 A 
HETATM   25  C6  UNL     1      26.088   7.671  50.023  1.00  0.00     0.008 A 
HETATM   26  C5  UNL     1      26.696   8.845  50.335  1.00  0.00     0.003 A 
HETATM   27  C4  UNL     1      27.874   9.280  49.777  1.00  0.00     0.037 A 
HETATM   28  C3  UNL     1      28.521   8.490  48.819  1.00  0.00     0.069 A 
HETATM   29  C26 UNL     1      27.891   7.283  48.503  1.00  0.00     0.044 A 
BRANCH  28  30
HETATM   30  O1  UNL     1      29.683   8.708  48.136  1.00  0.00    -0.352 OA
BRANCH  30  31
HETATM   31  C2  UNL     1      29.743   8.789  46.741  1.00  0.00     0.171 C 
HETATM   32  C1  UNL     1      30.731   7.838  46.125  1.00  0.00     0.034 C 
ENDBRANCH  30  31
ENDBRANCH  28  30
ENDBRANCH   1  24
TORSDOF 7
ENDMDL
MODEL 3
REMARK VINA RESULT:      -8.3      2.333      8.881
REMARK  7 active torsions:
REMARK  status: ('A' for Active; 'I' for Inactive)
REMARK    1  A    between atoms: C2_2  and  O1_3 
REMARK    2  A    between atoms: O1_3  and  C3_4 
REMARK    3  A    between atoms: C7_8  and  C8_9 
REMARK    4  A    between atoms: C19_20  and  C20_21 
REMARK    5  A    between atoms: C20_21  and  C21_22 
REMARK    6  A    between atoms: C21_22  and  C22_23 
REMARK    7  A    between atoms: C22_23  and  O3_25 
ROOT
HETATM    1  C8  UNL     1      22.338   0.933  52.033  1.00  0.00     0.066 A 
HETATM    2  C9  UNL     1      21.545   2.117  52.371  1.00  0.00    -0.012 A 
HETATM    3  C10 UNL     1      21.768   3.412  52.179  1.00  0.00     0.011 A 
HETATM    4  C11 UNL     1      23.046   3.681  51.504  1.00  0.00    -0.005 A 
HETATM    5  C12 UNL     1      23.354   4.954  51.271  1.00  0.00     0.053 A 
HETATM    6  C13 UNL     1      24.603   5.266  50.609  1.00  0.00     0.103 A 
HETATM    7  C14 UNL     1      25.026   6.486  50.318  1.00  0.00    -0.032 C 
HETATM    8  C15 UNL     1      24.120   7.622  50.721  1.00  0.00     0.065 C 
HETATM    9  C16 UNL     1      24.736   8.754  49.987  1.00  0.00    -0.019 C 
HETATM   10  C17 UNL     1      25.881   8.408  49.411  1.00  0.00    -0.079 C 
HETATM   11  C18 UNL     1      26.590   9.487  48.641  1.00  0.00     0.044 C 
HETATM   12  C19 UNL     1      26.237   7.019  49.646  1.00  0.00     0.046 C 
HETATM   13  O4  UNL     1      25.486   4.253  50.212  1.00  0.00    -0.237 OA
HETATM   14  N1  UNL     1      25.206   2.925  50.437  1.00  0.00    -0.260 N 
HETATM   15  C24 UNL     1      23.975   2.640  51.087  1.00  0.00     0.062 A 
HETATM   16  C25 UNL     1      23.602   1.404  51.353  1.00  0.00     0.019 A 
HETATM   17  H27 UNL     1      25.784   2.092  50.188  1.00  0.00     0.195 HD
ENDROOT
BRANCH  12  18
HETATM   18  C20 UNL     1      26.723   6.193  48.529  1.00  0.00     0.023 C 
BRANCH  18  19
HETATM   19  C21 UNL     1      28.184   5.975  48.400  1.00  0.00     0.112 C 
BRANCH  19  20
HETATM   20  C22 UNL     1      28.856   6.940  47.501  1.00  0.00     0.258 C 
HETATM   21  O2  UNL     1      29.360   7.788  46.750  1.00  0.00    -0.265 OA
BRANCH  20  22
HETATM   22  O3  UNL     1      30.110   6.464  47.237  1.00  0.00    -0.326 OA
HETATM   23  C23 UNL     1      30.790   5.491  47.954  1.00  0.00     0.213 C 
ENDBRANCH  20  22
ENDBRANCH  19  20
ENDBRANCH  18  19
ENDBRANCH  12  18
BRANCH   1  24
HETATM   24  C7  UNL     1      22.685   0.111  53.218  1.00  0.00    -0.044 A 
HETATM   25  C6  UNL     1      21.683  -0.520  53.923  1.00  0.00     0.008 A 
HETATM   26  C5  UNL     1      22.054  -1.263  54.999  1.00  0.00     0.003 A 
HETATM   27  C4  UNL     1      23.351  -1.421  55.422  1.00  0.00     0.037 A 
HETATM   28  C3  UNL     1      24.390  -0.790  54.726  1.00  0.00     0.069 A 
HETATM   29  C26 UNL     1      24.003  -0.028  53.620  1.00  0.00     0.044 A 
BRANCH  28  30
HETATM   30  O1  UNL     1      25.736  -0.801  54.952  1.00  0.00    -0.352 OA
BRANCH  30  31
HETATM   31  C2  UNL     1      26.551   0.318  54.749  1.00  0.00     0.171 C 
HETATM   32  C1  UNL     1      27.947  -0.025  54.311  1.00  0.00     0.034 C 
ENDBRANCH  30  31
ENDBRANCH  28  30
ENDBRANCH   1  24
TORSDOF 7
ENDMDL
MODEL 4
REMARK VINA RESULT:      -8.1      2.479      3.957
REMARK  7 active torsions:
REMARK  status: ('A' for Active; 'I' for Inactive)
REMARK    1  A    between atoms: C2_2  and  O1_3 
REMARK    2  A    between atoms: O1_3  and  C3_4 
REMARK    3  A    between atoms: C7_8  and  C8_9 
REMARK    4  A    between atoms: C19_20  and  C20_21 
REMARK    5  A    between atoms: C20_21  and  C21_22 
REMARK    6  A    between atoms: C21_22  and  C22_23 
REMARK    7  A    between atoms: C22_23  and  O3_25 
ROOT
HETATM    1  C8  UNL     1      25.479   7.676  48.333  1.00  0.00     0.066 A 
HETATM    2  C9  UNL     1      24.219   7.197  47.761  1.00  0.00    -0.012 A 
HETATM    3  C10 UNL     1      23.492   6.114  48.012  1.00  0.00     0.011 A 
HETATM    4  C11 UNL     1      24.077   5.258  49.055  1.00  0.00    -0.005 A 
HETATM    5  C12 UNL     1      23.415   4.149  49.371  1.00  0.00     0.053 A 
HETATM    6  C13 UNL     1      23.954   3.275  50.393  1.00  0.00     0.103 A 
HETATM    7  C14 UNL     1      23.397   2.146  50.801  1.00  0.00    -0.032 C 
HETATM    8  C15 UNL     1      22.101   1.760  50.133  1.00  0.00     0.065 C 
HETATM    9  C16 UNL     1      21.634   0.669  51.022  1.00  0.00    -0.019 C 
HETATM   10  C17 UNL     1      22.547   0.343  51.930  1.00  0.00    -0.079 C 
HETATM   11  C18 UNL     1      22.171  -0.758  52.883  1.00  0.00     0.044 C 
HETATM   12  C19 UNL     1      23.763   1.131  51.819  1.00  0.00     0.046 C 
HETATM   13  O4  UNL     1      25.154   3.581  51.049  1.00  0.00    -0.237 OA
HETATM   14  N1  UNL     1      25.870   4.718  50.749  1.00  0.00    -0.260 N 
HETATM   15  C24 UNL     1      25.323   5.561  49.744  1.00  0.00     0.062 A 
HETATM   16  C25 UNL     1      25.921   6.677  49.376  1.00  0.00     0.019 A 
HETATM   17  H27 UNL     1      26.768   5.044  51.167  1.00  0.00     0.195 HD
ENDROOT
BRANCH  12  18
HETATM   18  C20 UNL     1      24.382   1.686  53.034  1.00  0.00     0.023 C 
BRANCH  18  19
HETATM   19  C21 UNL     1      25.698   1.151  53.460  1.00  0.00     0.112 C 
BRANCH  19  20
HETATM   20  C22 UNL     1      25.608  -0.102  54.242  1.00  0.00     0.258 C 
HETATM   21  O2  UNL     1      25.475  -1.126  54.928  1.00  0.00    -0.265 OA
BRANCH  20  22
HETATM   22  O3  UNL     1      26.658  -0.899  53.879  1.00  0.00    -0.326 OA
HETATM   23  C23 UNL     1      26.805  -1.568  52.674  1.00  0.00     0.213 C 
ENDBRANCH  20  22
ENDBRANCH  19  20
ENDBRANCH  18  19
ENDBRANCH  12  18
BRANCH   1  24
HETATM   24  C7  UNL     1      26.547   7.844  47.318  1.00  0.00    -0.044 A 
HETATM   25  C6  UNL     1      26.243   8.411  46.099  1.00  0.00     0.008 A 
HETATM   26  C5  UNL     1      27.257   8.546  45.206  1.00  0.00     0.003 A 
HETATM   27  C4  UNL     1      28.554   8.156  45.440  1.00  0.00     0.037 A 
HETATM   28  C3  UNL     1      28.893   7.576  46.669  1.00  0.00     0.069 A 
HETATM   29  C26 UNL     1      27.845   7.441  47.584  1.00  0.00     0.044 A 
BRANCH  28  30
HETATM   30  O1  UNL     1      30.095   7.118  47.125  1.00  0.00    -0.352 OA
BRANCH  30  31
HETATM   31  C2  UNL     1      31.043   7.946  47.736  1.00  0.00     0.171 C 
HETATM   32  C1  UNL     1      31.438   7.495  49.114  1.00  0.00     0.034 C 
ENDBRANCH  30  31
ENDBRANCH  28  30
ENDBRANCH   1  24
TORSDOF 7
ENDMDL
MODEL 5
REMARK VINA RESULT:      -8.1      3.525      9.632
REMARK  7 active torsions:
REMARK  status: ('A' for Active; 'I' for Inactive)
REMARK    1  A    between atoms: C2_2  and  O1_3 
REMARK    2  A    between atoms: O1_3  and  C3_4 
REMARK    3  A    between atoms: C7_8  and  C8_9 
REMARK    4  A    between atoms: C19_20  and  C20_21 
REMARK    5  A    between atoms: C20_21  and  C21_22 
REMARK    6  A    between atoms: C21_22  and  C22_23 
REMARK    7  A    between atoms: C22_23  and  O3_25 
ROOT
HETATM    1  C8  UNL     1      25.385   3.086  49.962  1.00  0.00     0.066 A 
HETATM    2  C9  UNL     1      24.548   4.283  50.073  1.00  0.00    -0.012 A 
HETATM    3  C10 UNL     1      24.778   5.552  49.758  1.00  0.00     0.011 A 
HETATM    4  C11 UNL     1      26.120   5.770  49.196  1.00  0.00    -0.005 A 
HETATM    5  C12 UNL     1      26.438   7.014  48.851  1.00  0.00     0.053 A 
HETATM    6  C13 UNL     1      27.749   7.277  48.293  1.00  0.00     0.103 A 
HETATM    7  C14 UNL     1      28.190   8.465  47.910  1.00  0.00    -0.032 C 
HETATM    8  C15 UNL     1      27.234   9.618  48.078  1.00  0.00     0.065 C 
HETATM    9  C16 UNL     1      27.915  10.672  47.287  1.00  0.00    -0.019 C 
HETATM   10  C17 UNL     1      29.119  10.288  46.881  1.00  0.00    -0.079 C 
HETATM   11  C18 UNL     1      29.897  11.287  46.071  1.00  0.00     0.044 C 
HETATM   12  C19 UNL     1      29.461   8.943  47.314  1.00  0.00     0.046 C 
HETATM   13  O4  UNL     1      28.680   6.245  48.114  1.00  0.00    -0.237 OA
HETATM   14  N1  UNL     1      28.390   4.945  48.460  1.00  0.00    -0.260 N 
HETATM   15  C24 UNL     1      27.098   4.710  49.005  1.00  0.00     0.062 A 
HETATM   16  C25 UNL     1      26.710   3.504  49.371  1.00  0.00     0.019 A 
HETATM   17  H27 UNL     1      28.999   4.102  48.373  1.00  0.00     0.195 HD
ENDROOT
BRANCH  12  18
HETATM   18  C20 UNL     1      30.073   8.006  46.358  1.00  0.00     0.023 C 
BRANCH  18  19
HETATM   19  C21 UNL     1      31.495   7.631  46.554  1.00  0.00     0.112 C 
BRANCH  19  20
HETATM   20  C22 UNL     1      31.979   7.825  47.940  1.00  0.00     0.258 C 
HETATM   21  O2  UNL     1      32.373   8.057  49.092  1.00  0.00    -0.265 OA
BRANCH  20  22
HETATM   22  O3  UNL     1      32.303   6.598  48.446  1.00  0.00    -0.326 OA
HETATM   23  C23 UNL     1      31.863   6.059  49.646  1.00  0.00     0.213 C 
ENDBRANCH  20  22
ENDBRANCH  19  20
ENDBRANCH  18  19
ENDBRANCH  12  18
BRANCH   1  24
HETATM   24  C7  UNL     1      25.609   2.414  51.265  1.00  0.00    -0.044 A 
HETATM   25  C6  UNL     1      24.533   1.914  51.966  1.00  0.00     0.008 A 
HETATM   26  C5  UNL     1      24.791   1.305  53.152  1.00  0.00     0.003 A 
HETATM   27  C4  UNL     1      26.047   1.158  53.690  1.00  0.00     0.037 A 
HETATM   28  C3  UNL     1      27.160   1.656  53.002  1.00  0.00     0.069 A 
HETATM   29  C26 UNL     1      26.887   2.281  51.781  1.00  0.00     0.044 A 
BRANCH  28  30
HETATM   30  O1  UNL     1      28.484   1.629  53.330  1.00  0.00    -0.352 OA
BRANCH  30  31
HETATM   31  C2  UNL     1      29.008   0.781  54.313  1.00  0.00     0.171 C 
HETATM   32  C1  UNL     1      29.529  -0.520  53.770  1.00  0.00     0.034 C 
ENDBRANCH  30  31
ENDBRANCH  28  30
ENDBRANCH   1  24
TORSDOF 7
ENDMDL
MODEL 6
REMARK VINA RESULT:      -7.7      2.741      4.317
REMARK  7 active torsions:
REMARK  status: ('A' for Active; 'I' for Inactive)
REMARK    1  A    between atoms: C2_2  and  O1_3 
REMARK    2  A    between atoms: O1_3  and  C3_4 
REMARK    3  A    between atoms: C7_8  and  C8_9 
REMARK    4  A    between atoms: C19_20  and  C20_21 
REMARK    5  A    between atoms: C20_21  and  C21_22 
REMARK    6  A    between atoms: C21_22  and  C22_23 
REMARK    7  A    between atoms: C22_23  and  O3_25 
ROOT
HETATM    1  C8  UNL     1      23.630   7.326  50.572  1.00  0.00     0.066 A 
HETATM    2  C9  UNL     1      22.196   7.029  50.578  1.00  0.00    -0.012 A 
HETATM    3  C10 UNL     1      21.523   5.939  50.928  1.00  0.00     0.011 A 
HETATM    4  C11 UNL     1      22.394   4.849  51.390  1.00  0.00    -0.005 A 
HETATM    5  C12 UNL     1      21.805   3.716  51.762  1.00  0.00     0.053 A 
HETATM    6  C13 UNL     1      22.624   2.615  52.225  1.00  0.00     0.103 A 
HETATM    7  C14 UNL     1      22.165   1.439  52.622  1.00  0.00    -0.032 C 
HETATM    8  C15 UNL     1      20.669   1.256  52.578  1.00  0.00     0.065 C 
HETATM    9  C16 UNL     1      20.510   0.003  53.357  1.00  0.00    -0.019 C 
HETATM   10  C17 UNL     1      21.681  -0.550  53.650  1.00  0.00    -0.079 C 
HETATM   11  C18 UNL     1      21.632  -1.830  54.438  1.00  0.00     0.044 C 
HETATM   12  C19 UNL     1      22.811   0.206  53.136  1.00  0.00     0.046 C 
HETATM   13  O4  UNL     1      24.019   2.725  52.286  1.00  0.00    -0.237 OA
HETATM   14  N1  UNL     1      24.668   3.880  51.910  1.00  0.00    -0.260 N 
HETATM   15  C24 UNL     1      23.845   4.947  51.459  1.00  0.00     0.062 A 
HETATM   16  C25 UNL     1      24.357   6.100  51.074  1.00  0.00     0.019 A 
HETATM   17  H27 UNL     1      25.693   4.075  51.913  1.00  0.00     0.195 HD
ENDROOT
BRANCH  12  18
HETATM   18  C20 UNL     1      23.977   0.448  54.000  1.00  0.00     0.023 C 
BRANCH  18  19
HETATM   19  C21 UNL     1      25.174  -0.410  53.822  1.00  0.00     0.112 C 
BRANCH  19  20
HETATM   20  C22 UNL     1      26.387   0.110  54.491  1.00  0.00     0.258 C 
HETATM   21  O2  UNL     1      27.366   0.601  55.073  1.00  0.00    -0.265 OA
BRANCH  20  22
HETATM   22  O3  UNL     1      27.398  -0.786  54.281  1.00  0.00    -0.326 OA
HETATM   23  C23 UNL     1      28.178  -0.895  53.140  1.00  0.00     0.213 C 
ENDBRANCH  20  22
ENDBRANCH  19  20
ENDBRANCH  18  19
ENDBRANCH  12  18
BRANCH   1  24
HETATM   24  C7  UNL     1      24.140   7.693  49.228  1.00  0.00    -0.044 A 
HETATM   25  C6  UNL     1      23.265   7.763  48.166  1.00  0.00     0.008 A 
HETATM   26  C5  UNL     1      23.781   8.105  46.957  1.00  0.00     0.003 A 
HETATM   27  C4  UNL     1      25.107   8.384  46.731  1.00  0.00     0.037 A 
HETATM   28  C3  UNL     1      26.021   8.320  47.791  1.00  0.00     0.069 A 
HETATM   29  C26 UNL     1      25.483   7.967  49.033  1.00  0.00     0.044 A 
BRANCH  28  30
HETATM   30  O1  UNL     1      27.365   8.551  47.811  1.00  0.00    -0.352 OA
BRANCH  30  31
HETATM   31  C2  UNL     1      28.286   7.749  47.128  1.00  0.00     0.171 C 
HETATM   32  C1  UNL     1      28.624   6.474  47.849  1.00  0.00     0.034 C 
ENDBRANCH  30  31
ENDBRANCH  28  30
ENDBRANCH   1  24
TORSDOF 7
ENDMDL
MODEL 7
REMARK VINA RESULT:      -7.7      2.041      3.131
REMARK  7 active torsions:
REMARK  status: ('A' for Active; 'I' for Inactive)
REMARK    1  A    between atoms: C2_2  and  O1_3 
REMARK    2  A    between atoms: O1_3  and  C3_4 
REMARK    3  A    between atoms: C7_8  and  C8_9 
REMARK    4  A    between atoms: C19_20  and  C20_21 
REMARK    5  A    between atoms: C20_21  and  C21_22 
REMARK    6  A    between atoms: C21_22  and  C22_23 
REMARK    7  A    between atoms: C22_23  and  O3_25 
ROOT
HETATM    1  C8  UNL     1      26.952   7.082  47.870  1.00  0.00     0.066 A 
HETATM    2  C9  UNL     1      27.952   6.015  47.949  1.00  0.00    -0.012 A 
HETATM    3  C10 UNL     1      27.971   4.872  48.624  1.00  0.00     0.011 A 
HETATM    4  C11 UNL     1      26.758   4.660  49.429  1.00  0.00    -0.005 A 
HETATM    5  C12 UNL     1      26.690   3.538  50.139  1.00  0.00     0.053 A 
HETATM    6  C13 UNL     1      25.514   3.287  50.947  1.00  0.00     0.103 A 
HETATM    7  C14 UNL     1      25.321   2.214  51.698  1.00  0.00    -0.032 C 
HETATM    8  C15 UNL     1      26.426   1.189  51.696  1.00  0.00     0.065 C 
HETATM    9  C16 UNL     1      25.755   0.043  52.357  1.00  0.00    -0.019 C 
HETATM   10  C17 UNL     1      24.556   0.372  52.823  1.00  0.00    -0.079 C 
HETATM   11  C18 UNL     1      23.791  -0.722  53.516  1.00  0.00     0.044 C 
HETATM   12  C19 UNL     1      24.211   1.760  52.572  1.00  0.00     0.046 C 
HETATM   13  O4  UNL     1      24.455   4.203  50.990  1.00  0.00    -0.237 OA
HETATM   14  N1  UNL     1      24.488   5.376  50.270  1.00  0.00    -0.260 N 
HETATM   15  C24 UNL     1      25.650   5.602  49.484  1.00  0.00     0.062 A 
HETATM   16  C25 UNL     1      25.791   6.691  48.753  1.00  0.00     0.019 A 
HETATM   17  H27 UNL     1      23.764   6.127  50.225  1.00  0.00     0.195 HD
ENDROOT
BRANCH  12  18
HETATM   18  C20 UNL     1      22.869   2.096  52.070  1.00  0.00     0.023 C 
BRANCH  18  19
HETATM   19  C21 UNL     1      22.336   1.329  50.918  1.00  0.00     0.112 C 
BRANCH  19  20
HETATM   20  C22 UNL     1      21.034   0.678  51.183  1.00  0.00     0.258 C 
HETATM   21  O2  UNL     1      19.978   0.073  51.422  1.00  0.00    -0.265 OA
BRANCH  20  22
HETATM   22  O3  UNL     1      20.051   1.600  50.960  1.00  0.00    -0.326 OA
HETATM   23  C23 UNL     1      18.829   1.676  51.612  1.00  0.00     0.213 C 
ENDBRANCH  20  22
ENDBRANCH  19  20
ENDBRANCH  18  19
ENDBRANCH  12  18
BRANCH   1  24
HETATM   24  C7  UNL     1      27.479   8.402  48.295  1.00  0.00    -0.044 A 
HETATM   25  C6  UNL     1      28.762   8.493  48.791  1.00  0.00     0.008 A 
HETATM   26  C5  UNL     1      29.198   9.725  49.163  1.00  0.00     0.003 A 
HETATM   27  C4  UNL     1      28.447  10.872  49.075  1.00  0.00     0.037 A 
HETATM   28  C3  UNL     1      27.141  10.811  48.576  1.00  0.00     0.069 A 
HETATM   29  C26 UNL     1      26.697   9.541  48.194  1.00  0.00     0.044 A 
BRANCH  28  30
HETATM   30  O1  UNL     1      26.218  11.800  48.396  1.00  0.00    -0.352 OA
BRANCH  30  31
HETATM   31  C2  UNL     1      26.392  12.847  47.484  1.00  0.00     0.171 C 
HETATM   32  C1  UNL     1      26.383  14.208  48.121  1.00  0.00     0.034 C 
ENDBRANCH  30  31
ENDBRANCH  28  30
ENDBRANCH   1  24
TORSDOF 7
ENDMDL
MODEL 8
REMARK VINA RESULT:      -7.7      3.713      5.385
REMARK  7 active torsions:
REMARK  status: ('A' for Active; 'I' for Inactive)
REMARK    1  A    between atoms: C2_2  and  O1_3 
REMARK    2  A    between atoms: O1_3  and  C3_4 
REMARK    3  A    between atoms: C7_8  and  C8_9 
REMARK    4  A    between atoms: C19_20  and  C20_21 
REMARK    5  A    between atoms: C20_21  and  C21_22 
REMARK    6  A    between atoms: C21_22  and  C22_23 
REMARK    7  A    between atoms: C22_23  and  O3_25 
ROOT
HETATM    1  C8  UNL     1      24.775   7.952  47.653  1.00  0.00     0.066 A 
HETATM    2  C9  UNL     1      23.562   7.241  47.247  1.00  0.00    -0.012 A 
HETATM    3  C10 UNL     1      23.026   6.100  47.665  1.00  0.00     0.011 A 
HETATM    4  C11 UNL     1      23.809   5.453  48.728  1.00  0.00    -0.005 A 
HETATM    5  C12 UNL     1      23.346   4.303  49.208  1.00  0.00     0.053 A 
HETATM    6  C13 UNL     1      24.085   3.630  50.257  1.00  0.00     0.103 A 
HETATM    7  C14 UNL     1      23.735   2.484  50.820  1.00  0.00    -0.032 C 
HETATM    8  C15 UNL     1      22.465   1.849  50.311  1.00  0.00     0.065 C 
HETATM    9  C16 UNL     1      22.235   0.806  51.340  1.00  0.00    -0.019 C 
HETATM   10  C17 UNL     1      23.252   0.712  52.189  1.00  0.00    -0.079 C 
HETATM   11  C18 UNL     1      23.118  -0.321  53.273  1.00  0.00     0.044 C 
HETATM   12  C19 UNL     1      24.324   1.647  51.894  1.00  0.00     0.046 C 
HETATM   13  O4  UNL     1      25.272   4.170  50.769  1.00  0.00    -0.237 OA
HETATM   14  N1  UNL     1      25.785   5.358  50.297  1.00  0.00    -0.260 N 
HETATM   15  C24 UNL     1      25.044   6.001  49.270  1.00  0.00     0.062 A 
HETATM   16  C25 UNL     1      25.439   7.144  48.743  1.00  0.00     0.019 A 
HETATM   17  H27 UNL     1      26.653   5.851  50.600  1.00  0.00     0.195 HD
ENDROOT
BRANCH  12  18
HETATM   18  C20 UNL     1      24.943   2.412  52.988  1.00  0.00     0.023 C 
BRANCH  18  19
HETATM   19  C21 UNL     1      26.061   1.789  53.738  1.00  0.00     0.112 C 
BRANCH  19  20
HETATM   20  C22 UNL     1      27.401   2.206  53.267  1.00  0.00     0.258 C 
HETATM   21  O2  UNL     1      28.494   2.573  52.811  1.00  0.00    -0.265 OA
BRANCH  20  22
HETATM   22  O3  UNL     1      28.288   1.987  54.283  1.00  0.00    -0.326 OA
HETATM   23  C23 UNL     1      29.082   0.863  54.456  1.00  0.00     0.213 C 
ENDBRANCH  20  22
ENDBRANCH  19  20
ENDBRANCH  18  19
ENDBRANCH  12  18
BRANCH   1  24
HETATM   24  C7  UNL     1      25.727   8.158  46.535  1.00  0.00    -0.044 A 
HETATM   25  C6  UNL     1      27.079   8.010  46.757  1.00  0.00     0.008 A 
HETATM   26  C5  UNL     1      27.908   8.207  45.700  1.00  0.00     0.003 A 
HETATM   27  C4  UNL     1      27.487   8.542  44.436  1.00  0.00     0.037 A 
HETATM   28  C3  UNL     1      26.119   8.700  44.179  1.00  0.00     0.069 A 
HETATM   29  C26 UNL     1      25.271   8.495  45.271  1.00  0.00     0.044 A 
BRANCH  28  30
HETATM   30  O1  UNL     1      25.471   9.024  43.022  1.00  0.00    -0.352 OA
BRANCH  30  31
HETATM   31  C2  UNL     1      24.225   8.491  42.673  1.00  0.00     0.171 C 
HETATM   32  C1  UNL     1      23.782   8.858  41.284  1.00  0.00     0.034 C 
ENDBRANCH  30  31
ENDBRANCH  28  30
ENDBRANCH   1  24
TORSDOF 7
ENDMDL
MODEL 9
REMARK VINA RESULT:      -7.7      4.648     11.091
REMARK  7 active torsions:
REMARK  status: ('A' for Active; 'I' for Inactive)
REMARK    1  A    between atoms: C2_2  and  O1_3 
REMARK    2  A    between atoms: O1_3  and  C3_4 
REMARK    3  A    between atoms: C7_8  and  C8_9 
REMARK    4  A    between atoms: C19_20  and  C20_21 
REMARK    5  A    between atoms: C20_21  and  C21_22 
REMARK    6  A    between atoms: C21_22  and  C22_23 
REMARK    7  A    between atoms: C22_23  and  O3_25 
ROOT
HETATM    1  C8  UNL     1      16.425  -0.287  51.334  1.00  0.00     0.066 A 
HETATM    2  C9  UNL     1      16.568  -0.931  52.642  1.00  0.00    -0.012 A 
HETATM    3  C10 UNL     1      17.636  -1.180  53.391  1.00  0.00     0.011 A 
HETATM    4  C11 UNL     1      18.889  -0.714  52.777  1.00  0.00    -0.005 A 
HETATM    5  C12 UNL     1      20.012  -0.921  53.458  1.00  0.00     0.053 A 
HETATM    6  C13 UNL     1      21.270  -0.479  52.892  1.00  0.00     0.103 A 
HETATM    7  C14 UNL     1      22.455  -0.623  53.465  1.00  0.00    -0.032 C 
HETATM    8  C15 UNL     1      22.469  -1.305  54.809  1.00  0.00     0.065 C 
HETATM    9  C16 UNL     1      23.852  -1.015  55.263  1.00  0.00    -0.019 C 
HETATM   10  C17 UNL     1      24.575  -0.437  54.311  1.00  0.00    -0.079 C 
HETATM   11  C18 UNL     1      25.997  -0.103  54.670  1.00  0.00     0.044 C 
HETATM   12  C19 UNL     1      23.835  -0.240  53.077  1.00  0.00     0.046 C 
HETATM   13  O4  UNL     1      21.320   0.159  51.646  1.00  0.00    -0.237 OA
HETATM   14  N1  UNL     1      20.180   0.391  50.910  1.00  0.00    -0.260 N 
HETATM   15  C24 UNL     1      18.957  -0.050  51.483  1.00  0.00     0.062 A 
HETATM   16  C25 UNL     1      17.803   0.120  50.868  1.00  0.00     0.019 A 
HETATM   17  H27 UNL     1      20.097   0.853  49.978  1.00  0.00     0.195 HD
ENDROOT
BRANCH  12  18
HETATM   18  C20 UNL     1      23.930   1.047  52.369  1.00  0.00     0.023 C 
BRANCH  18  19
HETATM   19  C21 UNL     1      23.646   2.289  53.129  1.00  0.00     0.112 C 
BRANCH  19  20
HETATM   20  C22 UNL     1      23.856   3.528  52.347  1.00  0.00     0.258 C 
HETATM   21  O2  UNL     1      24.098   4.545  51.680  1.00  0.00    -0.265 OA
BRANCH  20  22
HETATM   22  O3  UNL     1      22.691   4.242  52.372  1.00  0.00    -0.326 OA
HETATM   23  C23 UNL     1      21.416   3.745  52.144  1.00  0.00     0.213 C 
ENDBRANCH  20  22
ENDBRANCH  19  20
ENDBRANCH  18  19
ENDBRANCH  12  18
BRANCH   1  24
HETATM   24  C7  UNL     1      15.795  -1.168  50.321  1.00  0.00    -0.044 A 
HETATM   25  C6  UNL     1      15.932  -0.870  48.983  1.00  0.00     0.008 A 
HETATM   26  C5  UNL     1      15.339  -1.709  48.095  1.00  0.00     0.003 A 
HETATM   27  C4  UNL     1      14.619  -2.825  48.446  1.00  0.00     0.037 A 
HETATM   28  C3  UNL     1      14.461  -3.154  49.798  1.00  0.00     0.069 A 
HETATM   29  C26 UNL     1      15.074  -2.286  50.707  1.00  0.00     0.044 A 
BRANCH  28  30
HETATM   30  O1  UNL     1      13.801  -4.196  50.380  1.00  0.00    -0.352 OA
BRANCH  30  31
HETATM   31  C2  UNL     1      14.441  -5.157  51.170  1.00  0.00     0.171 C 
HETATM   32  C1  UNL     1      13.496  -5.984  51.997  1.00  0.00     0.034 C 
ENDBRANCH  30  31
ENDBRANCH  28  30
ENDBRANCH   1  24
TORSDOF 7
ENDMDL
