MODEL 1
REMARK VINA RESULT:      -7.8      0.000      0.000
REMARK  6 active torsions:
REMARK  status: ('A' for Active; 'I' for Inactive)
REMARK    1  A    between atoms: C13_14  and  O1_15 
REMARK    2  A    between atoms: O1_15  and  C14_16 
REMARK    3  A    between atoms: C18_21  and  O3_22 
REMARK    4  A    between atoms: O3_22  and  C19_23 
REMARK    5  A    between atoms: C19_23  and  C20_24 
REMARK    6  A    between atoms: C20_24  and  O4_25 
ROOT
HETATM    1  C1  UNL     1      22.608   2.140  47.734  1.00  0.00     0.012 C 
HETATM    2  C2  UNL     1      22.695   3.050  48.516  1.00  0.00    -0.110 C 
HETATM    3  C3  UNL     1      22.784   4.162  49.444  1.00  0.00     0.033 C 
HETATM    4  C4  UNL     1      21.646   4.292  50.142  1.00  0.00     0.089 C 
HETATM    5  C5  UNL     1      21.135   5.203  51.167  1.00  0.00    -0.022 C 
HETATM    6  C6  UNL     1      20.125   4.370  51.105  1.00  0.00    -0.001 C 
HETATM    7  C7  UNL     1      19.461   3.217  50.611  1.00  0.00     0.297 C 
HETATM    8  N1  UNL     1      20.259   2.156  49.997  1.00  0.00     0.090 NA
HETATM    9  C8  UNL     1      20.909   1.400  51.057  1.00  0.00     0.298 C 
HETATM   10  C9  UNL     1      22.293   1.531  51.365  1.00  0.00     0.019 C 
HETATM   11  C10 UNL     1      23.607   1.766  51.497  1.00  0.00     0.025 A 
HETATM   12  C11 UNL     1      24.645   2.527  50.740  1.00  0.00     0.043 A 
HETATM   13  C12 UNL     1      25.728   2.455  51.468  1.00  0.00     0.069 A 
HETATM   14  C13 UNL     1      25.605   1.705  52.711  1.00  0.00     0.105 A 
HETATM   15  C18 UNL     1      24.364   1.310  52.709  1.00  0.00     0.114 A 
HETATM   16  N2  UNL     1      24.856   3.237  49.486  1.00  0.00    -0.388 N 
HETATM   17  C21 UNL     1      24.278   4.607  49.294  1.00  0.00     0.138 C 
HETATM   18  H7  UNL     1      19.696   1.551  49.404  1.00  0.00     0.316 HD
HETATM   19  H24 UNL     1      25.413   2.790  48.729  1.00  0.00     0.159 HD
ENDROOT
BRANCH  15  20
HETATM   20  O3  UNL     1      24.013   0.543  53.847  1.00  0.00    -0.345 OA
BRANCH  20  21
HETATM   21  C19 UNL     1      23.597  -0.797  53.794  1.00  0.00     0.201 C 
BRANCH  21  22
HETATM   22  C20 UNL     1      22.492  -1.077  54.808  1.00  0.00     0.190 C 
BRANCH  22  23
HETATM   23  O4  UNL     1      23.106  -1.822  55.831  1.00  0.00    -0.399 OA
HETATM   24  H23 UNL     1      23.361  -1.174  56.533  1.00  0.00     0.209 HD
ENDBRANCH  22  23
ENDBRANCH  21  22
ENDBRANCH  20  21
ENDBRANCH  15  20
BRANCH  14  25
HETATM   25  O1  UNL     1      26.642   1.527  53.603  1.00  0.00    -0.341 OA
BRANCH  25  26
HETATM   26  C14 UNL     1      27.842   0.858  53.360  1.00  0.00     0.154 C 
HETATM   27  C15 UNL     1      27.509  -0.567  52.861  1.00  0.00     0.061 C 
HETATM   28  C16 UNL     1      28.768  -1.276  53.332  1.00  0.00     0.170 C 
HETATM   29  O2  UNL     1      29.062  -0.751  54.573  1.00  0.00    -0.389 OA
HETATM   30  C17 UNL     1      28.493   0.490  54.676  1.00  0.00     0.200 C 
ENDBRANCH  25  26
ENDBRANCH  14  25
TORSDOF 6
ENDMDL
MODEL 2
REMARK VINA RESULT:      -7.7      2.126      4.268
REMARK  6 active torsions:
REMARK  status: ('A' for Active; 'I' for Inactive)
REMARK    1  A    between atoms: C13_14  and  O1_15 
REMARK    2  A    between atoms: O1_15  and  C14_16 
REMARK    3  A    between atoms: C18_21  and  O3_22 
REMARK    4  A    between atoms: O3_22  and  C19_23 
REMARK    5  A    between atoms: C19_23  and  C20_24 
REMARK    6  A    between atoms: C20_24  and  O4_25 
ROOT
HETATM    1  C1  UNL     1      20.490   2.992  52.745  1.00  0.00     0.012 C 
HETATM    2  C2  UNL     1      20.878   2.121  52.010  1.00  0.00    -0.110 C 
HETATM    3  C3  UNL     1      21.321   1.067  51.118  1.00  0.00     0.033 C 
HETATM    4  C4  UNL     1      21.281   1.476  49.841  1.00  0.00     0.089 C 
HETATM    5  C5  UNL     1      21.571   0.886  48.534  1.00  0.00    -0.022 C 
HETATM    6  C6  UNL     1      21.284   2.106  48.153  1.00  0.00    -0.001 C 
HETATM    7  C7  UNL     1      20.921   3.457  48.393  1.00  0.00     0.297 C 
HETATM    8  N1  UNL     1      21.154   4.022  49.723  1.00  0.00     0.090 NA
HETATM    9  C8  UNL     1      22.573   4.318  49.851  1.00  0.00     0.298 C 
HETATM   10  C9  UNL     1      23.466   3.516  50.619  1.00  0.00     0.019 C 
HETATM   11  C10 UNL     1      24.148   2.667  51.400  1.00  0.00     0.025 A 
HETATM   12  C11 UNL     1      23.807   1.531  52.308  1.00  0.00     0.043 A 
HETATM   13  C12 UNL     1      24.956   1.034  52.689  1.00  0.00     0.069 A 
HETATM   14  C13 UNL     1      26.137   1.694  52.151  1.00  0.00     0.105 A 
HETATM   15  C18 UNL     1      25.648   2.642  51.405  1.00  0.00     0.114 A 
HETATM   16  N2  UNL     1      22.672   0.863  52.929  1.00  0.00    -0.388 N 
HETATM   17  C21 UNL     1      21.797  -0.042  52.116  1.00  0.00     0.138 C 
HETATM   18  H7  UNL     1      20.588   4.850  49.890  1.00  0.00     0.316 HD
HETATM   19  H24 UNL     1      22.476   1.016  53.941  1.00  0.00     0.159 HD
ENDROOT
BRANCH  15  20
HETATM   20  O3  UNL     1      26.638   3.433  50.772  1.00  0.00    -0.345 OA
BRANCH  20  21
HETATM   21  C19 UNL     1      26.742   3.598  49.383  1.00  0.00     0.201 C 
BRANCH  21  22
HETATM   22  C20 UNL     1      26.571   5.061  48.982  1.00  0.00     0.190 C 
BRANCH  22  23
HETATM   23  O4  UNL     1      26.352   5.753  50.187  1.00  0.00    -0.399 OA
HETATM   24  H23 UNL     1      26.885   6.585  50.131  1.00  0.00     0.209 HD
ENDBRANCH  22  23
ENDBRANCH  21  22
ENDBRANCH  20  21
ENDBRANCH  15  20
BRANCH  14  25
HETATM   25  O1  UNL     1      27.430   1.306  52.442  1.00  0.00    -0.341 OA
BRANCH  25  26
HETATM   26  C14 UNL     1      27.825   0.411  53.437  1.00  0.00     0.154 C 
HETATM   27  C15 UNL     1      29.366   0.460  53.547  1.00  0.00     0.061 C 
HETATM   28  C16 UNL     1      29.605  -0.948  54.066  1.00  0.00     0.170 C 
HETATM   29  O2  UNL     1      28.729  -1.763  53.379  1.00  0.00    -0.389 OA
HETATM   30  C17 UNL     1      27.679  -1.008  52.930  1.00  0.00     0.200 C 
ENDBRANCH  25  26
ENDBRANCH  14  25
TORSDOF 6
ENDMDL
MODEL 3
REMARK VINA RESULT:      -7.1      5.148      7.223
REMARK  6 active torsions:
REMARK  status: ('A' for Active; 'I' for Inactive)
REMARK    1  A    between atoms: C13_14  and  O1_15 
REMARK    2  A    between atoms: O1_15  and  C14_16 
REMARK    3  A    between atoms: C18_21  and  O3_22 
REMARK    4  A    between atoms: O3_22  and  C19_23 
REMARK    5  A    between atoms: C19_23  and  C20_24 
REMARK    6  A    between atoms: C20_24  and  O4_25 
ROOT
HETATM    1  C1  UNL     1      23.544   4.769  52.895  1.00  0.00     0.012 C 
HETATM    2  C2  UNL     1      23.330   4.444  51.756  1.00  0.00    -0.110 C 
HETATM    3  C3  UNL     1      23.049   4.042  50.391  1.00  0.00     0.033 C 
HETATM    4  C4  UNL     1      22.157   4.869  49.826  1.00  0.00     0.089 C 
HETATM    5  C5  UNL     1      21.483   4.969  48.531  1.00  0.00    -0.022 C 
HETATM    6  C6  UNL     1      21.018   6.057  49.093  1.00  0.00    -0.001 C 
HETATM    7  C7  UNL     1      20.917   6.991  50.157  1.00  0.00     0.297 C 
HETATM    8  N1  UNL     1      21.990   7.043  51.150  1.00  0.00     0.090 NA
HETATM    9  C8  UNL     1      23.122   7.745  50.563  1.00  0.00     0.298 C 
HETATM   10  C9  UNL     1      24.296   7.078  50.111  1.00  0.00     0.019 C 
HETATM   11  C10 UNL     1      25.325   6.292  49.763  1.00  0.00     0.025 A 
HETATM   12  C11 UNL     1      25.686   4.853  49.939  1.00  0.00     0.043 A 
HETATM   13  C12 UNL     1      26.788   4.686  49.254  1.00  0.00     0.069 A 
HETATM   14  C13 UNL     1      27.295   5.870  48.576  1.00  0.00     0.105 A 
HETATM   15  C18 UNL     1      26.432   6.795  48.886  1.00  0.00     0.114 A 
HETATM   16  N2  UNL     1      25.270   3.646  50.639  1.00  0.00    -0.388 N 
HETATM   17  C21 UNL     1      24.073   2.879  50.164  1.00  0.00     0.138 C 
HETATM   18  H7  UNL     1      21.688   7.487  52.014  1.00  0.00     0.316 HD
HETATM   19  H24 UNL     1      25.811   3.319  51.467  1.00  0.00     0.159 HD
ENDROOT
BRANCH  15  20
HETATM   20  O3  UNL     1      26.734   8.061  48.326  1.00  0.00    -0.345 OA
BRANCH  20  21
HETATM   21  C19 UNL     1      26.785   9.254  49.063  1.00  0.00     0.201 C 
BRANCH  21  22
HETATM   22  C20 UNL     1      28.059   9.338  49.899  1.00  0.00     0.190 C 
BRANCH  22  23
HETATM   23  O4  UNL     1      27.631   9.667  51.197  1.00  0.00    -0.399 OA
HETATM   24  H23 UNL     1      27.624  10.655  51.247  1.00  0.00     0.209 HD
ENDBRANCH  22  23
ENDBRANCH  21  22
ENDBRANCH  20  21
ENDBRANCH  15  20
BRANCH  14  25
HETATM   25  O1  UNL     1      28.441   5.881  47.808  1.00  0.00    -0.341 OA
BRANCH  25  26
HETATM   26  C14 UNL     1      29.705   6.320  48.206  1.00  0.00     0.154 C 
HETATM   27  C15 UNL     1      30.130   7.478  47.274  1.00  0.00     0.061 C 
HETATM   28  C16 UNL     1      31.637   7.312  47.373  1.00  0.00     0.170 C 
HETATM   29  O2  UNL     1      31.874   5.953  47.365  1.00  0.00    -0.389 OA
HETATM   30  C17 UNL     1      30.748   5.304  47.794  1.00  0.00     0.200 C 
ENDBRANCH  25  26
ENDBRANCH  14  25
TORSDOF 6
ENDMDL
MODEL 4
REMARK VINA RESULT:      -7.1      3.024      6.426
REMARK  6 active torsions:
REMARK  status: ('A' for Active; 'I' for Inactive)
REMARK    1  A    between atoms: C13_14  and  O1_15 
REMARK    2  A    between atoms: O1_15  and  C14_16 
REMARK    3  A    between atoms: C18_21  and  O3_22 
REMARK    4  A    between atoms: O3_22  and  C19_23 
REMARK    5  A    between atoms: C19_23  and  C20_24 
REMARK    6  A    between atoms: C20_24  and  O4_25 
ROOT
HETATM    1  C1  UNL     1      23.745   5.135  53.506  1.00  0.00     0.012 C 
HETATM    2  C2  UNL     1      23.766   4.704  52.382  1.00  0.00    -0.110 C 
HETATM    3  C3  UNL     1      23.809   4.203  51.022  1.00  0.00     0.033 C 
HETATM    4  C4  UNL     1      24.933   3.503  50.808  1.00  0.00     0.089 C 
HETATM    5  C5  UNL     1      25.538   2.798  49.677  1.00  0.00    -0.022 C 
HETATM    6  C6  UNL     1      26.421   2.507  50.601  1.00  0.00    -0.001 C 
HETATM    7  C7  UNL     1      26.927   2.543  51.927  1.00  0.00     0.297 C 
HETATM    8  N1  UNL     1      26.004   2.833  53.024  1.00  0.00     0.090 NA
HETATM    9  C8  UNL     1      25.223   1.635  53.292  1.00  0.00     0.298 C 
HETATM   10  C9  UNL     1      23.862   1.493  52.894  1.00  0.00     0.019 C 
HETATM   11  C10 UNL     1      22.593   1.544  52.467  1.00  0.00     0.025 A 
HETATM   12  C11 UNL     1      21.697   2.586  51.881  1.00  0.00     0.043 A 
HETATM   13  C12 UNL     1      20.593   1.959  51.569  1.00  0.00     0.069 A 
HETATM   14  C13 UNL     1      20.572   0.533  51.866  1.00  0.00     0.105 A 
HETATM   15  C18 UNL     1      21.743   0.311  52.390  1.00  0.00     0.114 A 
HETATM   16  N2  UNL     1      21.626   4.015  51.613  1.00  0.00    -0.388 N 
HETATM   17  C21 UNL     1      22.399   4.603  50.470  1.00  0.00     0.138 C 
HETATM   18  H7  UNL     1      26.493   3.150  53.858  1.00  0.00     0.316 HD
HETATM   19  H24 UNL     1      21.034   4.624  52.216  1.00  0.00     0.159 HD
ENDROOT
BRANCH  15  20
HETATM   20  O3  UNL     1      21.947  -1.039  52.769  1.00  0.00    -0.345 OA
BRANCH  20  21
HETATM   21  C19 UNL     1      21.577  -1.571  54.013  1.00  0.00     0.201 C 
BRANCH  21  22
HETATM   22  C20 UNL     1      22.440  -1.005  55.138  1.00  0.00     0.190 C 
BRANCH  22  23
HETATM   23  O4  UNL     1      22.929  -2.127  55.831  1.00  0.00    -0.399 OA
HETATM   24  H23 UNL     1      22.156  -2.518  56.310  1.00  0.00     0.209 HD
ENDBRANCH  22  23
ENDBRANCH  21  22
ENDBRANCH  20  21
ENDBRANCH  15  20
BRANCH  14  25
HETATM   25  O1  UNL     1      19.494  -0.288  51.604  1.00  0.00    -0.341 OA
BRANCH  25  26
HETATM   26  C14 UNL     1      18.173  -0.078  52.002  1.00  0.00     0.154 C 
HETATM   27  C15 UNL     1      17.720  -1.298  52.837  1.00  0.00     0.061 C 
HETATM   28  C16 UNL     1      16.229  -1.232  52.553  1.00  0.00     0.170 C 
HETATM   29  O2  UNL     1      16.108  -0.898  51.220  1.00  0.00    -0.389 OA
HETATM   30  C17 UNL     1      17.250  -0.262  50.816  1.00  0.00     0.200 C 
ENDBRANCH  25  26
ENDBRANCH  14  25
TORSDOF 6
ENDMDL
MODEL 5
REMARK VINA RESULT:      -6.9      8.573     10.886
REMARK  6 active torsions:
REMARK  status: ('A' for Active; 'I' for Inactive)
REMARK    1  A    between atoms: C13_14  and  O1_15 
REMARK    2  A    between atoms: O1_15  and  C14_16 
REMARK    3  A    between atoms: C18_21  and  O3_22 
REMARK    4  A    between atoms: O3_22  and  C19_23 
REMARK    5  A    between atoms: C19_23  and  C20_24 
REMARK    6  A    between atoms: C20_24  and  O4_25 
ROOT
HETATM    1  C1  UNL     1      27.233   9.233  50.273  1.00  0.00     0.012 C 
HETATM    2  C2  UNL     1      27.543   9.088  49.119  1.00  0.00    -0.110 C 
HETATM    3  C3  UNL     1      27.897   8.930  47.721  1.00  0.00     0.033 C 
HETATM    4  C4  UNL     1      28.537  10.018  47.266  1.00  0.00     0.089 C 
HETATM    5  C5  UNL     1      29.101  10.453  45.988  1.00  0.00    -0.022 C 
HETATM    6  C6  UNL     1      29.461  11.469  46.732  1.00  0.00    -0.001 C 
HETATM    7  C7  UNL     1      29.550  12.172  47.963  1.00  0.00     0.297 C 
HETATM    8  N1  UNL     1      29.404  11.423  49.211  1.00  0.00     0.090 NA
HETATM    9  C8  UNL     1      30.646  10.707  49.462  1.00  0.00     0.298 C 
HETATM   10  C9  UNL     1      30.785   9.304  49.259  1.00  0.00     0.019 C 
HETATM   11  C10 UNL     1      30.727   7.983  49.035  1.00  0.00     0.025 A 
HETATM   12  C11 UNL     1      29.656   6.995  48.707  1.00  0.00     0.043 A 
HETATM   13  C12 UNL     1      30.280   5.865  48.498  1.00  0.00     0.069 A 
HETATM   14  C13 UNL     1      31.729   5.908  48.639  1.00  0.00     0.105 A 
HETATM   15  C18 UNL     1      31.970   7.148  48.954  1.00  0.00     0.114 A 
HETATM   16  N2  UNL     1      28.209   6.865  48.609  1.00  0.00    -0.388 N 
HETATM   17  C21 UNL     1      27.482   7.448  47.434  1.00  0.00     0.138 C 
HETATM   18  H7  UNL     1      29.162  12.028  49.992  1.00  0.00     0.316 HD
HETATM   19  H24 UNL     1      27.685   6.364  49.356  1.00  0.00     0.159 HD
ENDROOT
BRANCH  15  20
HETATM   20  O3  UNL     1      33.346   7.425  49.149  1.00  0.00    -0.345 OA
BRANCH  20  21
HETATM   21  C19 UNL     1      34.134   8.160  48.251  1.00  0.00     0.201 C 
BRANCH  21  22
HETATM   22  C20 UNL     1      35.595   7.720  48.304  1.00  0.00     0.190 C 
BRANCH  22  23
HETATM   23  O4  UNL     1      36.301   8.835  48.790  1.00  0.00    -0.399 OA
HETATM   24  H23 UNL     1      35.670   9.597  48.766  1.00  0.00     0.209 HD
ENDBRANCH  22  23
ENDBRANCH  21  22
ENDBRANCH  20  21
ENDBRANCH  15  20
BRANCH  14  25
HETATM   25  O1  UNL     1      32.549   4.814  48.454  1.00  0.00    -0.341 OA
BRANCH  25  26
HETATM   26  C14 UNL     1      33.492   4.645  47.439  1.00  0.00     0.154 C 
HETATM   27  C15 UNL     1      33.069   3.428  46.583  1.00  0.00     0.061 C 
HETATM   28  C16 UNL     1      34.441   3.007  46.087  1.00  0.00     0.170 C 
HETATM   29  O2  UNL     1      35.300   3.160  47.155  1.00  0.00    -0.389 OA
HETATM   30  C17 UNL     1      34.768   4.075  48.023  1.00  0.00     0.200 C 
ENDBRANCH  25  26
ENDBRANCH  14  25
TORSDOF 6
ENDMDL
MODEL 6
REMARK VINA RESULT:      -6.8      5.895      8.923
REMARK  6 active torsions:
REMARK  status: ('A' for Active; 'I' for Inactive)
REMARK    1  A    between atoms: C13_14  and  O1_15 
REMARK    2  A    between atoms: O1_15  and  C14_16 
REMARK    3  A    between atoms: C18_21  and  O3_22 
REMARK    4  A    between atoms: O3_22  and  C19_23 
REMARK    5  A    between atoms: C19_23  and  C20_24 
REMARK    6  A    between atoms: C20_24  and  O4_25 
ROOT
HETATM    1  C1  UNL     1      30.652   7.384  45.446  1.00  0.00     0.012 C 
HETATM    2  C2  UNL     1      30.768   7.486  46.640  1.00  0.00    -0.110 C 
HETATM    3  C3  UNL     1      30.929   7.620  48.075  1.00  0.00     0.033 C 
HETATM    4  C4  UNL     1      30.740   8.892  48.459  1.00  0.00     0.089 C 
HETATM    5  C5  UNL     1      30.789   9.632  49.720  1.00  0.00    -0.022 C 
HETATM    6  C6  UNL     1      30.397  10.598  48.926  1.00  0.00    -0.001 C 
HETATM    7  C7  UNL     1      30.007  11.125  47.667  1.00  0.00     0.297 C 
HETATM    8  N1  UNL     1      29.525  10.203  46.638  1.00  0.00     0.090 NA
HETATM    9  C8  UNL     1      28.160   9.823  46.968  1.00  0.00     0.298 C 
HETATM   10  C9  UNL     1      27.820   8.551  47.512  1.00  0.00     0.019 C 
HETATM   11  C10 UNL     1      27.684   7.307  47.993  1.00  0.00     0.025 A 
HETATM   12  C11 UNL     1      28.573   6.119  48.168  1.00  0.00     0.043 A 
HETATM   13  C12 UNL     1      27.853   5.239  48.814  1.00  0.00     0.069 A 
HETATM   14  C13 UNL     1      26.496   5.654  49.143  1.00  0.00     0.105 A 
HETATM   15  C18 UNL     1      26.416   6.858  48.655  1.00  0.00     0.114 A 
HETATM   16  N2  UNL     1      29.894   5.617  47.819  1.00  0.00    -0.388 N 
HETATM   17  C21 UNL     1      31.106   6.134  48.535  1.00  0.00     0.138 C 
HETATM   18  H7  UNL     1      29.581  10.609  45.707  1.00  0.00     0.316 HD
HETATM   19  H24 UNL     1      29.991   4.896  47.074  1.00  0.00     0.159 HD
ENDROOT
BRANCH  15  20
HETATM   20  O3  UNL     1      25.154   7.469  48.859  1.00  0.00    -0.345 OA
BRANCH  20  21
HETATM   21  C19 UNL     1      24.837   8.267  49.969  1.00  0.00     0.201 C 
BRANCH  21  22
HETATM   22  C20 UNL     1      23.786   7.599  50.852  1.00  0.00     0.190 C 
BRANCH  22  23
HETATM   23  O4  UNL     1      24.510   6.962  51.875  1.00  0.00    -0.399 OA
HETATM   24  H23 UNL     1      24.806   6.092  51.507  1.00  0.00     0.209 HD
ENDBRANCH  22  23
ENDBRANCH  21  22
ENDBRANCH  20  21
ENDBRANCH  15  20
BRANCH  14  25
HETATM   25  O1  UNL     1      25.596   4.858  49.822  1.00  0.00    -0.341 OA
BRANCH  25  26
HETATM   26  C14 UNL     1      24.880   3.781  49.299  1.00  0.00     0.154 C 
HETATM   27  C15 UNL     1      23.510   4.303  48.808  1.00  0.00     0.061 C 
HETATM   28  C16 UNL     1      22.704   3.024  48.969  1.00  0.00     0.170 C 
HETATM   29  O2  UNL     1      23.132   2.448  50.147  1.00  0.00    -0.389 OA
HETATM   30  C17 UNL     1      24.393   2.899  50.430  1.00  0.00     0.200 C 
ENDBRANCH  25  26
ENDBRANCH  14  25
TORSDOF 6
ENDMDL
MODEL 7
REMARK VINA RESULT:      -6.7      5.606      7.568
REMARK  6 active torsions:
REMARK  status: ('A' for Active; 'I' for Inactive)
REMARK    1  A    between atoms: C13_14  and  O1_15 
REMARK    2  A    between atoms: O1_15  and  C14_16 
REMARK    3  A    between atoms: C18_21  and  O3_22 
REMARK    4  A    between atoms: O3_22  and  C19_23 
REMARK    5  A    between atoms: C19_23  and  C20_24 
REMARK    6  A    between atoms: C20_24  and  O4_25 
ROOT
HETATM    1  C1  UNL     1      23.660   5.505  51.762  1.00  0.00     0.012 C 
HETATM    2  C2  UNL     1      23.638   5.091  50.632  1.00  0.00    -0.110 C 
HETATM    3  C3  UNL     1      23.587   4.585  49.274  1.00  0.00     0.033 C 
HETATM    4  C4  UNL     1      22.908   5.425  48.478  1.00  0.00     0.089 C 
HETATM    5  C5  UNL     1      22.511   5.455  47.071  1.00  0.00    -0.022 C 
HETATM    6  C6  UNL     1      22.058   6.628  47.441  1.00  0.00    -0.001 C 
HETATM    7  C7  UNL     1      21.848   7.665  48.387  1.00  0.00     0.297 C 
HETATM    8  N1  UNL     1      22.709   7.723  49.568  1.00  0.00     0.090 NA
HETATM    9  C8  UNL     1      23.998   8.268  49.168  1.00  0.00     0.298 C 
HETATM   10  C9  UNL     1      25.164   7.465  49.015  1.00  0.00     0.019 C 
HETATM   11  C10 UNL     1      26.156   6.565  48.944  1.00  0.00     0.025 A 
HETATM   12  C11 UNL     1      26.329   5.126  49.300  1.00  0.00     0.043 A 
HETATM   13  C12 UNL     1      27.520   4.801  48.866  1.00  0.00     0.069 A 
HETATM   14  C13 UNL     1      28.265   5.868  48.213  1.00  0.00     0.105 A 
HETATM   15  C18 UNL     1      27.457   6.888  48.270  1.00  0.00     0.114 A 
HETATM   16  N2  UNL     1      25.666   4.031  49.994  1.00  0.00    -0.388 N 
HETATM   17  C21 UNL     1      24.512   3.324  49.349  1.00  0.00     0.138 C 
HETATM   18  H7  UNL     1      22.292   8.272  50.317  1.00  0.00     0.316 HD
HETATM   19  H24 UNL     1      26.001   3.740  50.936  1.00  0.00     0.159 HD
ENDROOT
BRANCH  15  20
HETATM   20  O3  UNL     1      27.988   8.064  47.686  1.00  0.00    -0.345 OA
BRANCH  20  21
HETATM   21  C19 UNL     1      27.976   9.323  48.305  1.00  0.00     0.201 C 
BRANCH  21  22
HETATM   22  C20 UNL     1      28.876   9.345  49.538  1.00  0.00     0.190 C 
BRANCH  22  23
HETATM   23  O4  UNL     1      27.999   9.358  50.638  1.00  0.00    -0.399 OA
HETATM   24  H23 UNL     1      27.158   9.771  50.319  1.00  0.00     0.209 HD
ENDBRANCH  22  23
ENDBRANCH  21  22
ENDBRANCH  20  21
ENDBRANCH  15  20
BRANCH  14  25
HETATM   25  O1  UNL     1      29.534   5.709  47.693  1.00  0.00    -0.341 OA
BRANCH  25  26
HETATM   26  C14 UNL     1      30.736   5.782  48.398  1.00  0.00     0.154 C 
HETATM   27  C15 UNL     1      31.438   7.106  48.019  1.00  0.00     0.061 C 
HETATM   28  C16 UNL     1      32.877   6.682  48.262  1.00  0.00     0.170 C 
HETATM   29  O2  UNL     1      32.979   5.388  47.796  1.00  0.00    -0.389 OA
HETATM   30  C17 UNL     1      31.735   4.817  47.796  1.00  0.00     0.200 C 
ENDBRANCH  25  26
ENDBRANCH  14  25
TORSDOF 6
ENDMDL
MODEL 8
REMARK VINA RESULT:      -6.7      4.852      8.061
REMARK  6 active torsions:
REMARK  status: ('A' for Active; 'I' for Inactive)
REMARK    1  A    between atoms: C13_14  and  O1_15 
REMARK    2  A    between atoms: O1_15  and  C14_16 
REMARK    3  A    between atoms: C18_21  and  O3_22 
REMARK    4  A    between atoms: O3_22  and  C19_23 
REMARK    5  A    between atoms: C19_23  and  C20_24 
REMARK    6  A    between atoms: C20_24  and  O4_25 
ROOT
HETATM    1  C1  UNL     1      22.863   2.428  48.300  1.00  0.00     0.012 C 
HETATM    2  C2  UNL     1      22.632   3.289  49.108  1.00  0.00    -0.110 C 
HETATM    3  C3  UNL     1      22.340   4.310  50.096  1.00  0.00     0.033 C 
HETATM    4  C4  UNL     1      22.991   4.063  51.243  1.00  0.00     0.089 C 
HETATM    5  C5  UNL     1      23.079   4.691  52.562  1.00  0.00    -0.022 C 
HETATM    6  C6  UNL     1      23.951   3.727  52.730  1.00  0.00    -0.001 C 
HETATM    7  C7  UNL     1      24.701   2.605  52.290  1.00  0.00     0.297 C 
HETATM    8  N1  UNL     1      24.890   2.405  50.853  1.00  0.00     0.090 NA
HETATM    9  C8  UNL     1      25.906   3.340  50.392  1.00  0.00     0.298 C 
HETATM   10  C9  UNL     1      25.597   4.515  49.648  1.00  0.00     0.019 C 
HETATM   11  C10 UNL     1      25.125   5.552  48.942  1.00  0.00     0.025 A 
HETATM   12  C11 UNL     1      23.804   5.954  48.374  1.00  0.00     0.043 A 
HETATM   13  C12 UNL     1      23.986   7.155  47.888  1.00  0.00     0.069 A 
HETATM   14  C13 UNL     1      25.329   7.699  48.036  1.00  0.00     0.105 A 
HETATM   15  C18 UNL     1      25.978   6.751  48.650  1.00  0.00     0.114 A 
HETATM   16  N2  UNL     1      22.459   5.451  48.138  1.00  0.00    -0.388 N 
HETATM   17  C21 UNL     1      21.489   5.338  49.277  1.00  0.00     0.138 C 
HETATM   18  H7  UNL     1      25.144   1.445  50.632  1.00  0.00     0.316 HD
HETATM   19  H24 UNL     1      22.174   5.174  47.175  1.00  0.00     0.159 HD
ENDROOT
BRANCH  15  20
HETATM   20  O3  UNL     1      27.337   7.066  48.900  1.00  0.00    -0.345 OA
BRANCH  20  21
HETATM   21  C19 UNL     1      28.382   6.807  47.999  1.00  0.00     0.201 C 
BRANCH  21  22
HETATM   22  C20 UNL     1      28.984   5.423  48.228  1.00  0.00     0.190 C 
BRANCH  22  23
HETATM   23  O4  UNL     1      29.877   5.580  49.303  1.00  0.00    -0.399 OA
HETATM   24  H23 UNL     1      30.333   6.446  49.163  1.00  0.00     0.209 HD
ENDBRANCH  22  23
ENDBRANCH  21  22
ENDBRANCH  20  21
ENDBRANCH  15  20
BRANCH  14  25
HETATM   25  O1  UNL     1      25.703   8.948  47.586  1.00  0.00    -0.341 OA
BRANCH  25  26
HETATM   26  C14 UNL     1      25.560  10.156  48.271  1.00  0.00     0.154 C 
HETATM   27  C15 UNL     1      25.322  11.276  47.232  1.00  0.00     0.061 C 
HETATM   28  C16 UNL     1      25.888  12.445  48.020  1.00  0.00     0.170 C 
HETATM   29  O2  UNL     1      27.015  11.968  48.657  1.00  0.00    -0.389 OA
HETATM   30  C17 UNL     1      26.910  10.609  48.786  1.00  0.00     0.200 C 
ENDBRANCH  25  26
ENDBRANCH  14  25
TORSDOF 6
ENDMDL
MODEL 9
REMARK VINA RESULT:      -6.7      8.477     11.542
REMARK  6 active torsions:
REMARK  status: ('A' for Active; 'I' for Inactive)
REMARK    1  A    between atoms: C13_14  and  O1_15 
REMARK    2  A    between atoms: O1_15  and  C14_16 
REMARK    3  A    between atoms: C18_21  and  O3_22 
REMARK    4  A    between atoms: O3_22  and  C19_23 
REMARK    5  A    between atoms: C19_23  and  C20_24 
REMARK    6  A    between atoms: C20_24  and  O4_25 
ROOT
HETATM    1  C1  UNL     1      34.847   5.415  48.955  1.00  0.00     0.012 C 
HETATM    2  C2  UNL     1      34.545   6.162  48.061  1.00  0.00    -0.110 C 
HETATM    3  C3  UNL     1      34.203   7.056  46.971  1.00  0.00     0.033 C 
HETATM    4  C4  UNL     1      33.817   6.363  45.890  1.00  0.00     0.089 C 
HETATM    5  C5  UNL     1      33.390   6.684  44.527  1.00  0.00    -0.022 C 
HETATM    6  C6  UNL     1      33.230   5.384  44.496  1.00  0.00    -0.001 C 
HETATM    7  C7  UNL     1      33.257   4.088  45.076  1.00  0.00     0.297 C 
HETATM    8  N1  UNL     1      33.210   3.970  46.533  1.00  0.00     0.090 NA
HETATM    9  C8  UNL     1      31.840   4.200  46.966  1.00  0.00     0.298 C 
HETATM   10  C9  UNL     1      31.416   5.412  47.584  1.00  0.00     0.019 C 
HETATM   11  C10 UNL     1      31.204   6.600  48.166  1.00  0.00     0.025 A 
HETATM   12  C11 UNL     1      32.053   7.742  48.620  1.00  0.00     0.043 A 
HETATM   13  C12 UNL     1      31.213   8.667  49.007  1.00  0.00     0.069 A 
HETATM   14  C13 UNL     1      29.802   8.328  48.888  1.00  0.00     0.105 A 
HETATM   15  C18 UNL     1      29.817   7.121  48.399  1.00  0.00     0.114 A 
HETATM   16  N2  UNL     1      33.443   8.125  48.823  1.00  0.00    -0.388 N 
HETATM   17  C21 UNL     1      34.307   8.466  47.645  1.00  0.00     0.138 C 
HETATM   18  H7  UNL     1      33.551   3.067  46.853  1.00  0.00     0.316 HD
HETATM   19  H24 UNL     1      33.831   8.163  49.789  1.00  0.00     0.159 HD
ENDROOT
BRANCH  15  20
HETATM   20  O3  UNL     1      28.524   6.575  48.200  1.00  0.00    -0.345 OA
BRANCH  20  21
HETATM   21  C19 UNL     1      28.178   5.248  48.496  1.00  0.00     0.201 C 
BRANCH  21  22
HETATM   22  C20 UNL     1      26.718   5.138  48.930  1.00  0.00     0.190 C 
BRANCH  22  23
HETATM   23  O4  UNL     1      26.528   6.173  49.862  1.00  0.00    -0.399 OA
HETATM   24  H23 UNL     1      27.237   6.841  49.685  1.00  0.00     0.209 HD
ENDBRANCH  22  23
ENDBRANCH  21  22
ENDBRANCH  20  21
ENDBRANCH  15  20
BRANCH  14  25
HETATM   25  O1  UNL     1      28.777   9.179  49.246  1.00  0.00    -0.341 OA
BRANCH  25  26
HETATM   26  C14 UNL     1      28.110  10.075  48.408  1.00  0.00     0.154 C 
HETATM   27  C15 UNL     1      28.593  11.504  48.746  1.00  0.00     0.061 C 
HETATM   28  C16 UNL     1      27.352  12.273  48.322  1.00  0.00     0.170 C 
HETATM   29  O2  UNL     1      26.274  11.515  48.731  1.00  0.00    -0.389 OA
HETATM   30  C17 UNL     1      26.670  10.211  48.857  1.00  0.00     0.200 C 
ENDBRANCH  25  26
ENDBRANCH  14  25
TORSDOF 6
ENDMDL
