MODEL 1
REMARK VINA RESULT:      -6.4      0.000      0.000
REMARK  7 active torsions:
REMARK  status: ('A' for Active; 'I' for Inactive)
REMARK    1  A    between atoms: O1_2  and  C2_3 
REMARK    2  A    between atoms: C4_5  and  O2_6 
REMARK    3  A    between atoms: C4_5  and  C6_9 
REMARK    4  A    between atoms: O2_6  and  C5_7 
REMARK    5  A    between atoms: C5_7  and  N1_8 
REMARK    6  A    between atoms: C8_13  and  C9_14 
REMARK    7  A    between atoms: C12_17  and  O3_18 
ROOT
HETATM    1  C6  UNL     1      24.518   2.822  50.263  1.00  0.00     0.221 A 
HETATM    2  N2  UNL     1      24.471   4.014  49.475  1.00  0.00    -0.265 NA
HETATM    3  C7  UNL     1      25.603   4.588  49.498  1.00  0.00     0.228 A 
HETATM    4  N3  UNL     1      26.523   3.853  50.294  1.00  0.00    -0.243 NA
HETATM    5  C8  UNL     1      25.910   2.801  50.761  1.00  0.00     0.077 A 
ENDROOT
BRANCH   1   6
HETATM    6  C4  UNL     1      23.541   3.034  51.372  1.00  0.00     0.108 C 
HETATM    7  C2  UNL     1      22.424   2.332  51.457  1.00  0.00     0.073 C 
HETATM    8  C3  UNL     1      22.136   1.308  50.422  1.00  0.00     0.079 C 
BRANCH   7   9
HETATM    9  O1  UNL     1      21.545   2.545  52.482  1.00  0.00    -0.358 OA
HETATM   10  C1  UNL     1      20.180   2.868  52.344  1.00  0.00     0.209 C 
ENDBRANCH   7   9
BRANCH   6  11
HETATM   11  O2  UNL     1      24.022   4.016  52.183  1.00  0.00    -0.321 OA
BRANCH  11  12
HETATM   12  C5  UNL     1      23.389   5.214  52.512  1.00  0.00     0.441 C 
BRANCH  12  13
HETATM   13  N1  UNL     1      24.273   6.330  52.145  1.00  0.00     0.101 N 
HETATM   14  H9  UNL     1      24.654   6.801  52.993  1.00  0.00     0.315 HD
HETATM   15  H10 UNL     1      25.028   5.875  51.572  1.00  0.00     0.315 HD
ENDBRANCH  12  13
ENDBRANCH  11  12
ENDBRANCH   6  11
ENDBRANCH   1   6
BRANCH   5  16
HETATM   16  C9  UNL     1      26.585   1.836  51.623  1.00  0.00    -0.009 A 
HETATM   17  C10 UNL     1      26.298   0.489  51.640  1.00  0.00     0.016 A 
HETATM   18  C11 UNL     1      26.919  -0.444  52.440  1.00  0.00     0.037 A 
HETATM   19  C12 UNL     1      27.913  -0.017  53.302  1.00  0.00     0.068 A 
HETATM   20  C14 UNL     1      28.244   1.326  53.329  1.00  0.00     0.037 A 
HETATM   21  C15 UNL     1      27.580   2.205  52.500  1.00  0.00     0.016 A 
BRANCH  19  22
HETATM   22  O3  UNL     1      28.624  -0.825  54.163  1.00  0.00    -0.356 OA
HETATM   23  C13 UNL     1      29.966  -1.185  53.882  1.00  0.00     0.210 C 
ENDBRANCH  19  22
ENDBRANCH   5  16
TORSDOF 7
ENDMDL
MODEL 2
REMARK VINA RESULT:      -6.2      2.440      3.099
REMARK  7 active torsions:
REMARK  status: ('A' for Active; 'I' for Inactive)
REMARK    1  A    between atoms: O1_2  and  C2_3 
REMARK    2  A    between atoms: C4_5  and  O2_6 
REMARK    3  A    between atoms: C4_5  and  C6_9 
REMARK    4  A    between atoms: O2_6  and  C5_7 
REMARK    5  A    between atoms: C5_7  and  N1_8 
REMARK    6  A    between atoms: C8_13  and  C9_14 
REMARK    7  A    between atoms: C12_17  and  O3_18 
ROOT
HETATM    1  C6  UNL     1      23.250   2.512  51.609  1.00  0.00     0.221 A 
HETATM    2  N2  UNL     1      22.606   3.776  51.784  1.00  0.00    -0.265 NA
HETATM    3  C7  UNL     1      23.195   4.435  52.695  1.00  0.00     0.228 A 
HETATM    4  N3  UNL     1      24.286   3.693  53.226  1.00  0.00    -0.243 NA
HETATM    5  C8  UNL     1      24.345   2.549  52.601  1.00  0.00     0.077 A 
ENDROOT
BRANCH   1   6
HETATM    6  C4  UNL     1      22.225   1.485  51.960  1.00  0.00     0.108 C 
HETATM    7  C2  UNL     1      21.498   0.884  51.034  1.00  0.00     0.073 C 
HETATM    8  C3  UNL     1      21.709   1.239  49.609  1.00  0.00     0.079 C 
BRANCH   7   9
HETATM    9  O1  UNL     1      20.565  -0.053  51.382  1.00  0.00    -0.358 OA
HETATM   10  C1  UNL     1      19.177   0.168  51.495  1.00  0.00     0.209 C 
ENDBRANCH   7   9
BRANCH   6  11
HETATM   11  O2  UNL     1      22.217   1.336  53.314  1.00  0.00    -0.321 OA
BRANCH  11  12
HETATM   12  C5  UNL     1      22.105   0.139  54.022  1.00  0.00     0.441 C 
BRANCH  12  13
HETATM   13  N1  UNL     1      20.806   0.117  54.707  1.00  0.00     0.101 N 
HETATM   14  H9  UNL     1      20.070   0.579  54.131  1.00  0.00     0.315 HD
HETATM   15  H10 UNL     1      20.612  -0.906  54.849  1.00  0.00     0.315 HD
ENDBRANCH  12  13
ENDBRANCH  11  12
ENDBRANCH   6  11
ENDBRANCH   1   6
BRANCH   5  16
HETATM   16  C9  UNL     1      25.362   1.552  52.917  1.00  0.00    -0.009 A 
HETATM   17  C10 UNL     1      25.946   1.416  54.157  1.00  0.00     0.016 A 
HETATM   18  C11 UNL     1      26.906   0.485  54.483  1.00  0.00     0.037 A 
HETATM   19  C12 UNL     1      27.333  -0.394  53.504  1.00  0.00     0.068 A 
HETATM   20  C14 UNL     1      26.782  -0.305  52.238  1.00  0.00     0.037 A 
HETATM   21  C15 UNL     1      25.824   0.653  51.982  1.00  0.00     0.016 A 
BRANCH  19  22
HETATM   22  O3  UNL     1      28.283  -1.378  53.675  1.00  0.00    -0.356 OA
HETATM   23  C13 UNL     1      29.666  -1.074  53.611  1.00  0.00     0.210 C 
ENDBRANCH  19  22
ENDBRANCH   5  16
TORSDOF 7
ENDMDL
MODEL 3
REMARK VINA RESULT:      -6.2      2.635      4.051
REMARK  7 active torsions:
REMARK  status: ('A' for Active; 'I' for Inactive)
REMARK    1  A    between atoms: O1_2  and  C2_3 
REMARK    2  A    between atoms: C4_5  and  O2_6 
REMARK    3  A    between atoms: C4_5  and  C6_9 
REMARK    4  A    between atoms: O2_6  and  C5_7 
REMARK    5  A    between atoms: C5_7  and  N1_8 
REMARK    6  A    between atoms: C8_13  and  C9_14 
REMARK    7  A    between atoms: C12_17  and  O3_18 
ROOT
HETATM    1  C6  UNL     1      22.694   1.358  53.059  1.00  0.00     0.221 A 
HETATM    2  N2  UNL     1      21.437   0.683  53.137  1.00  0.00    -0.265 NA
HETATM    3  C7  UNL     1      21.627  -0.554  53.349  1.00  0.00     0.228 A 
HETATM    4  N3  UNL     1      23.016  -0.841  53.435  1.00  0.00    -0.243 NA
HETATM    5  C8  UNL     1      23.675   0.272  53.267  1.00  0.00     0.077 A 
ENDROOT
BRANCH   1   6
HETATM    6  C4  UNL     1      22.770   1.908  51.673  1.00  0.00     0.108 C 
HETATM    7  C2  UNL     1      23.151   3.152  51.439  1.00  0.00     0.073 C 
HETATM    8  C3  UNL     1      23.510   4.023  52.585  1.00  0.00     0.079 C 
BRANCH   7   9
HETATM    9  O1  UNL     1      23.212   3.632  50.160  1.00  0.00    -0.358 OA
HETATM   10  C1  UNL     1      24.384   3.784  49.391  1.00  0.00     0.209 C 
ENDBRANCH   7   9
BRANCH   6  11
HETATM   11  O2  UNL     1      22.394   0.929  50.804  1.00  0.00    -0.321 OA
BRANCH  11  12
HETATM   12  C5  UNL     1      21.322   0.969  49.913  1.00  0.00     0.441 C 
BRANCH  12  13
HETATM   13  N1  UNL     1      21.833   1.296  48.575  1.00  0.00     0.101 N 
HETATM   14  H9  UNL     1      22.542   2.059  48.621  1.00  0.00     0.315 HD
HETATM   15  H10 UNL     1      22.249   0.392  48.234  1.00  0.00     0.315 HD
ENDBRANCH  12  13
ENDBRANCH  11  12
ENDBRANCH   6  11
ENDBRANCH   1   6
BRANCH   5  16
HETATM   16  C9  UNL     1      25.133   0.315  53.299  1.00  0.00    -0.009 A 
HETATM   17  C10 UNL     1      25.860   1.413  53.702  1.00  0.00     0.016 A 
HETATM   18  C11 UNL     1      27.235   1.482  53.742  1.00  0.00     0.037 A 
HETATM   19  C12 UNL     1      27.964   0.373  53.354  1.00  0.00     0.068 A 
HETATM   20  C14 UNL     1      27.286  -0.761  52.938  1.00  0.00     0.037 A 
HETATM   21  C15 UNL     1      25.908  -0.759  52.923  1.00  0.00     0.016 A 
BRANCH  19  22
HETATM   22  O3  UNL     1      29.339   0.286  53.339  1.00  0.00    -0.356 OA
HETATM   23  C13 UNL     1      29.997  -0.917  53.698  1.00  0.00     0.210 C 
ENDBRANCH  19  22
ENDBRANCH   5  16
TORSDOF 7
ENDMDL
MODEL 4
REMARK VINA RESULT:      -6.0      1.636      2.071
REMARK  7 active torsions:
REMARK  status: ('A' for Active; 'I' for Inactive)
REMARK    1  A    between atoms: O1_2  and  C2_3 
REMARK    2  A    between atoms: C4_5  and  O2_6 
REMARK    3  A    between atoms: C4_5  and  C6_9 
REMARK    4  A    between atoms: O2_6  and  C5_7 
REMARK    5  A    between atoms: C5_7  and  N1_8 
REMARK    6  A    between atoms: C8_13  and  C9_14 
REMARK    7  A    between atoms: C12_17  and  O3_18 
ROOT
HETATM    1  C6  UNL     1      23.857   3.150  49.627  1.00  0.00     0.221 A 
HETATM    2  N2  UNL     1      24.198   4.364  48.955  1.00  0.00    -0.265 NA
HETATM    3  C7  UNL     1      25.289   4.819  49.417  1.00  0.00     0.228 A 
HETATM    4  N3  UNL     1      25.794   3.970  50.439  1.00  0.00    -0.243 NA
HETATM    5  C8  UNL     1      24.967   2.971  50.587  1.00  0.00     0.077 A 
ENDROOT
BRANCH   1   6
HETATM    6  C4  UNL     1      22.566   3.425  50.326  1.00  0.00     0.108 C 
HETATM    7  C2  UNL     1      21.580   2.545  50.335  1.00  0.00     0.073 C 
HETATM    8  C3  UNL     1      21.761   1.252  49.631  1.00  0.00     0.079 C 
BRANCH   7   9
HETATM    9  O1  UNL     1      20.407   2.822  50.982  1.00  0.00    -0.358 OA
HETATM   10  C1  UNL     1      20.017   2.309  52.236  1.00  0.00     0.209 C 
ENDBRANCH   7   9
BRANCH   6  11
HETATM   11  O2  UNL     1      22.641   4.663  50.889  1.00  0.00    -0.321 OA
BRANCH  11  12
HETATM   12  C5  UNL     1      22.624   4.965  52.251  1.00  0.00     0.441 C 
BRANCH  12  13
HETATM   13  N1  UNL     1      23.884   5.636  52.600  1.00  0.00     0.101 N 
HETATM   14  H9  UNL     1      24.460   5.044  53.235  1.00  0.00     0.315 HD
HETATM   15  H10 UNL     1      24.353   5.793  51.672  1.00  0.00     0.315 HD
ENDBRANCH  12  13
ENDBRANCH  11  12
ENDBRANCH   6  11
ENDBRANCH   1   6
BRANCH   5  16
HETATM   16  C9  UNL     1      25.202   1.916  51.567  1.00  0.00    -0.009 A 
HETATM   17  C10 UNL     1      26.345   1.150  51.610  1.00  0.00     0.016 A 
HETATM   18  C11 UNL     1      26.594   0.149  52.524  1.00  0.00     0.037 A 
HETATM   19  C12 UNL     1      25.635  -0.123  53.482  1.00  0.00     0.068 A 
HETATM   20  C14 UNL     1      24.465   0.615  53.488  1.00  0.00     0.037 A 
HETATM   21  C15 UNL     1      24.283   1.603  52.542  1.00  0.00     0.016 A 
BRANCH  19  22
HETATM   22  O3  UNL     1      25.737  -1.089  54.460  1.00  0.00    -0.356 OA
HETATM   23  C13 UNL     1      24.737  -1.225  55.456  1.00  0.00     0.210 C 
ENDBRANCH  19  22
ENDBRANCH   5  16
TORSDOF 7
ENDMDL
MODEL 5
REMARK VINA RESULT:      -5.9      2.622      4.099
REMARK  7 active torsions:
REMARK  status: ('A' for Active; 'I' for Inactive)
REMARK    1  A    between atoms: O1_2  and  C2_3 
REMARK    2  A    between atoms: C4_5  and  O2_6 
REMARK    3  A    between atoms: C4_5  and  C6_9 
REMARK    4  A    between atoms: O2_6  and  C5_7 
REMARK    5  A    between atoms: C5_7  and  N1_8 
REMARK    6  A    between atoms: C8_13  and  C9_14 
REMARK    7  A    between atoms: C12_17  and  O3_18 
ROOT
HETATM    1  C6  UNL     1      22.058   2.100  52.084  1.00  0.00     0.221 A 
HETATM    2  N2  UNL     1      20.725   1.803  51.665  1.00  0.00    -0.265 NA
HETATM    3  C7  UNL     1      20.539   0.547  51.684  1.00  0.00     0.228 A 
HETATM    4  N3  UNL     1      21.715  -0.128  52.111  1.00  0.00    -0.243 NA
HETATM    5  C8  UNL     1      22.633   0.765  52.357  1.00  0.00     0.077 A 
ENDROOT
BRANCH   1   6
HETATM    6  C4  UNL     1      22.714   2.750  50.911  1.00  0.00     0.108 C 
HETATM    7  C2  UNL     1      23.356   3.901  51.024  1.00  0.00     0.073 C 
HETATM    8  C3  UNL     1      23.425   4.560  52.350  1.00  0.00     0.079 C 
BRANCH   7   9
HETATM    9  O1  UNL     1      23.948   4.476  49.933  1.00  0.00    -0.358 OA
HETATM   10  C1  UNL     1      25.261   4.232  49.483  1.00  0.00     0.209 C 
ENDBRANCH   7   9
BRANCH   6  11
HETATM   11  O2  UNL     1      22.513   1.963  49.819  1.00  0.00    -0.321 OA
BRANCH  11  12
HETATM   12  C5  UNL     1      22.006   2.362  48.582  1.00  0.00     0.441 C 
BRANCH  12  13
HETATM   13  N1  UNL     1      20.714   1.696  48.365  1.00  0.00     0.101 N 
HETATM   14  H9  UNL     1      20.437   1.136  49.199  1.00  0.00     0.315 HD
HETATM   15  H10 UNL     1      20.048   2.489  48.183  1.00  0.00     0.315 HD
ENDBRANCH  12  13
ENDBRANCH  11  12
ENDBRANCH   6  11
ENDBRANCH   1   6
BRANCH   5  16
HETATM   16  C9  UNL     1      23.967   0.392  52.817  1.00  0.00    -0.009 A 
HETATM   17  C10 UNL     1      25.130   0.761  52.180  1.00  0.00     0.016 A 
HETATM   18  C11 UNL     1      26.400   0.424  52.592  1.00  0.00     0.037 A 
HETATM   19  C12 UNL     1      26.543  -0.344  53.732  1.00  0.00     0.068 A 
HETATM   20  C14 UNL     1      25.408  -0.745  54.415  1.00  0.00     0.037 A 
HETATM   21  C15 UNL     1      24.167  -0.371  53.945  1.00  0.00     0.016 A 
BRANCH  19  22
HETATM   22  O3  UNL     1      27.742  -0.761  54.269  1.00  0.00    -0.356 OA
HETATM   23  C13 UNL     1      28.644   0.168  54.845  1.00  0.00     0.210 C 
ENDBRANCH  19  22
ENDBRANCH   5  16
TORSDOF 7
ENDMDL
MODEL 6
REMARK VINA RESULT:      -5.8      2.506      5.576
REMARK  7 active torsions:
REMARK  status: ('A' for Active; 'I' for Inactive)
REMARK    1  A    between atoms: O1_2  and  C2_3 
REMARK    2  A    between atoms: C4_5  and  O2_6 
REMARK    3  A    between atoms: C4_5  and  C6_9 
REMARK    4  A    between atoms: O2_6  and  C5_7 
REMARK    5  A    between atoms: C5_7  and  N1_8 
REMARK    6  A    between atoms: C8_13  and  C9_14 
REMARK    7  A    between atoms: C12_17  and  O3_18 
ROOT
HETATM    1  C6  UNL     1      25.407   1.432  51.851  1.00  0.00     0.221 A 
HETATM    2  N2  UNL     1      26.633   1.339  52.578  1.00  0.00    -0.265 NA
HETATM    3  C7  UNL     1      26.431   0.760  53.689  1.00  0.00     0.228 A 
HETATM    4  N3  UNL     1      25.062   0.405  53.829  1.00  0.00    -0.243 NA
HETATM    5  C8  UNL     1      24.428   0.790  52.755  1.00  0.00     0.077 A 
ENDROOT
BRANCH   1   6
HETATM    6  C4  UNL     1      25.138   2.893  51.700  1.00  0.00     0.108 C 
HETATM    7  C2  UNL     1      25.551   3.569  50.642  1.00  0.00     0.073 C 
HETATM    8  C3  UNL     1      26.300   2.856  49.579  1.00  0.00     0.079 C 
BRANCH   7   9
HETATM    9  O1  UNL     1      25.292   4.907  50.527  1.00  0.00    -0.358 OA
HETATM   10  C1  UNL     1      24.703   5.541  49.414  1.00  0.00     0.209 C 
ENDBRANCH   7   9
BRANCH   6  11
HETATM   11  O2  UNL     1      24.444   3.315  52.793  1.00  0.00    -0.321 OA
BRANCH  11  12
HETATM   12  C5  UNL     1      23.422   4.264  52.820  1.00  0.00     0.441 C 
BRANCH  12  13
HETATM   13  N1  UNL     1      23.982   5.546  53.270  1.00  0.00     0.101 N 
HETATM   14  H9  UNL     1      23.678   5.766  54.242  1.00  0.00     0.315 HD
HETATM   15  H10 UNL     1      25.022   5.405  53.203  1.00  0.00     0.315 HD
ENDBRANCH  12  13
ENDBRANCH  11  12
ENDBRANCH   6  11
ENDBRANCH   1   6
BRANCH   5  16
HETATM   16  C9  UNL     1      22.995   0.571  52.587  1.00  0.00    -0.009 A 
HETATM   17  C10 UNL     1      22.326   0.751  51.397  1.00  0.00     0.016 A 
HETATM   18  C11 UNL     1      20.976   0.551  51.209  1.00  0.00     0.037 A 
HETATM   19  C12 UNL     1      20.214   0.137  52.286  1.00  0.00     0.068 A 
HETATM   20  C14 UNL     1      20.833  -0.059  53.508  1.00  0.00     0.037 A 
HETATM   21  C15 UNL     1      22.189   0.160  53.624  1.00  0.00     0.016 A 
BRANCH  19  22
HETATM   22  O3  UNL     1      18.858  -0.104  52.257  1.00  0.00    -0.356 OA
HETATM   23  C13 UNL     1      18.270  -1.064  53.120  1.00  0.00     0.210 C 
ENDBRANCH  19  22
ENDBRANCH   5  16
TORSDOF 7
ENDMDL
MODEL 7
REMARK VINA RESULT:      -5.8      2.496      3.363
REMARK  7 active torsions:
REMARK  status: ('A' for Active; 'I' for Inactive)
REMARK    1  A    between atoms: O1_2  and  C2_3 
REMARK    2  A    between atoms: C4_5  and  O2_6 
REMARK    3  A    between atoms: C4_5  and  C6_9 
REMARK    4  A    between atoms: O2_6  and  C5_7 
REMARK    5  A    between atoms: C5_7  and  N1_8 
REMARK    6  A    between atoms: C8_13  and  C9_14 
REMARK    7  A    between atoms: C12_17  and  O3_18 
ROOT
HETATM    1  C6  UNL     1      24.584   2.999  49.831  1.00  0.00     0.221 A 
HETATM    2  N2  UNL     1      25.656   3.808  49.342  1.00  0.00    -0.265 NA
HETATM    3  C7  UNL     1      26.674   3.667  50.086  1.00  0.00     0.228 A 
HETATM    4  N3  UNL     1      26.400   2.760  51.146  1.00  0.00    -0.243 NA
HETATM    5  C8  UNL     1      25.169   2.346  51.021  1.00  0.00     0.077 A 
ENDROOT
BRANCH   1   6
HETATM    6  C4  UNL     1      23.499   3.953  50.206  1.00  0.00     0.108 C 
HETATM    7  C2  UNL     1      22.294   3.883  49.665  1.00  0.00     0.073 C 
HETATM    8  C3  UNL     1      22.017   2.829  48.658  1.00  0.00     0.079 C 
BRANCH   7   9
HETATM    9  O1  UNL     1      21.318   4.769  50.025  1.00  0.00    -0.358 OA
HETATM   10  C1  UNL     1      20.276   4.521  50.943  1.00  0.00     0.209 C 
ENDBRANCH   7   9
BRANCH   6  11
HETATM   11  O2  UNL     1      23.992   4.818  51.135  1.00  0.00    -0.321 OA
BRANCH  11  12
HETATM   12  C5  UNL     1      24.034   6.209  51.044  1.00  0.00     0.441 C 
BRANCH  12  13
HETATM   13  N1  UNL     1      24.388   6.757  52.361  1.00  0.00     0.101 N 
HETATM   14  H9  UNL     1      25.250   7.341  52.304  1.00  0.00     0.315 HD
HETATM   15  H10 UNL     1      23.545   7.322  52.635  1.00  0.00     0.315 HD
ENDBRANCH  12  13
ENDBRANCH  11  12
ENDBRANCH   6  11
ENDBRANCH   1   6
BRANCH   5  16
HETATM   16  C9  UNL     1      24.577   1.399  51.960  1.00  0.00    -0.009 A 
HETATM   17  C10 UNL     1      25.309   0.542  52.750  1.00  0.00     0.016 A 
HETATM   18  C11 UNL     1      24.778  -0.360  53.645  1.00  0.00     0.037 A 
HETATM   19  C12 UNL     1      23.403  -0.428  53.777  1.00  0.00     0.068 A 
HETATM   20  C14 UNL     1      22.615   0.410  53.008  1.00  0.00     0.037 A 
HETATM   21  C15 UNL     1      23.215   1.289  52.132  1.00  0.00     0.016 A 
BRANCH  19  22
HETATM   22  O3  UNL     1      22.724  -1.275  54.626  1.00  0.00    -0.356 OA
HETATM   23  C13 UNL     1      21.333  -1.500  54.471  1.00  0.00     0.210 C 
ENDBRANCH  19  22
ENDBRANCH   5  16
TORSDOF 7
ENDMDL
MODEL 8
REMARK VINA RESULT:      -5.7      5.121      7.871
REMARK  7 active torsions:
REMARK  status: ('A' for Active; 'I' for Inactive)
REMARK    1  A    between atoms: O1_2  and  C2_3 
REMARK    2  A    between atoms: C4_5  and  O2_6 
REMARK    3  A    between atoms: C4_5  and  C6_9 
REMARK    4  A    between atoms: O2_6  and  C5_7 
REMARK    5  A    between atoms: C5_7  and  N1_8 
REMARK    6  A    between atoms: C8_13  and  C9_14 
REMARK    7  A    between atoms: C12_17  and  O3_18 
ROOT
HETATM    1  C6  UNL     1      29.429   6.937  47.148  1.00  0.00     0.221 A 
HETATM    2  N2  UNL     1      30.838   6.712  47.075  1.00  0.00    -0.265 NA
HETATM    3  C7  UNL     1      31.148   5.699  47.774  1.00  0.00     0.228 A 
HETATM    4  N3  UNL     1      29.993   5.140  48.387  1.00  0.00    -0.243 NA
HETATM    5  C8  UNL     1      28.958   5.852  48.034  1.00  0.00     0.077 A 
ENDROOT
BRANCH   1   6
HETATM    6  C4  UNL     1      29.268   8.277  47.788  1.00  0.00     0.108 C 
HETATM    7  C2  UNL     1      28.625   9.262  47.184  1.00  0.00     0.073 C 
HETATM    8  C3  UNL     1      28.050   9.028  45.837  1.00  0.00     0.079 C 
BRANCH   7   9
HETATM    9  O1  UNL     1      28.492  10.480  47.792  1.00  0.00    -0.358 OA
HETATM   10  C1  UNL     1      27.387  10.902  48.560  1.00  0.00     0.209 C 
ENDBRANCH   7   9
BRANCH   6  11
HETATM   11  O2  UNL     1      29.877   8.244  49.006  1.00  0.00    -0.321 OA
BRANCH  11  12
HETATM   12  C5  UNL     1      30.986   8.989  49.406  1.00  0.00     0.441 C 
BRANCH  12  13
HETATM   13  N1  UNL     1      30.527  10.100  50.251  1.00  0.00     0.101 N 
HETATM   14  H9  UNL     1      31.237  10.863  50.284  1.00  0.00     0.315 HD
HETATM   15  H10 UNL     1      29.633  10.412  49.795  1.00  0.00     0.315 HD
ENDBRANCH  12  13
ENDBRANCH  11  12
ENDBRANCH   6  11
ENDBRANCH   1   6
BRANCH   5  16
HETATM   16  C9  UNL     1      27.612   5.536  48.500  1.00  0.00    -0.009 A 
HETATM   17  C10 UNL     1      26.556   6.417  48.450  1.00  0.00     0.016 A 
HETATM   18  C11 UNL     1      25.276   6.146  48.881  1.00  0.00     0.037 A 
HETATM   19  C12 UNL     1      25.008   4.896  49.409  1.00  0.00     0.068 A 
HETATM   20  C14 UNL     1      26.032   3.968  49.485  1.00  0.00     0.037 A 
HETATM   21  C15 UNL     1      27.289   4.309  49.034  1.00  0.00     0.016 A 
BRANCH  19  22
HETATM   22  O3  UNL     1      23.783   4.475  49.880  1.00  0.00    -0.356 OA
HETATM   23  C13 UNL     1      23.648   3.232  50.548  1.00  0.00     0.210 C 
ENDBRANCH  19  22
ENDBRANCH   5  16
TORSDOF 7
ENDMDL
MODEL 9
REMARK VINA RESULT:      -5.6      2.447      5.144
REMARK  7 active torsions:
REMARK  status: ('A' for Active; 'I' for Inactive)
REMARK    1  A    between atoms: O1_2  and  C2_3 
REMARK    2  A    between atoms: C4_5  and  O2_6 
REMARK    3  A    between atoms: C4_5  and  C6_9 
REMARK    4  A    between atoms: O2_6  and  C5_7 
REMARK    5  A    between atoms: C5_7  and  N1_8 
REMARK    6  A    between atoms: C8_13  and  C9_14 
REMARK    7  A    between atoms: C12_17  and  O3_18 
ROOT
HETATM    1  C6  UNL     1      23.980   2.567  50.212  1.00  0.00     0.221 A 
HETATM    2  N2  UNL     1      22.583   2.267  50.176  1.00  0.00    -0.265 NA
HETATM    3  C7  UNL     1      21.966   3.173  49.536  1.00  0.00     0.228 A 
HETATM    4  N3  UNL     1      22.871   4.169  49.078  1.00  0.00    -0.243 NA
HETATM    5  C8  UNL     1      24.072   3.838  49.463  1.00  0.00     0.077 A 
ENDROOT
BRANCH   1   6
HETATM    6  C4  UNL     1      24.314   2.754  51.655  1.00  0.00     0.108 C 
HETATM    7  C2  UNL     1      25.399   2.221  52.191  1.00  0.00     0.073 C 
HETATM    8  C3  UNL     1      26.304   1.415  51.336  1.00  0.00     0.079 C 
BRANCH   7   9
HETATM    9  O1  UNL     1      25.682   2.408  53.516  1.00  0.00    -0.358 OA
HETATM   10  C1  UNL     1      26.396   1.513  54.341  1.00  0.00     0.209 C 
ENDBRANCH   7   9
BRANCH   6  11
HETATM   11  O2  UNL     1      23.342   3.520  52.222  1.00  0.00    -0.321 OA
BRANCH  11  12
HETATM   12  C5  UNL     1      23.487   4.807  52.740  1.00  0.00     0.441 C 
BRANCH  12  13
HETATM   13  N1  UNL     1      22.553   5.703  52.044  1.00  0.00     0.101 N 
HETATM   14  H9  UNL     1      22.589   6.665  52.442  1.00  0.00     0.315 HD
HETATM   15  H10 UNL     1      22.876   5.677  51.043  1.00  0.00     0.315 HD
ENDBRANCH  12  13
ENDBRANCH  11  12
ENDBRANCH   6  11
ENDBRANCH   1   6
BRANCH   5  16
HETATM   16  C9  UNL     1      25.235   4.662  49.149  1.00  0.00    -0.009 A 
HETATM   17  C10 UNL     1      25.165   6.000  48.834  1.00  0.00     0.016 A 
HETATM   18  C11 UNL     1      26.244   6.802  48.535  1.00  0.00     0.037 A 
HETATM   19  C12 UNL     1      27.507   6.240  48.547  1.00  0.00     0.068 A 
HETATM   20  C14 UNL     1      27.640   4.898  48.857  1.00  0.00     0.037 A 
HETATM   21  C15 UNL     1      26.515   4.155  49.146  1.00  0.00     0.016 A 
BRANCH  19  22
HETATM   22  O3  UNL     1      28.680   6.908  48.272  1.00  0.00    -0.356 OA
HETATM   23  C13 UNL     1      29.913   6.212  48.186  1.00  0.00     0.210 C 
ENDBRANCH  19  22
ENDBRANCH   5  16
TORSDOF 7
ENDMDL
