MODEL 1
REMARK VINA RESULT:      -7.1      0.000      0.000
REMARK  7 active torsions:
REMARK  status: ('A' for Active; 'I' for Inactive)
REMARK    1  A    between atoms: C3_3  and  C4_4 
REMARK    2  A    between atoms: C10_11  and  C11_12 
REMARK    3  A    between atoms: C11_12  and  N1_13 
REMARK    4  A    between atoms: N1_13  and  C12_14 
REMARK    5  A    between atoms: C12_14  and  C13_15 
REMARK    6  A    between atoms: C13_15  and  C14_16 
REMARK    7  A    between atoms: C14_16  and  C15_17 
ROOT
HETATM    1  C4  UNL     1      26.491  -0.102  52.651  1.00  0.00     0.010 C 
HETATM    2  C5  UNL     1      26.799   0.914  51.859  1.00  0.00     0.016 C 
HETATM    3  C6  UNL     1      26.401   2.164  51.268  1.00  0.00     0.020 C 
HETATM    4  C7  UNL     1      25.108   2.460  51.057  1.00  0.00     0.010 C 
HETATM    5 BR1  UNL     1      25.067   4.209  50.259  1.00  0.00    -0.051 Br
HETATM    6  C8  UNL     1      23.742   1.942  51.209  1.00  0.00     0.016 C 
HETATM    7  C9  UNL     1      23.356   1.086  52.150  1.00  0.00    -0.011 C 
HETATM    8  C10 UNL     1      23.755   0.287  53.308  1.00  0.00     0.111 C 
HETATM    9  C16 UNL     1      25.174  -0.125  53.334  1.00  0.00     0.169 C 
HETATM   10  O1  UNL     1      25.304  -0.778  54.416  1.00  0.00    -0.292 OA
ENDROOT
BRANCH   8  11
HETATM   11  C11 UNL     1      22.893  -0.972  53.345  1.00  0.00     0.285 C 
BRANCH  11  12
HETATM   12  N1  UNL     1      22.255  -1.171  54.632  1.00  0.00     0.084 N 
HETATM   13  H13 UNL     1      22.407  -0.392  55.281  1.00  0.00     0.315 HD
BRANCH  12  14
HETATM   14  C12 UNL     1      20.873  -1.500  54.370  1.00  0.00     0.269 C 
BRANCH  14  15
HETATM   15  C13 UNL     1      20.134  -0.461  53.578  1.00  0.00     0.031 C 
BRANCH  15  16
HETATM   16  C14 UNL     1      18.769  -0.890  53.122  1.00  0.00     0.017 C 
BRANCH  16  17
HETATM   17  C15 UNL     1      18.395  -0.233  51.799  1.00  0.00     0.114 C 
HETATM   18 CL1  UNL     1      19.822   0.457  51.053  1.00  0.00    -0.130 Cl
ENDBRANCH  16  17
ENDBRANCH  15  16
ENDBRANCH  14  15
ENDBRANCH  12  14
ENDBRANCH  11  12
ENDBRANCH   8  11
BRANCH   1  19
HETATM   19  C3  UNL     1      27.447  -1.162  52.860  1.00  0.00     0.011 C 
HETATM   20  C2  UNL     1      28.669  -1.452  53.211  1.00  0.00    -0.030 C 
HETATM   21  C1  UNL     1      29.854  -0.671  53.634  1.00  0.00     0.036 C 
ENDBRANCH   1  19
TORSDOF 7
ENDMDL
MODEL 2
REMARK VINA RESULT:      -6.9      1.158      1.215
REMARK  7 active torsions:
REMARK  status: ('A' for Active; 'I' for Inactive)
REMARK    1  A    between atoms: C3_3  and  C4_4 
REMARK    2  A    between atoms: C10_11  and  C11_12 
REMARK    3  A    between atoms: C11_12  and  N1_13 
REMARK    4  A    between atoms: N1_13  and  C12_14 
REMARK    5  A    between atoms: C12_14  and  C13_15 
REMARK    6  A    between atoms: C13_15  and  C14_16 
REMARK    7  A    between atoms: C14_16  and  C15_17 
ROOT
HETATM    1  C4  UNL     1      26.403   0.210  52.505  1.00  0.00     0.010 C 
HETATM    2  C5  UNL     1      26.780   1.196  51.705  1.00  0.00     0.016 C 
HETATM    3  C6  UNL     1      26.450   2.442  51.065  1.00  0.00     0.020 C 
HETATM    4  C7  UNL     1      25.179   2.769  50.782  1.00  0.00     0.010 C 
HETATM    5 BR1  UNL     1      25.230   4.498  49.941  1.00  0.00    -0.051 Br
HETATM    6  C8  UNL     1      23.792   2.294  50.878  1.00  0.00     0.016 C 
HETATM    7  C9  UNL     1      23.334   1.474  51.818  1.00  0.00    -0.011 C 
HETATM    8  C10 UNL     1      23.651   0.695  53.014  1.00  0.00     0.111 C 
HETATM    9  C16 UNL     1      25.054   0.243  53.122  1.00  0.00     0.169 C 
HETATM   10  O1  UNL     1      25.110  -0.386  54.225  1.00  0.00    -0.292 OA
ENDROOT
BRANCH   8  11
HETATM   11  C11 UNL     1      22.750  -0.537  53.038  1.00  0.00     0.285 C 
BRANCH  11  12
HETATM   12  N1  UNL     1      22.281  -0.857  54.372  1.00  0.00     0.084 N 
HETATM   13  H13 UNL     1      22.485  -0.122  55.057  1.00  0.00     0.315 HD
BRANCH  12  14
HETATM   14  C12 UNL     1      20.890  -1.226  54.252  1.00  0.00     0.269 C 
BRANCH  14  15
HETATM   15  C13 UNL     1      20.040  -0.198  53.563  1.00  0.00     0.031 C 
BRANCH  15  16
HETATM   16  C14 UNL     1      18.991  -0.775  52.656  1.00  0.00     0.017 C 
BRANCH  16  17
HETATM   17  C15 UNL     1      17.772  -1.238  53.444  1.00  0.00     0.114 C 
HETATM   18 CL1  UNL     1      17.754  -2.987  53.541  1.00  0.00    -0.130 Cl
ENDBRANCH  16  17
ENDBRANCH  15  16
ENDBRANCH  14  15
ENDBRANCH  12  14
ENDBRANCH  11  12
ENDBRANCH   8  11
BRANCH   1  19
HETATM   19  C3  UNL     1      27.315  -0.872  52.788  1.00  0.00     0.011 C 
HETATM   20  C2  UNL     1      28.513  -1.188  53.196  1.00  0.00    -0.030 C 
HETATM   21  C1  UNL     1      29.705  -0.430  53.640  1.00  0.00     0.036 C 
ENDBRANCH   1  19
TORSDOF 7
ENDMDL
MODEL 3
REMARK VINA RESULT:      -6.6      4.026      6.318
REMARK  7 active torsions:
REMARK  status: ('A' for Active; 'I' for Inactive)
REMARK    1  A    between atoms: C3_3  and  C4_4 
REMARK    2  A    between atoms: C10_11  and  C11_12 
REMARK    3  A    between atoms: C11_12  and  N1_13 
REMARK    4  A    between atoms: N1_13  and  C12_14 
REMARK    5  A    between atoms: C12_14  and  C13_15 
REMARK    6  A    between atoms: C13_15  and  C14_16 
REMARK    7  A    between atoms: C14_16  and  C15_17 
ROOT
HETATM    1  C4  UNL     1      26.356   0.373  53.568  1.00  0.00     0.010 C 
HETATM    2  C5  UNL     1      25.527  -0.360  54.296  1.00  0.00     0.016 C 
HETATM    3  C6  UNL     1      24.202  -0.897  54.465  1.00  0.00     0.020 C 
HETATM    4  C7  UNL     1      23.125  -0.282  53.952  1.00  0.00     0.010 C 
HETATM    5 BR1  UNL     1      21.601  -1.353  54.430  1.00  0.00    -0.051 Br
HETATM    6  C8  UNL     1      22.696   0.888  53.174  1.00  0.00     0.016 C 
HETATM    7  C9  UNL     1      23.440   1.507  52.263  1.00  0.00    -0.011 C 
HETATM    8  C10 UNL     1      24.723   1.551  51.564  1.00  0.00     0.111 C 
HETATM    9  C16 UNL     1      25.871   0.997  52.312  1.00  0.00     0.169 C 
HETATM   10  O1  UNL     1      26.862   1.116  51.524  1.00  0.00    -0.292 OA
ENDROOT
BRANCH   8  11
HETATM   11  C11 UNL     1      25.035   3.005  51.220  1.00  0.00     0.285 C 
BRANCH  11  12
HETATM   12  N1  UNL     1      25.570   3.157  49.881  1.00  0.00     0.084 N 
HETATM   13  H13 UNL     1      25.358   2.361  49.270  1.00  0.00     0.315 HD
BRANCH  12  14
HETATM   14  C12 UNL     1      25.131   4.446  49.397  1.00  0.00     0.269 C 
BRANCH  14  15
HETATM   15  C13 UNL     1      26.249   5.400  49.094  1.00  0.00     0.031 C 
BRANCH  15  16
HETATM   16  C14 UNL     1      27.548   4.734  48.738  1.00  0.00     0.017 C 
BRANCH  16  17
HETATM   17  C15 UNL     1      28.574   5.749  48.250  1.00  0.00     0.114 C 
HETATM   18 CL1  UNL     1      27.766   7.216  47.739  1.00  0.00    -0.130 Cl
ENDBRANCH  16  17
ENDBRANCH  15  16
ENDBRANCH  14  15
ENDBRANCH  12  14
ENDBRANCH  11  12
ENDBRANCH   8  11
BRANCH   1  19
HETATM   19  C3  UNL     1      27.726   0.536  53.990  1.00  0.00     0.011 C 
HETATM   20  C2  UNL     1      28.919   0.007  53.992  1.00  0.00    -0.030 C 
HETATM   21  C1  UNL     1      29.518  -1.237  53.458  1.00  0.00     0.036 C 
ENDBRANCH   1  19
TORSDOF 7
ENDMDL
MODEL 4
REMARK VINA RESULT:      -6.5      3.892      6.863
REMARK  7 active torsions:
REMARK  status: ('A' for Active; 'I' for Inactive)
REMARK    1  A    between atoms: C3_3  and  C4_4 
REMARK    2  A    between atoms: C10_11  and  C11_12 
REMARK    3  A    between atoms: C11_12  and  N1_13 
REMARK    4  A    between atoms: N1_13  and  C12_14 
REMARK    5  A    between atoms: C12_14  and  C13_15 
REMARK    6  A    between atoms: C13_15  and  C14_16 
REMARK    7  A    between atoms: C14_16  and  C15_17 
ROOT
HETATM    1  C4  UNL     1      23.617   0.721  53.199  1.00  0.00     0.010 C 
HETATM    2  C5  UNL     1      24.526  -0.131  53.648  1.00  0.00     0.016 C 
HETATM    3  C6  UNL     1      25.918  -0.469  53.787  1.00  0.00     0.020 C 
HETATM    4  C7  UNL     1      26.836  -0.034  52.908  1.00  0.00     0.010 C 
HETATM    5 BR1  UNL     1      28.530  -0.729  53.494  1.00  0.00    -0.051 Br
HETATM    6  C8  UNL     1      27.011   0.764  51.687  1.00  0.00     0.016 C 
HETATM    7  C9  UNL     1      26.236   1.782  51.328  1.00  0.00    -0.011 C 
HETATM    8  C10 UNL     1      25.081   2.612  51.666  1.00  0.00     0.111 C 
HETATM    9  C16 UNL     1      24.052   1.955  52.499  1.00  0.00     0.169 C 
HETATM   10  O1  UNL     1      23.166   2.846  52.686  1.00  0.00    -0.292 OA
ENDROOT
BRANCH   8  11
HETATM   11  C11 UNL     1      24.422   3.071  50.369  1.00  0.00     0.285 C 
BRANCH  11  12
HETATM   12  N1  UNL     1      24.118   4.490  50.372  1.00  0.00     0.084 N 
HETATM   13  H13 UNL     1      23.500   4.767  51.142  1.00  0.00     0.315 HD
BRANCH  12  14
HETATM   14  C12 UNL     1      25.380   5.190  50.304  1.00  0.00     0.269 C 
BRANCH  14  15
HETATM   15  C13 UNL     1      25.994   5.217  48.935  1.00  0.00     0.031 C 
BRANCH  15  16
HETATM   16  C14 UNL     1      27.356   4.588  48.858  1.00  0.00     0.017 C 
BRANCH  16  17
HETATM   17  C15 UNL     1      28.394   5.578  48.344  1.00  0.00     0.114 C 
HETATM   18 CL1  UNL     1      27.602   7.040  47.794  1.00  0.00    -0.130 Cl
ENDBRANCH  16  17
ENDBRANCH  15  16
ENDBRANCH  14  15
ENDBRANCH  12  14
ENDBRANCH  11  12
ENDBRANCH   8  11
BRANCH   1  19
HETATM   19  C3  UNL     1      22.216   0.454  53.416  1.00  0.00     0.011 C 
HETATM   20  C2  UNL     1      21.341  -0.421  53.830  1.00  0.00    -0.030 C 
HETATM   21  C1  UNL     1      21.406  -1.799  54.368  1.00  0.00     0.036 C 
ENDBRANCH   1  19
TORSDOF 7
ENDMDL
MODEL 5
REMARK VINA RESULT:      -6.4      3.194      4.643
REMARK  7 active torsions:
REMARK  status: ('A' for Active; 'I' for Inactive)
REMARK    1  A    between atoms: C3_3  and  C4_4 
REMARK    2  A    between atoms: C10_11  and  C11_12 
REMARK    3  A    between atoms: C11_12  and  N1_13 
REMARK    4  A    between atoms: N1_13  and  C12_14 
REMARK    5  A    between atoms: C12_14  and  C13_15 
REMARK    6  A    between atoms: C13_15  and  C14_16 
REMARK    7  A    between atoms: C14_16  and  C15_17 
ROOT
HETATM    1  C4  UNL     1      26.432   0.596  53.419  1.00  0.00     0.010 C 
HETATM    2  C5  UNL     1      25.693  -0.200  54.176  1.00  0.00     0.016 C 
HETATM    3  C6  UNL     1      24.418  -0.826  54.405  1.00  0.00     0.020 C 
HETATM    4  C7  UNL     1      23.276  -0.278  53.958  1.00  0.00     0.010 C 
HETATM    5 BR1  UNL     1      21.853  -1.455  54.496  1.00  0.00    -0.051 Br
HETATM    6  C8  UNL     1      22.731   0.872  53.224  1.00  0.00     0.016 C 
HETATM    7  C9  UNL     1      23.384   1.551  52.286  1.00  0.00    -0.011 C 
HETATM    8  C10 UNL     1      24.622   1.689  51.522  1.00  0.00     0.111 C 
HETATM    9  C16 UNL     1      25.842   1.203  52.200  1.00  0.00     0.169 C 
HETATM   10  O1  UNL     1      26.780   1.398  51.364  1.00  0.00    -0.292 OA
ENDROOT
BRANCH   8  11
HETATM   11  C11 UNL     1      24.819   3.165  51.187  1.00  0.00     0.285 C 
BRANCH  11  12
HETATM   12  N1  UNL     1      24.839   3.413  49.758  1.00  0.00     0.084 N 
HETATM   13  H13 UNL     1      24.801   2.553  49.200  1.00  0.00     0.315 HD
BRANCH  12  14
HETATM   14  C12 UNL     1      23.800   4.379  49.484  1.00  0.00     0.269 C 
BRANCH  14  15
HETATM   15  C13 UNL     1      22.822   3.945  48.431  1.00  0.00     0.031 C 
BRANCH  15  16
HETATM   16  C14 UNL     1      22.790   2.463  48.193  1.00  0.00     0.017 C 
BRANCH  16  17
HETATM   17  C15 UNL     1      21.367   1.922  48.262  1.00  0.00     0.114 C 
HETATM   18 CL1  UNL     1      21.229   0.775  49.578  1.00  0.00    -0.130 Cl
ENDBRANCH  16  17
ENDBRANCH  15  16
ENDBRANCH  14  15
ENDBRANCH  12  14
ENDBRANCH  11  12
ENDBRANCH   8  11
BRANCH   1  19
HETATM   19  C3  UNL     1      27.809   0.844  53.771  1.00  0.00     0.011 C 
HETATM   20  C2  UNL     1      29.006   0.333  53.850  1.00  0.00    -0.030 C 
HETATM   21  C1  UNL     1      29.606  -0.989  53.554  1.00  0.00     0.036 C 
ENDBRANCH   1  19
TORSDOF 7
ENDMDL
MODEL 6
REMARK VINA RESULT:      -6.3      3.109      5.420
REMARK  7 active torsions:
REMARK  status: ('A' for Active; 'I' for Inactive)
REMARK    1  A    between atoms: C3_3  and  C4_4 
REMARK    2  A    between atoms: C10_11  and  C11_12 
REMARK    3  A    between atoms: C11_12  and  N1_13 
REMARK    4  A    between atoms: N1_13  and  C12_14 
REMARK    5  A    between atoms: C12_14  and  C13_15 
REMARK    6  A    between atoms: C13_15  and  C14_16 
REMARK    7  A    between atoms: C14_16  and  C15_17 
ROOT
HETATM    1  C4  UNL     1      23.835   0.571  52.967  1.00  0.00     0.010 C 
HETATM    2  C5  UNL     1      24.723  -0.088  53.696  1.00  0.00     0.016 C 
HETATM    3  C6  UNL     1      26.056  -0.147  54.235  1.00  0.00     0.020 C 
HETATM    4  C7  UNL     1      27.086   0.461  53.627  1.00  0.00     0.010 C 
HETATM    5 BR1  UNL     1      28.644   0.108  54.698  1.00  0.00    -0.051 Br
HETATM    6  C8  UNL     1      27.449   1.281  52.463  1.00  0.00     0.016 C 
HETATM    7  C9  UNL     1      26.630   2.130  51.848  1.00  0.00    -0.011 C 
HETATM    8  C10 UNL     1      25.292   2.717  51.806  1.00  0.00     0.111 C 
HETATM    9  C16 UNL     1      24.211   1.869  52.352  1.00  0.00     0.169 C 
HETATM   10  O1  UNL     1      23.157   2.569  52.237  1.00  0.00    -0.292 OA
ENDROOT
BRANCH   8  11
HETATM   11  C11 UNL     1      24.955   3.043  50.354  1.00  0.00     0.285 C 
BRANCH  11  12
HETATM   12  N1  UNL     1      24.425   4.383  50.194  1.00  0.00     0.084 N 
HETATM   13  H13 UNL     1      25.155   5.094  50.082  1.00  0.00     0.315 HD
BRANCH  12  14
HETATM   14  C12 UNL     1      23.446   4.325  49.133  1.00  0.00     0.269 C 
BRANCH  14  15
HETATM   15  C13 UNL     1      23.153   2.936  48.645  1.00  0.00     0.031 C 
BRANCH  15  16
HETATM   16  C14 UNL     1      21.990   2.849  47.699  1.00  0.00     0.017 C 
BRANCH  16  17
HETATM   17  C15 UNL     1      20.866   1.999  48.280  1.00  0.00     0.114 C 
HETATM   18 CL1  UNL     1      21.519   0.862  49.441  1.00  0.00    -0.130 Cl
ENDBRANCH  16  17
ENDBRANCH  15  16
ENDBRANCH  14  15
ENDBRANCH  12  14
ENDBRANCH  11  12
ENDBRANCH   8  11
BRANCH   1  19
HETATM   19  C3  UNL     1      22.507   0.035  52.797  1.00  0.00     0.011 C 
HETATM   20  C2  UNL     1      21.591  -0.743  53.303  1.00  0.00    -0.030 C 
HETATM   21  C1  UNL     1      21.482  -1.589  54.514  1.00  0.00     0.036 C 
ENDBRANCH   1  19
TORSDOF 7
ENDMDL
MODEL 7
REMARK VINA RESULT:      -6.2      2.335      3.141
REMARK  7 active torsions:
REMARK  status: ('A' for Active; 'I' for Inactive)
REMARK    1  A    between atoms: C3_3  and  C4_4 
REMARK    2  A    between atoms: C10_11  and  C11_12 
REMARK    3  A    between atoms: C11_12  and  N1_13 
REMARK    4  A    between atoms: N1_13  and  C12_14 
REMARK    5  A    between atoms: C12_14  and  C13_15 
REMARK    6  A    between atoms: C13_15  and  C14_16 
REMARK    7  A    between atoms: C14_16  and  C15_17 
ROOT
HETATM    1  C4  UNL     1      25.167   1.497  52.204  1.00  0.00     0.010 C 
HETATM    2  C5  UNL     1      26.237   1.929  51.554  1.00  0.00     0.016 C 
HETATM    3  C6  UNL     1      26.816   2.910  50.675  1.00  0.00     0.020 C 
HETATM    4  C7  UNL     1      26.069   3.585  49.787  1.00  0.00     0.010 C 
HETATM    5 BR1  UNL     1      27.262   4.767  48.850  1.00  0.00    -0.051 Br
HETATM    6  C8  UNL     1      24.699   3.744  49.282  1.00  0.00     0.016 C 
HETATM    7  C9  UNL     1      23.597   3.534  49.995  1.00  0.00    -0.011 C 
HETATM    8  C10 UNL     1      23.041   3.145  51.290  1.00  0.00     0.111 C 
HETATM    9  C16 UNL     1      23.894   2.253  52.104  1.00  0.00     0.169 C 
HETATM   10  O1  UNL     1      23.238   2.062  53.175  1.00  0.00    -0.292 OA
ENDROOT
BRANCH   8  11
HETATM   11  C11 UNL     1      21.708   2.441  51.050  1.00  0.00     0.285 C 
BRANCH  11  12
HETATM   12  N1  UNL     1      21.875   1.105  50.512  1.00  0.00     0.084 N 
HETATM   13  H13 UNL     1      22.805   0.711  50.692  1.00  0.00     0.315 HD
BRANCH  12  14
HETATM   14  C12 UNL     1      20.763   0.317  50.992  1.00  0.00     0.269 C 
BRANCH  14  15
HETATM   15  C13 UNL     1      20.243   0.743  52.334  1.00  0.00     0.031 C 
BRANCH  15  16
HETATM   16  C14 UNL     1      20.205  -0.356  53.356  1.00  0.00     0.017 C 
BRANCH  16  17
HETATM   17  C15 UNL     1      20.923   0.053  54.636  1.00  0.00     0.114 C 
HETATM   18 CL1  UNL     1      22.315  -0.978  54.894  1.00  0.00    -0.130 Cl
ENDBRANCH  16  17
ENDBRANCH  15  16
ENDBRANCH  14  15
ENDBRANCH  12  14
ENDBRANCH  11  12
ENDBRANCH   8  11
BRANCH   1  19
HETATM   19  C3  UNL     1      25.256   0.312  53.022  1.00  0.00     0.011 C 
HETATM   20  C2  UNL     1      25.821  -0.855  53.164  1.00  0.00    -0.030 C 
HETATM   21  C1  UNL     1      26.821  -1.638  52.401  1.00  0.00     0.036 C 
ENDBRANCH   1  19
TORSDOF 7
ENDMDL
MODEL 8
REMARK VINA RESULT:      -6.2      4.266      6.202
REMARK  7 active torsions:
REMARK  status: ('A' for Active; 'I' for Inactive)
REMARK    1  A    between atoms: C3_3  and  C4_4 
REMARK    2  A    between atoms: C10_11  and  C11_12 
REMARK    3  A    between atoms: C11_12  and  N1_13 
REMARK    4  A    between atoms: N1_13  and  C12_14 
REMARK    5  A    between atoms: C12_14  and  C13_15 
REMARK    6  A    between atoms: C13_15  and  C14_16 
REMARK    7  A    between atoms: C14_16  and  C15_17 
ROOT
HETATM    1  C4  UNL     1      25.417   3.404  50.091  1.00  0.00     0.010 C 
HETATM    2  C5  UNL     1      26.350   2.700  50.712  1.00  0.00     0.016 C 
HETATM    3  C6  UNL     1      26.696   1.508  51.441  1.00  0.00     0.020 C 
HETATM    4  C7  UNL     1      25.784   0.839  52.166  1.00  0.00     0.010 C 
HETATM    5 BR1  UNL     1      26.696  -0.661  52.949  1.00  0.00    -0.051 Br
HETATM    6  C8  UNL     1      24.371   0.839  52.569  1.00  0.00     0.016 C 
HETATM    7  C9  UNL     1      23.376   1.345  51.847  1.00  0.00    -0.011 C 
HETATM    8  C10 UNL     1      22.991   2.021  50.609  1.00  0.00     0.111 C 
HETATM    9  C16 UNL     1      24.035   2.871  50.000  1.00  0.00     0.169 C 
HETATM   10  O1  UNL     1      23.503   3.336  48.944  1.00  0.00    -0.292 OA
ENDROOT
BRANCH   8  11
HETATM   11  C11 UNL     1      21.774   2.895  50.897  1.00  0.00     0.285 C 
BRANCH  11  12
HETATM   12  N1  UNL     1      22.117   4.104  51.622  1.00  0.00     0.084 N 
HETATM   13  H13 UNL     1      23.107   4.357  51.536  1.00  0.00     0.315 HD
BRANCH  12  14
HETATM   14  C12 UNL     1      21.177   5.122  51.211  1.00  0.00     0.269 C 
BRANCH  14  15
HETATM   15  C13 UNL     1      21.736   6.113  50.232  1.00  0.00     0.031 C 
BRANCH  15  16
HETATM   16  C14 UNL     1      23.018   6.758  50.674  1.00  0.00     0.017 C 
BRANCH  16  17
HETATM   17  C15 UNL     1      23.541   7.728  49.622  1.00  0.00     0.114 C 
HETATM   18 CL1  UNL     1      24.985   8.525  50.211  1.00  0.00    -0.130 Cl
ENDBRANCH  16  17
ENDBRANCH  15  16
ENDBRANCH  14  15
ENDBRANCH  12  14
ENDBRANCH  11  12
ENDBRANCH   8  11
BRANCH   1  19
HETATM   19  C3  UNL     1      25.758   4.670  49.489  1.00  0.00     0.011 C 
HETATM   20  C2  UNL     1      26.687   5.355  48.880  1.00  0.00    -0.030 C 
HETATM   21  C1  UNL     1      28.078   5.086  48.450  1.00  0.00     0.036 C 
ENDBRANCH   1  19
TORSDOF 7
ENDMDL
MODEL 9
REMARK VINA RESULT:      -6.1      4.230      7.520
REMARK  7 active torsions:
REMARK  status: ('A' for Active; 'I' for Inactive)
REMARK    1  A    between atoms: C3_3  and  C4_4 
REMARK    2  A    between atoms: C10_11  and  C11_12 
REMARK    3  A    between atoms: C11_12  and  N1_13 
REMARK    4  A    between atoms: N1_13  and  C12_14 
REMARK    5  A    between atoms: C12_14  and  C13_15 
REMARK    6  A    between atoms: C13_15  and  C14_16 
REMARK    7  A    between atoms: C14_16  and  C15_17 
ROOT
HETATM    1  C4  UNL     1      22.397   1.136  51.048  1.00  0.00     0.010 C 
HETATM    2  C5  UNL     1      21.951   0.251  51.926  1.00  0.00     0.016 C 
HETATM    3  C6  UNL     1      22.122  -0.396  53.200  1.00  0.00     0.020 C 
HETATM    4  C7  UNL     1      23.334  -0.526  53.763  1.00  0.00     0.010 C 
HETATM    5 BR1  UNL     1      23.068  -1.442  55.433  1.00  0.00    -0.051 Br
HETATM    6  C8  UNL     1      24.760  -0.230  53.570  1.00  0.00     0.016 C 
HETATM    7  C9  UNL     1      25.233   0.798  52.873  1.00  0.00    -0.011 C 
HETATM    8  C10 UNL     1      24.911   1.976  52.069  1.00  0.00     0.111 C 
HETATM    9  C16 UNL     1      23.619   1.921  51.354  1.00  0.00     0.169 C 
HETATM   10  O1  UNL     1      23.534   3.034  50.747  1.00  0.00    -0.292 OA
ENDROOT
BRANCH   8  11
HETATM   11  C11 UNL     1      26.018   2.171  51.036  1.00  0.00     0.285 C 
BRANCH  11  12
HETATM   12  N1  UNL     1      26.438   3.554  50.926  1.00  0.00     0.084 N 
HETATM   13  H13 UNL     1      27.184   3.802  51.586  1.00  0.00     0.315 HD
BRANCH  12  14
HETATM   14  C12 UNL     1      26.735   3.795  49.533  1.00  0.00     0.269 C 
BRANCH  14  15
HETATM   15  C13 UNL     1      26.280   5.134  49.031  1.00  0.00     0.031 C 
BRANCH  15  16
HETATM   16  C14 UNL     1      27.387   6.005  48.510  1.00  0.00     0.017 C 
BRANCH  16  17
HETATM   17  C15 UNL     1      27.010   7.479  48.579  1.00  0.00     0.114 C 
HETATM   18 CL1  UNL     1      26.293   7.838  50.136  1.00  0.00    -0.130 Cl
ENDBRANCH  16  17
ENDBRANCH  15  16
ENDBRANCH  14  15
ENDBRANCH  12  14
ENDBRANCH  11  12
ENDBRANCH   8  11
BRANCH   1  19
HETATM   19  C3  UNL     1      21.678   1.346  49.814  1.00  0.00     0.011 C 
HETATM   20  C2  UNL     1      20.502   1.420  49.256  1.00  0.00    -0.030 C 
HETATM   21  C1  UNL     1      19.104   1.301  49.731  1.00  0.00     0.036 C 
ENDBRANCH   1  19
TORSDOF 7
ENDMDL
