MODEL 1
REMARK VINA RESULT:      -8.3      0.000      0.000
REMARK  2 active torsions:
REMARK  status: ('A' for Active; 'I' for Inactive)
REMARK    1  A    between atoms: C2_2  and  C3_3 
REMARK    2  A    between atoms: C9_11  and  O1_12 
ROOT
HETATM    1  C3  UNL     1      21.963   3.866  51.357  1.00  0.00     0.110 C 
HETATM    2  C4  UNL     1      21.017   2.900  52.074  1.00  0.00     0.048 C 
HETATM    3  C5  UNL     1      21.448   1.822  52.761  1.00  0.00     0.126 C 
HETATM    4  N1  UNL     1      22.361   0.900  53.309  1.00  0.00    -0.228 NA
HETATM    5  C6  UNL     1      22.866  -0.081  52.687  1.00  0.00     0.195 C 
HETATM    6  N2  UNL     1      23.669  -0.616  53.707  1.00  0.00    -0.399 NA
HETATM    7  C7  UNL     1      24.934  -0.454  53.733  1.00  0.00     0.329 C 
HETATM    8  C8  UNL     1      26.375  -0.468  54.072  1.00  0.00     0.034 C 
HETATM    9  C9  UNL     1      27.228   0.164  53.249  1.00  0.00     0.043 C 
HETATM   10  C10 UNL     1      26.735   0.873  52.001  1.00  0.00     0.083 C 
HETATM   11  C11 UNL     1      27.057   2.331  52.051  1.00  0.00     0.120 C 
HETATM   12  N3  UNL     1      26.672   3.173  51.010  1.00  0.00    -0.415 N 
HETATM   13  C12 UNL     1      25.323   3.590  50.810  1.00  0.00     0.090 C 
HETATM   14  C13 UNL     1      25.272   4.310  49.480  1.00  0.00     0.033 C 
HETATM   15  C14 UNL     1      24.262   2.582  50.977  1.00  0.00     0.147 C 
HETATM   16  N4  UNL     1      22.894   2.949  50.720  1.00  0.00    -0.374 N 
HETATM   17  C15 UNL     1      22.141   2.224  49.708  1.00  0.00     0.004 C 
HETATM   18  C16 UNL     1      22.676   2.557  48.379  1.00  0.00     0.068 C 
HETATM   19  C17 UNL     1      21.197   1.454  50.203  1.00  0.00     0.026 C 
HETATM   20  C18 UNL     1      20.144   0.587  50.679  1.00  0.00     0.019 C 
HETATM   21  C19 UNL     1      19.885   0.470  51.981  1.00  0.00     0.090 C 
HETATM   22  N5  UNL     1      20.376   0.993  53.240  1.00  0.00    -0.351 N 
HETATM   23  H16 UNL     1      27.319   3.954  50.795  1.00  0.00     0.153 HD
HETATM   24  H29 UNL     1      19.956   0.745  54.156  1.00  0.00     0.166 HD
ENDROOT
BRANCH   1  25
HETATM   25  C2  UNL     1      21.079   4.548  50.334  1.00  0.00     0.025 C 
HETATM   26  C1  UNL     1      21.563   5.944  50.084  1.00  0.00     0.007 C 
ENDBRANCH   1  25
BRANCH   9  27
HETATM   27  O1  UNL     1      28.536   0.117  53.616  1.00  0.00    -0.365 OA
HETATM   28  H11 UNL     1      29.215  -0.466  53.139  1.00  0.00     0.217 HD
ENDBRANCH   9  27
TORSDOF 2
ENDMDL
MODEL 2
REMARK VINA RESULT:      -7.6      2.702      5.438
REMARK  2 active torsions:
REMARK  status: ('A' for Active; 'I' for Inactive)
REMARK    1  A    between atoms: C2_2  and  C3_3 
REMARK    2  A    between atoms: C9_11  and  O1_12 
ROOT
HETATM    1  C3  UNL     1      24.430   2.358  50.749  1.00  0.00     0.110 C 
HETATM    2  C4  UNL     1      25.461   1.484  51.466  1.00  0.00     0.048 C 
HETATM    3  C5  UNL     1      25.121   0.481  52.302  1.00  0.00     0.126 C 
HETATM    4  N1  UNL     1      24.286  -0.389  53.029  1.00  0.00    -0.228 NA
HETATM    5  C6  UNL     1      23.756  -0.123  54.148  1.00  0.00     0.195 C 
HETATM    6  N2  UNL     1      23.059  -1.321  54.368  1.00  0.00    -0.399 NA
HETATM    7  C7  UNL     1      21.797  -1.415  54.208  1.00  0.00     0.329 C 
HETATM    8  C8  UNL     1      20.392  -1.874  54.126  1.00  0.00     0.034 C 
HETATM    9  C9  UNL     1      19.454  -0.986  53.758  1.00  0.00     0.043 C 
HETATM   10  C10 UNL     1      19.817   0.452  53.437  1.00  0.00     0.083 C 
HETATM   11  C11 UNL     1      19.460   0.792  52.028  1.00  0.00     0.120 C 
HETATM   12  N3  UNL     1      19.729   2.061  51.520  1.00  0.00    -0.415 N 
HETATM   13  C12 UNL     1      21.044   2.495  51.176  1.00  0.00     0.090 C 
HETATM   14  C13 UNL     1      20.959   3.974  50.869  1.00  0.00     0.033 C 
HETATM   15  C14 UNL     1      22.143   2.143  52.091  1.00  0.00     0.147 C 
HETATM   16  N4  UNL     1      23.473   2.618  51.811  1.00  0.00    -0.374 N 
HETATM   17  C15 UNL     1      24.155   3.445  52.796  1.00  0.00     0.004 C 
HETATM   18  C16 UNL     1      23.498   4.759  52.859  1.00  0.00     0.068 C 
HETATM   19  C17 UNL     1      25.159   2.839  53.389  1.00  0.00     0.026 C 
HETATM   20  C18 UNL     1      26.274   2.233  54.081  1.00  0.00     0.019 C 
HETATM   21  C19 UNL     1      26.648   0.980  53.818  1.00  0.00     0.090 C 
HETATM   22  N5  UNL     1      26.254  -0.116  52.957  1.00  0.00    -0.351 N 
HETATM   23  H16 UNL     1      19.045   2.431  50.834  1.00  0.00     0.153 HD
HETATM   24  H29 UNL     1      26.758  -1.022  52.930  1.00  0.00     0.166 HD
ENDROOT
BRANCH   1  25
HETATM   25  C2  UNL     1      25.202   3.610  50.388  1.00  0.00     0.025 C 
HETATM   26  C1  UNL     1      26.475   3.247  49.686  1.00  0.00     0.007 C 
ENDBRANCH   1  25
BRANCH   9  27
HETATM   27  O1  UNL     1      18.185  -1.469  53.700  1.00  0.00    -0.365 OA
HETATM   28  H11 UNL     1      17.975  -2.416  53.405  1.00  0.00     0.217 HD
ENDBRANCH   9  27
TORSDOF 2
ENDMDL
MODEL 3
REMARK VINA RESULT:      -7.5      1.261      4.225
REMARK  2 active torsions:
REMARK  status: ('A' for Active; 'I' for Inactive)
REMARK    1  A    between atoms: C2_2  and  C3_3 
REMARK    2  A    between atoms: C9_11  and  O1_12 
ROOT
HETATM    1  C3  UNL     1      21.887   1.053  50.406  1.00  0.00     0.110 C 
HETATM    2  C4  UNL     1      22.583   2.099  49.533  1.00  0.00     0.048 C 
HETATM    3  C5  UNL     1      23.861   2.486  49.726  1.00  0.00     0.126 C 
HETATM    4  N1  UNL     1      25.139   2.530  50.316  1.00  0.00    -0.228 NA
HETATM    5  C6  UNL     1      25.443   3.208  51.342  1.00  0.00     0.195 C 
HETATM    6  N2  UNL     1      26.799   2.865  51.455  1.00  0.00    -0.399 NA
HETATM    7  C7  UNL     1      27.222   2.038  52.329  1.00  0.00     0.329 C 
HETATM    8  C8  UNL     1      28.042   1.152  53.188  1.00  0.00     0.034 C 
HETATM    9  C9  UNL     1      27.421   0.449  54.149  1.00  0.00     0.043 C 
HETATM   10  C10 UNL     1      25.922   0.556  54.358  1.00  0.00     0.083 C 
HETATM   11  C11 UNL     1      25.258  -0.767  54.163  1.00  0.00     0.120 C 
HETATM   12  N3  UNL     1      23.876  -0.886  54.288  1.00  0.00    -0.415 N 
HETATM   13  C12 UNL     1      22.965  -0.407  53.300  1.00  0.00     0.090 C 
HETATM   14  C13 UNL     1      21.573  -0.525  53.882  1.00  0.00     0.033 C 
HETATM   15  C14 UNL     1      23.241   0.905  52.691  1.00  0.00     0.147 C 
HETATM   16  N4  UNL     1      22.311   1.451  51.738  1.00  0.00    -0.374 N 
HETATM   17  C15 UNL     1      21.693   2.741  52.005  1.00  0.00     0.004 C 
HETATM   18  C16 UNL     1      20.751   2.601  53.126  1.00  0.00     0.068 C 
HETATM   19  C17 UNL     1      22.118   3.703  51.216  1.00  0.00     0.026 C 
HETATM   20  C18 UNL     1      22.541   4.806  50.385  1.00  0.00     0.019 C 
HETATM   21  C19 UNL     1      23.450   4.635  49.424  1.00  0.00     0.090 C 
HETATM   22  N5  UNL     1      24.258   3.569  48.868  1.00  0.00    -0.351 N 
HETATM   23  H16 UNL     1      23.530  -1.781  54.682  1.00  0.00     0.153 HD
HETATM   24  H29 UNL     1      24.897   3.708  48.063  1.00  0.00     0.166 HD
ENDROOT
BRANCH   1  25
HETATM   25  C2  UNL     1      20.412   1.325  50.195  1.00  0.00     0.025 C 
HETATM   26  C1  UNL     1      20.177   1.846  48.810  1.00  0.00     0.007 C 
ENDBRANCH   1  25
BRANCH   9  27
HETATM   27  O1  UNL     1      28.227  -0.346  54.902  1.00  0.00    -0.365 OA
HETATM   28  H11 UNL     1      28.820   0.021  55.639  1.00  0.00     0.217 HD
ENDBRANCH   9  27
TORSDOF 2
ENDMDL
MODEL 4
REMARK VINA RESULT:      -7.3      2.041      2.990
REMARK  2 active torsions:
REMARK  status: ('A' for Active; 'I' for Inactive)
REMARK    1  A    between atoms: C2_2  and  C3_3 
REMARK    2  A    between atoms: C9_11  and  O1_12 
ROOT
HETATM    1  C3  UNL     1      22.719   4.798  51.336  1.00  0.00     0.110 C 
HETATM    2  C4  UNL     1      21.191   4.735  51.388  1.00  0.00     0.048 C 
HETATM    3  C5  UNL     1      20.517   3.740  52.001  1.00  0.00     0.126 C 
HETATM    4  N1  UNL     1      20.316   2.552  52.729  1.00  0.00    -0.228 NA
HETATM    5  C6  UNL     1      20.331   1.385  52.237  1.00  0.00     0.195 C 
HETATM    6  N2  UNL     1      20.083   0.637  53.398  1.00  0.00    -0.399 NA
HETATM    7  C7  UNL     1      21.004  -0.005  54.004  1.00  0.00     0.329 C 
HETATM    8  C8  UNL     1      21.794  -0.842  54.936  1.00  0.00     0.034 C 
HETATM    9  C9  UNL     1      23.106  -0.997  54.692  1.00  0.00     0.043 C 
HETATM   10  C10 UNL     1      23.766  -0.338  53.495  1.00  0.00     0.083 C 
HETATM   11  C11 UNL     1      24.839   0.606  53.928  1.00  0.00     0.120 C 
HETATM   12  N3  UNL     1      25.559   1.334  52.984  1.00  0.00    -0.415 N 
HETATM   13  C12 UNL     1      25.011   2.451  52.284  1.00  0.00     0.090 C 
HETATM   14  C13 UNL     1      26.006   2.836  51.211  1.00  0.00     0.033 C 
HETATM   15  C14 UNL     1      23.627   2.340  51.794  1.00  0.00     0.147 C 
HETATM   16  N4  UNL     1      23.061   3.420  51.029  1.00  0.00    -0.374 N 
HETATM   17  C15 UNL     1      22.577   3.159  49.681  1.00  0.00     0.004 C 
HETATM   18  C16 UNL     1      23.723   2.887  48.801  1.00  0.00     0.068 C 
HETATM   19  C17 UNL     1      21.267   3.212  49.572  1.00  0.00     0.026 C 
HETATM   20  C18 UNL     1      19.836   3.254  49.382  1.00  0.00     0.019 C 
HETATM   21  C19 UNL     1      19.014   3.522  50.397  1.00  0.00     0.090 C 
HETATM   22  N5  UNL     1      19.094   3.823  51.812  1.00  0.00    -0.351 N 
HETATM   23  H16 UNL     1      26.555   1.514  53.211  1.00  0.00     0.153 HD
HETATM   24  H29 UNL     1      18.259   4.028  52.392  1.00  0.00     0.166 HD
ENDROOT
BRANCH   1  25
HETATM   25  C2  UNL     1      23.006   5.710  50.161  1.00  0.00     0.025 C 
HETATM   26  C1  UNL     1      24.079   6.691  50.519  1.00  0.00     0.007 C 
ENDBRANCH   1  25
BRANCH   9  27
HETATM   27  O1  UNL     1      23.776  -1.775  55.583  1.00  0.00    -0.365 OA
HETATM   28  H11 UNL     1      23.413  -1.982  56.507  1.00  0.00     0.217 HD
ENDBRANCH   9  27
TORSDOF 2
ENDMDL
MODEL 5
REMARK VINA RESULT:      -7.3      3.094      5.682
REMARK  2 active torsions:
REMARK  status: ('A' for Active; 'I' for Inactive)
REMARK    1  A    between atoms: C2_2  and  C3_3 
REMARK    2  A    between atoms: C9_11  and  O1_12 
ROOT
HETATM    1  C3  UNL     1      22.968   2.469  49.645  1.00  0.00     0.110 C 
HETATM    2  C4  UNL     1      23.883   2.072  50.805  1.00  0.00     0.048 C 
HETATM    3  C5  UNL     1      23.472   1.306  51.837  1.00  0.00     0.126 C 
HETATM    4  N1  UNL     1      22.599   0.530  52.623  1.00  0.00    -0.228 NA
HETATM    5  C6  UNL     1      21.766   0.992  53.458  1.00  0.00     0.195 C 
HETATM    6  N2  UNL     1      21.200  -0.209  53.913  1.00  0.00    -0.399 NA
HETATM    7  C7  UNL     1      20.046  -0.603  53.538  1.00  0.00     0.329 C 
HETATM    8  C8  UNL     1      18.783  -1.347  53.327  1.00  0.00     0.034 C 
HETATM    9  C9  UNL     1      17.865  -0.817  52.503  1.00  0.00     0.043 C 
HETATM   10  C10 UNL     1      18.106   0.510  51.806  1.00  0.00     0.083 C 
HETATM   11  C11 UNL     1      18.086   0.347  50.322  1.00  0.00     0.120 C 
HETATM   12  N3  UNL     1      18.309   1.442  49.491  1.00  0.00    -0.415 N 
HETATM   13  C12 UNL     1      19.600   2.020  49.300  1.00  0.00     0.090 C 
HETATM   14  C13 UNL     1      19.404   3.297  48.511  1.00  0.00     0.033 C 
HETATM   15  C14 UNL     1      20.459   2.183  50.484  1.00  0.00     0.147 C 
HETATM   16  N4  UNL     1      21.742   2.821  50.342  1.00  0.00    -0.374 N 
HETATM   17  C15 UNL     1      22.031   4.019  51.116  1.00  0.00     0.004 C 
HETATM   18  C16 UNL     1      21.213   5.130  50.607  1.00  0.00     0.068 C 
HETATM   19  C17 UNL     1      22.917   3.831  52.069  1.00  0.00     0.026 C 
HETATM   20  C18 UNL     1      23.883   3.695  53.134  1.00  0.00     0.019 C 
HETATM   21  C19 UNL     1      24.473   2.525  53.382  1.00  0.00     0.090 C 
HETATM   22  N5  UNL     1      24.464   1.171  52.869  1.00  0.00    -0.351 N 
HETATM   23  H16 UNL     1      17.784   1.449  48.596  1.00  0.00     0.153 HD
HETATM   24  H29 UNL     1      25.073   0.421  53.247  1.00  0.00     0.166 HD
ENDROOT
BRANCH   1  25
HETATM   25  C2  UNL     1      23.636   3.694  49.057  1.00  0.00     0.025 C 
HETATM   26  C1  UNL     1      25.108   3.661  49.331  1.00  0.00     0.007 C 
ENDBRANCH   1  25
BRANCH   9  27
HETATM   27  O1  UNL     1      16.729  -1.547  52.348  1.00  0.00    -0.365 OA
HETATM   28  H11 UNL     1      15.836  -1.253  52.729  1.00  0.00     0.217 HD
ENDBRANCH   9  27
TORSDOF 2
ENDMDL
MODEL 6
REMARK VINA RESULT:      -7.2      1.696      4.425
REMARK  2 active torsions:
REMARK  status: ('A' for Active; 'I' for Inactive)
REMARK    1  A    between atoms: C2_2  and  C3_3 
REMARK    2  A    between atoms: C9_11  and  O1_12 
ROOT
HETATM    1  C3  UNL     1      22.428   2.180  49.437  1.00  0.00     0.110 C 
HETATM    2  C4  UNL     1      23.682   3.052  49.351  1.00  0.00     0.048 C 
HETATM    3  C5  UNL     1      24.703   2.961  50.229  1.00  0.00     0.126 C 
HETATM    4  N1  UNL     1      25.438   2.492  51.334  1.00  0.00    -0.228 NA
HETATM    5  C6  UNL     1      25.275   2.872  52.531  1.00  0.00     0.195 C 
HETATM    6  N2  UNL     1      26.252   2.086  53.162  1.00  0.00    -0.399 NA
HETATM    7  C7  UNL     1      25.957   1.047  53.840  1.00  0.00     0.329 C 
HETATM    8  C8  UNL     1      25.981  -0.176  54.675  1.00  0.00     0.034 C 
HETATM    9  C9  UNL     1      24.812  -0.765  54.972  1.00  0.00     0.043 C 
HETATM   10  C10 UNL     1      23.496  -0.198  54.471  1.00  0.00     0.083 C 
HETATM   11  C11 UNL     1      22.785  -1.183  53.602  1.00  0.00     0.120 C 
HETATM   12  N3  UNL     1      21.564  -0.854  53.018  1.00  0.00    -0.415 N 
HETATM   13  C12 UNL     1      21.450   0.040  51.912  1.00  0.00     0.090 C 
HETATM   14  C13 UNL     1      19.975   0.306  51.705  1.00  0.00     0.033 C 
HETATM   15  C14 UNL     1      22.274   1.260  51.928  1.00  0.00     0.147 C 
HETATM   16  N4  UNL     1      22.140   2.216  50.861  1.00  0.00    -0.374 N 
HETATM   17  C15 UNL     1      21.757   3.585  51.176  1.00  0.00     0.004 C 
HETATM   18  C16 UNL     1      20.356   3.604  51.621  1.00  0.00     0.068 C 
HETATM   19  C17 UNL     1      22.728   4.456  51.008  1.00  0.00     0.026 C 
HETATM   20  C18 UNL     1      23.749   5.465  50.845  1.00  0.00     0.019 C 
HETATM   21  C19 UNL     1      24.973   5.144  50.425  1.00  0.00     0.090 C 
HETATM   22  N5  UNL     1      25.713   3.963  50.026  1.00  0.00    -0.351 N 
HETATM   23  H16 UNL     1      20.884  -1.630  52.916  1.00  0.00     0.153 HD
HETATM   24  H29 UNL     1      26.697   3.998  49.700  1.00  0.00     0.166 HD
ENDROOT
BRANCH   1  25
HETATM   25  C2  UNL     1      21.392   2.955  48.648  1.00  0.00     0.025 C 
HETATM   26  C1  UNL     1      21.979   3.432  47.355  1.00  0.00     0.007 C 
ENDBRANCH   1  25
BRANCH   9  27
HETATM   27  O1  UNL     1      24.901  -1.884  55.739  1.00  0.00    -0.365 OA
HETATM   28  H11 UNL     1      24.112  -2.503  55.894  1.00  0.00     0.217 HD
ENDBRANCH   9  27
TORSDOF 2
ENDMDL
MODEL 7
REMARK VINA RESULT:      -7.1      3.089      5.775
REMARK  2 active torsions:
REMARK  status: ('A' for Active; 'I' for Inactive)
REMARK    1  A    between atoms: C2_2  and  C3_3 
REMARK    2  A    between atoms: C9_11  and  O1_12 
ROOT
HETATM    1  C3  UNL     1      23.034   2.008  50.135  1.00  0.00     0.110 C 
HETATM    2  C4  UNL     1      21.696   2.641  49.749  1.00  0.00     0.048 C 
HETATM    3  C5  UNL     1      21.598   3.842  49.143  1.00  0.00     0.126 C 
HETATM    4  N1  UNL     1      22.025   5.049  48.557  1.00  0.00    -0.228 NA
HETATM    5  C6  UNL     1      22.322   6.103  49.195  1.00  0.00     0.195 C 
HETATM    6  N2  UNL     1      22.664   6.939  48.120  1.00  0.00    -0.399 NA
HETATM    7  C7  UNL     1      23.875   7.215  47.831  1.00  0.00     0.329 C 
HETATM    8  C8  UNL     1      25.123   7.734  47.225  1.00  0.00     0.034 C 
HETATM    9  C9  UNL     1      26.293   7.375  47.777  1.00  0.00     0.043 C 
HETATM   10  C10 UNL     1      26.344   6.465  48.991  1.00  0.00     0.083 C 
HETATM   11  C11 UNL     1      27.089   5.208  48.686  1.00  0.00     0.120 C 
HETATM   12  N3  UNL     1      27.235   4.222  49.660  1.00  0.00    -0.415 N 
HETATM   13  C12 UNL     1      26.167   3.364  50.058  1.00  0.00     0.090 C 
HETATM   14  C13 UNL     1      26.648   2.587  51.265  1.00  0.00     0.033 C 
HETATM   15  C14 UNL     1      24.834   3.964  50.234  1.00  0.00     0.147 C 
HETATM   16  N4  UNL     1      23.747   3.143  50.698  1.00  0.00    -0.374 N 
HETATM   17  C15 UNL     1      23.052   3.508  51.924  1.00  0.00     0.004 C 
HETATM   18  C16 UNL     1      23.950   3.292  53.068  1.00  0.00     0.068 C 
HETATM   19  C17 UNL     1      21.828   3.944  51.726  1.00  0.00     0.026 C 
HETATM   20  C18 UNL     1      20.476   4.434  51.582  1.00  0.00     0.019 C 
HETATM   21  C19 UNL     1      19.907   4.538  50.381  1.00  0.00     0.090 C 
HETATM   22  N5  UNL     1      20.241   4.290  48.993  1.00  0.00    -0.351 N 
HETATM   23  H16 UNL     1      28.126   3.692  49.641  1.00  0.00     0.153 HD
HETATM   24  H29 UNL     1      19.569   4.439  48.216  1.00  0.00     0.166 HD
ENDROOT
BRANCH   1  25
HETATM   25  C2  UNL     1      22.665   1.005  51.210  1.00  0.00     0.025 C 
HETATM   26  C1  UNL     1      21.350   0.365  50.888  1.00  0.00     0.007 C 
ENDBRANCH   1  25
BRANCH   9  27
HETATM   27  O1  UNL     1      27.401   7.883  47.175  1.00  0.00    -0.365 OA
HETATM   28  H11 UNL     1      27.618   8.874  47.178  1.00  0.00     0.217 HD
ENDBRANCH   9  27
TORSDOF 2
ENDMDL
MODEL 8
REMARK VINA RESULT:      -7.0      2.570      5.132
REMARK  2 active torsions:
REMARK  status: ('A' for Active; 'I' for Inactive)
REMARK    1  A    between atoms: C2_2  and  C3_3 
REMARK    2  A    between atoms: C9_11  and  O1_12 
ROOT
HETATM    1  C3  UNL     1      21.379   2.718  48.386  1.00  0.00     0.110 C 
HETATM    2  C4  UNL     1      22.848   3.083  48.607  1.00  0.00     0.048 C 
HETATM    3  C5  UNL     1      23.555   2.673  49.681  1.00  0.00     0.126 C 
HETATM    4  N1  UNL     1      23.819   2.022  50.901  1.00  0.00    -0.228 NA
HETATM    5  C6  UNL     1      23.548   2.487  52.048  1.00  0.00     0.195 C 
HETATM    6  N2  UNL     1      24.021   1.434  52.846  1.00  0.00    -0.399 NA
HETATM    7  C7  UNL     1      23.237   0.597  53.405  1.00  0.00     0.329 C 
HETATM    8  C8  UNL     1      22.645  -0.517  54.179  1.00  0.00     0.034 C 
HETATM    9  C9  UNL     1      21.308  -0.640  54.193  1.00  0.00     0.043 C 
HETATM   10  C10 UNL     1      20.421   0.335  53.441  1.00  0.00     0.083 C 
HETATM   11  C11 UNL     1      19.611  -0.370  52.403  1.00  0.00     0.120 C 
HETATM   12  N3  UNL     1      18.743   0.345  51.581  1.00  0.00    -0.415 N 
HETATM   13  C12 UNL     1      19.195   1.172  50.510  1.00  0.00     0.090 C 
HETATM   14  C13 UNL     1      17.993   1.936  49.998  1.00  0.00     0.033 C 
HETATM   15  C14 UNL     1      20.375   2.020  50.750  1.00  0.00     0.147 C 
HETATM   16  N4  UNL     1      20.823   2.915  49.715  1.00  0.00    -0.374 N 
HETATM   17  C15 UNL     1      20.894   4.343  49.990  1.00  0.00     0.004 C 
HETATM   18  C16 UNL     1      19.530   4.876  50.122  1.00  0.00     0.068 C 
HETATM   19  C17 UNL     1      22.123   4.804  50.069  1.00  0.00     0.026 C 
HETATM   20  C18 UNL     1      23.445   5.377  50.169  1.00  0.00     0.019 C 
HETATM   21  C19 UNL     1      24.535   4.625  50.012  1.00  0.00     0.090 C 
HETATM   22  N5  UNL     1      24.874   3.243  49.739  1.00  0.00    -0.351 N 
HETATM   23  H16 UNL     1      17.871  -0.143  51.305  1.00  0.00     0.153 HD
HETATM   24  H29 UNL     1      25.851   2.912  49.636  1.00  0.00     0.166 HD
ENDROOT
BRANCH   1  25
HETATM   25  C2  UNL     1      20.882   3.774  47.421  1.00  0.00     0.025 C 
HETATM   26  C1  UNL     1      21.907   4.025  46.358  1.00  0.00     0.007 C 
ENDBRANCH   1  25
BRANCH   9  27
HETATM   27  O1  UNL     1      20.826  -1.683  54.920  1.00  0.00    -0.365 OA
HETATM   28  H11 UNL     1      20.064  -2.268  54.594  1.00  0.00     0.217 HD
ENDBRANCH   9  27
TORSDOF 2
ENDMDL
MODEL 9
REMARK VINA RESULT:      -7.0      2.005      2.794
REMARK  2 active torsions:
REMARK  status: ('A' for Active; 'I' for Inactive)
REMARK    1  A    between atoms: C2_2  and  C3_3 
REMARK    2  A    between atoms: C9_11  and  O1_12 
ROOT
HETATM    1  C3  UNL     1      19.514   4.005  51.100  1.00  0.00     0.110 C 
HETATM    2  C4  UNL     1      19.253   2.760  51.949  1.00  0.00     0.048 C 
HETATM    3  C5  UNL     1      20.239   1.956  52.399  1.00  0.00     0.126 C 
HETATM    4  N1  UNL     1      21.550   1.485  52.605  1.00  0.00    -0.228 NA
HETATM    5  C6  UNL     1      22.204   0.772  51.787  1.00  0.00     0.195 C 
HETATM    6  N2  UNL     1      23.398   0.623  52.509  1.00  0.00    -0.399 NA
HETATM    7  C7  UNL     1      24.456   1.274  52.217  1.00  0.00     0.329 C 
HETATM    8  C8  UNL     1      25.823   1.841  52.166  1.00  0.00     0.034 C 
HETATM    9  C9  UNL     1      26.101   2.742  51.210  1.00  0.00     0.043 C 
HETATM   10  C10 UNL     1      25.049   3.170  50.203  1.00  0.00     0.083 C 
HETATM   11  C11 UNL     1      24.782   4.636  50.298  1.00  0.00     0.120 C 
HETATM   12  N3  UNL     1      23.830   5.233  49.474  1.00  0.00    -0.415 N 
HETATM   13  C12 UNL     1      22.426   5.075  49.672  1.00  0.00     0.090 C 
HETATM   14  C13 UNL     1      21.736   5.686  48.472  1.00  0.00     0.033 C 
HETATM   15  C14 UNL     1      21.929   3.733  50.019  1.00  0.00     0.147 C 
HETATM   16  N4  UNL     1      20.513   3.520  50.162  1.00  0.00    -0.374 N 
HETATM   17  C15 UNL     1      19.852   2.534  49.320  1.00  0.00     0.004 C 
HETATM   18  C16 UNL     1      19.827   3.023  47.934  1.00  0.00     0.068 C 
HETATM   19  C17 UNL     1      19.456   1.463  49.973  1.00  0.00     0.026 C 
HETATM   20  C18 UNL     1      18.997   0.260  50.628  1.00  0.00     0.019 C 
HETATM   21  C19 UNL     1      19.173   0.078  51.936  1.00  0.00     0.090 C 
HETATM   22  N5  UNL     1      19.749   0.780  53.065  1.00  0.00    -0.351 N 
HETATM   23  H16 UNL     1      24.037   6.202  49.169  1.00  0.00     0.153 HD
HETATM   24  H29 UNL     1      19.728   0.406  54.032  1.00  0.00     0.166 HD
ENDROOT
BRANCH   1  25
HETATM   25  C2  UNL     1      18.190   4.259  50.409  1.00  0.00     0.025 C 
HETATM   26  C1  UNL     1      17.065   4.151  51.393  1.00  0.00     0.007 C 
ENDBRANCH   1  25
BRANCH   9  27
HETATM   27  O1  UNL     1      27.371   3.226  51.217  1.00  0.00    -0.365 OA
HETATM   28  H11 UNL     1      28.057   2.947  51.910  1.00  0.00     0.217 HD
ENDBRANCH   9  27
TORSDOF 2
ENDMDL
