MODEL 1
REMARK VINA RESULT:      -7.8      0.000      0.000
REMARK  3 active torsions:
REMARK  status: ('A' for Active; 'I' for Inactive)
REMARK    1  A    between atoms: C4_6  and  C5_7 
REMARK    2  A    between atoms: C8_11  and  N3_12 
REMARK    3  A    between atoms: N3_12  and  C9_13 
ROOT
HETATM    1  N1  UNL     1      21.959  -1.863  55.149  1.00  0.00    -0.191 NA
HETATM    2  C1  UNL     1      22.234  -1.094  54.312  1.00  0.00     0.103 C 
HETATM    3  C2  UNL     1      22.590  -0.153  53.286  1.00  0.00     0.088 A 
HETATM    4  C3  UNL     1      21.538   0.304  52.521  1.00  0.00     0.143 A 
HETATM    5  N2  UNL     1      21.791   1.190  51.540  1.00  0.00    -0.250 NA
HETATM    6  C4  UNL     1      23.038   1.627  51.303  1.00  0.00     0.114 A 
HETATM    7  C7  UNL     1      24.081   1.162  52.076  1.00  0.00     0.072 A 
HETATM    8  C8  UNL     1      23.913   0.240  53.117  1.00  0.00     0.057 A 
ENDROOT
BRANCH   8   9
HETATM    9  N3  UNL     1      24.954  -0.255  53.928  1.00  0.00    -0.355 N 
HETATM   10  H3  UNL     1      24.430  -0.595  54.747  1.00  0.00     0.166 HD
BRANCH   9  11
HETATM   11  C9  UNL     1      26.342  -0.322  53.777  1.00  0.00     0.034 A 
HETATM   12  C10 UNL     1      26.965  -1.388  53.186  1.00  0.00     0.032 A 
HETATM   13  C11 UNL     1      28.329  -1.457  53.038  1.00  0.00     0.046 A 
HETATM   14  C12 UNL     1      29.105  -0.399  53.510  1.00  0.00     0.138 A 
HETATM   15  F2  UNL     1      30.454  -0.428  53.383  1.00  0.00    -0.204 F 
HETATM   16  C13 UNL     1      28.458   0.676  54.107  1.00  0.00     0.074 A 
HETATM   17 CL1  UNL     1      29.442   1.980  54.687  1.00  0.00    -0.081 Cl
HETATM   18  C14 UNL     1      27.071   0.741  54.255  1.00  0.00     0.056 A 
ENDBRANCH   9  11
ENDBRANCH   8   9
BRANCH   6  19
HETATM   19  C5  UNL     1      23.344   2.573  50.266  1.00  0.00    -0.011 C 
HETATM   20  C6  UNL     1      23.618   3.361  49.384  1.00  0.00     0.113 C 
HETATM   21  F1  UNL     1      23.937   4.217  48.403  1.00  0.00    -0.143 F 
ENDBRANCH   6  19
TORSDOF 3
ENDMDL
MODEL 2
REMARK VINA RESULT:      -7.8      2.539      3.272
REMARK  3 active torsions:
REMARK  status: ('A' for Active; 'I' for Inactive)
REMARK    1  A    between atoms: C4_6  and  C5_7 
REMARK    2  A    between atoms: C8_11  and  N3_12 
REMARK    3  A    between atoms: N3_12  and  C9_13 
ROOT
HETATM    1  N1  UNL     1      22.605   0.291  52.592  1.00  0.00    -0.191 NA
HETATM    2  C1  UNL     1      23.348   0.994  52.025  1.00  0.00     0.103 C 
HETATM    3  C2  UNL     1      24.276   1.848  51.337  1.00  0.00     0.088 A 
HETATM    4  C3  UNL     1      23.767   2.492  50.229  1.00  0.00     0.143 A 
HETATM    5  N2  UNL     1      24.575   3.313  49.533  1.00  0.00    -0.250 NA
HETATM    6  C4  UNL     1      25.852   3.508  49.901  1.00  0.00     0.114 A 
HETATM    7  C7  UNL     1      26.348   2.857  51.011  1.00  0.00     0.072 A 
HETATM    8  C8  UNL     1      25.582   1.986  51.795  1.00  0.00     0.057 A 
ENDROOT
BRANCH   8   9
HETATM    9  N3  UNL     1      26.054   1.306  52.936  1.00  0.00    -0.355 N 
HETATM   10  H3  UNL     1      25.244   1.382  53.568  1.00  0.00     0.166 HD
BRANCH   9  11
HETATM   11  C9  UNL     1      27.259   0.668  53.246  1.00  0.00     0.034 A 
HETATM   12  C10 UNL     1      28.340   1.343  53.742  1.00  0.00     0.032 A 
HETATM   13  C11 UNL     1      29.526   0.719  54.046  1.00  0.00     0.046 A 
HETATM   14  C12 UNL     1      29.626  -0.657  53.837  1.00  0.00     0.138 A 
HETATM   15  F2  UNL     1      30.778  -1.312  54.125  1.00  0.00    -0.204 F 
HETATM   16  C13 UNL     1      28.519  -1.329  53.334  1.00  0.00     0.074 A 
HETATM   17 CL1  UNL     1      28.666  -3.038  53.083  1.00  0.00    -0.081 Cl
HETATM   18  C14 UNL     1      27.317  -0.688  53.027  1.00  0.00     0.056 A 
ENDBRANCH   9  11
ENDBRANCH   8   9
BRANCH   6  19
HETATM   19  C5  UNL     1      26.742   4.377  49.181  1.00  0.00    -0.011 C 
HETATM   20  C6  UNL     1      27.508   5.104  48.583  1.00  0.00     0.113 C 
HETATM   21  F1  UNL     1      28.373   5.894  47.931  1.00  0.00    -0.143 F 
ENDBRANCH   6  19
TORSDOF 3
ENDMDL
MODEL 3
REMARK VINA RESULT:      -7.4      2.379      5.938
REMARK  3 active torsions:
REMARK  status: ('A' for Active; 'I' for Inactive)
REMARK    1  A    between atoms: C4_6  and  C5_7 
REMARK    2  A    between atoms: C8_11  and  N3_12 
REMARK    3  A    between atoms: N3_12  and  C9_13 
ROOT
HETATM    1  N1  UNL     1      21.497   0.768  53.138  1.00  0.00    -0.191 NA
HETATM    2  C1  UNL     1      22.647   0.557  53.185  1.00  0.00     0.103 C 
HETATM    3  C2  UNL     1      24.062   0.313  53.231  1.00  0.00     0.088 A 
HETATM    4  C3  UNL     1      24.479  -0.515  54.252  1.00  0.00     0.143 A 
HETATM    5  N2  UNL     1      25.791  -0.794  54.360  1.00  0.00    -0.250 NA
HETATM    6  C4  UNL     1      26.684  -0.282  53.496  1.00  0.00     0.114 A 
HETATM    7  C7  UNL     1      26.252   0.544  52.480  1.00  0.00     0.072 A 
HETATM    8  C8  UNL     1      24.909   0.889  52.291  1.00  0.00     0.057 A 
ENDROOT
BRANCH   8   9
HETATM    9  N3  UNL     1      24.431   1.728  51.263  1.00  0.00    -0.355 N 
HETATM   10  H3  UNL     1      23.714   1.130  50.829  1.00  0.00     0.166 HD
BRANCH   9  11
HETATM   11  C9  UNL     1      24.757   3.023  50.849  1.00  0.00     0.034 A 
HETATM   12  C10 UNL     1      24.008   4.114  51.198  1.00  0.00     0.032 A 
HETATM   13  C11 UNL     1      24.325   5.388  50.792  1.00  0.00     0.046 A 
HETATM   14  C12 UNL     1      25.453   5.571  49.991  1.00  0.00     0.138 A 
HETATM   15  F2  UNL     1      25.801   6.811  49.569  1.00  0.00    -0.204 F 
HETATM   16  C13 UNL     1      26.203   4.453  49.646  1.00  0.00     0.074 A 
HETATM   17 CL1  UNL     1      27.601   4.703  48.652  1.00  0.00    -0.081 Cl
HETATM   18  C14 UNL     1      25.876   3.161  50.062  1.00  0.00     0.056 A 
ENDBRANCH   9  11
ENDBRANCH   8   9
BRANCH   6  19
HETATM   19  C5  UNL     1      28.091  -0.560  53.582  1.00  0.00    -0.011 C 
HETATM   20  C6  UNL     1      29.276  -0.810  53.665  1.00  0.00     0.113 C 
HETATM   21  F1  UNL     1      30.580  -1.107  53.766  1.00  0.00    -0.143 F 
ENDBRANCH   6  19
TORSDOF 3
ENDMDL
MODEL 4
REMARK VINA RESULT:      -7.3      2.974      4.373
REMARK  3 active torsions:
REMARK  status: ('A' for Active; 'I' for Inactive)
REMARK    1  A    between atoms: C4_6  and  C5_7 
REMARK    2  A    between atoms: C8_11  and  N3_12 
REMARK    3  A    between atoms: N3_12  and  C9_13 
ROOT
HETATM    1  N1  UNL     1      24.837   5.116  50.387  1.00  0.00    -0.191 NA
HETATM    2  C1  UNL     1      24.348   4.207  50.936  1.00  0.00     0.103 C 
HETATM    3  C2  UNL     1      23.765   3.084  51.618  1.00  0.00     0.088 A 
HETATM    4  C3  UNL     1      22.391   3.117  51.728  1.00  0.00     0.143 A 
HETATM    5  N2  UNL     1      21.770   2.099  52.352  1.00  0.00    -0.250 NA
HETATM    6  C4  UNL     1      22.465   1.068  52.859  1.00  0.00     0.114 A 
HETATM    7  C7  UNL     1      23.838   1.048  52.742  1.00  0.00     0.072 A 
HETATM    8  C8  UNL     1      24.569   2.062  52.111  1.00  0.00     0.057 A 
ENDROOT
BRANCH   8   9
HETATM    9  N3  UNL     1      25.971   2.074  51.971  1.00  0.00    -0.355 N 
HETATM   10  H3  UNL     1      26.101   2.834  51.288  1.00  0.00     0.166 HD
BRANCH   9  11
HETATM   11  C9  UNL     1      27.002   1.322  52.541  1.00  0.00     0.034 A 
HETATM   12  C10 UNL     1      28.051   1.898  53.203  1.00  0.00     0.032 A 
HETATM   13  C11 UNL     1      29.066   1.161  53.764  1.00  0.00     0.046 A 
HETATM   14  C12 UNL     1      29.021  -0.229  53.650  1.00  0.00     0.138 A 
HETATM   15  F2  UNL     1      30.002  -0.993  54.190  1.00  0.00    -0.204 F 
HETATM   16  C13 UNL     1      27.949  -0.799  52.975  1.00  0.00     0.074 A 
HETATM   17 CL1  UNL     1      27.912  -2.528  52.846  1.00  0.00    -0.081 Cl
HETATM   18  C14 UNL     1      26.920  -0.045  52.408  1.00  0.00     0.056 A 
ENDBRANCH   9  11
ENDBRANCH   8   9
BRANCH   6  19
HETATM   19  C5  UNL     1      21.834  -0.035  53.531  1.00  0.00    -0.011 C 
HETATM   20  C6  UNL     1      21.319  -0.975  54.102  1.00  0.00     0.113 C 
HETATM   21  F1  UNL     1      20.771  -2.018  54.742  1.00  0.00    -0.143 F 
ENDBRANCH   6  19
TORSDOF 3
ENDMDL
MODEL 5
REMARK VINA RESULT:      -7.2      3.518      4.891
REMARK  3 active torsions:
REMARK  status: ('A' for Active; 'I' for Inactive)
REMARK    1  A    between atoms: C4_6  and  C5_7 
REMARK    2  A    between atoms: C8_11  and  N3_12 
REMARK    3  A    between atoms: N3_12  and  C9_13 
ROOT
HETATM    1  N1  UNL     1      20.087   3.470  52.548  1.00  0.00    -0.191 NA
HETATM    2  C1  UNL     1      21.118   3.601  52.011  1.00  0.00     0.103 C 
HETATM    3  C2  UNL     1      22.384   3.744  51.346  1.00  0.00     0.088 A 
HETATM    4  C3  UNL     1      22.790   5.045  51.134  1.00  0.00     0.143 A 
HETATM    5  N2  UNL     1      23.967   5.261  50.519  1.00  0.00    -0.250 NA
HETATM    6  C4  UNL     1      24.738   4.238  50.116  1.00  0.00     0.114 A 
HETATM    7  C7  UNL     1      24.320   2.942  50.334  1.00  0.00     0.072 A 
HETATM    8  C8  UNL     1      23.112   2.622  50.966  1.00  0.00     0.057 A 
ENDROOT
BRANCH   8   9
HETATM    9  N3  UNL     1      22.654   1.311  51.208  1.00  0.00    -0.355 N 
HETATM   10  H3  UNL     1      22.249   1.064  50.294  1.00  0.00     0.166 HD
BRANCH   9  11
HETATM   11  C9  UNL     1      22.683   0.473  52.327  1.00  0.00     0.034 A 
HETATM   12  C10 UNL     1      21.576  -0.197  52.770  1.00  0.00     0.032 A 
HETATM   13  C11 UNL     1      21.601  -1.019  53.870  1.00  0.00     0.046 A 
HETATM   14  C12 UNL     1      22.805  -1.173  54.560  1.00  0.00     0.138 A 
HETATM   15  F2  UNL     1      22.872  -1.976  55.650  1.00  0.00    -0.204 F 
HETATM   16  C13 UNL     1      23.920  -0.486  54.097  1.00  0.00     0.074 A 
HETATM   17 CL1  UNL     1      25.405  -0.692  54.968  1.00  0.00    -0.081 Cl
HETATM   18  C14 UNL     1      23.888   0.348  52.978  1.00  0.00     0.056 A 
ENDBRANCH   9  11
ENDBRANCH   8   9
BRANCH   6  19
HETATM   19  C5  UNL     1      26.000   4.432  49.457  1.00  0.00    -0.011 C 
HETATM   20  C6  UNL     1      27.072   4.579  48.907  1.00  0.00     0.113 C 
HETATM   21  F1  UNL     1      28.261   4.718  48.302  1.00  0.00    -0.143 F 
ENDBRANCH   6  19
TORSDOF 3
ENDMDL
MODEL 6
REMARK VINA RESULT:      -7.1      3.834      7.007
REMARK  3 active torsions:
REMARK  status: ('A' for Active; 'I' for Inactive)
REMARK    1  A    between atoms: C4_6  and  C5_7 
REMARK    2  A    between atoms: C8_11  and  N3_12 
REMARK    3  A    between atoms: N3_12  and  C9_13 
ROOT
HETATM    1  N1  UNL     1      23.566   4.231  53.004  1.00  0.00    -0.191 NA
HETATM    2  C1  UNL     1      24.298   3.319  53.031  1.00  0.00     0.103 C 
HETATM    3  C2  UNL     1      25.186   2.190  53.052  1.00  0.00     0.088 A 
HETATM    4  C3  UNL     1      26.405   2.415  53.656  1.00  0.00     0.143 A 
HETATM    5  N2  UNL     1      27.291   1.404  53.716  1.00  0.00    -0.250 NA
HETATM    6  C4  UNL     1      27.004   0.197  53.203  1.00  0.00     0.114 A 
HETATM    7  C7  UNL     1      25.781  -0.014  52.601  1.00  0.00     0.072 A 
HETATM    8  C8  UNL     1      24.799   0.977  52.492  1.00  0.00     0.057 A 
ENDROOT
BRANCH   8   9
HETATM    9  N3  UNL     1      23.538   0.796  51.887  1.00  0.00    -0.355 N 
HETATM   10  H3  UNL     1      23.743   1.052  50.910  1.00  0.00     0.166 HD
BRANCH   9  11
HETATM   11  C9  UNL     1      22.290   0.390  52.367  1.00  0.00     0.034 A 
HETATM   12  C10 UNL     1      22.117  -0.104  53.631  1.00  0.00     0.032 A 
HETATM   13  C11 UNL     1      20.891  -0.506  54.106  1.00  0.00     0.046 A 
HETATM   14  C12 UNL     1      19.785  -0.406  53.262  1.00  0.00     0.138 A 
HETATM   15  F2  UNL     1      18.558  -0.791  53.691  1.00  0.00    -0.204 F 
HETATM   16  C13 UNL     1      19.977   0.097  51.981  1.00  0.00     0.074 A 
HETATM   17 CL1  UNL     1      18.589   0.213  50.950  1.00  0.00    -0.081 Cl
HETATM   18  C14 UNL     1      21.225   0.505  51.505  1.00  0.00     0.056 A 
ENDBRANCH   9  11
ENDBRANCH   8   9
BRANCH   6  19
HETATM   19  C5  UNL     1      27.926  -0.904  53.251  1.00  0.00    -0.011 C 
HETATM   20  C6  UNL     1      28.712  -1.827  53.308  1.00  0.00     0.113 C 
HETATM   21  F1  UNL     1      29.584  -2.842  53.394  1.00  0.00    -0.143 F 
ENDBRANCH   6  19
TORSDOF 3
ENDMDL
MODEL 7
REMARK VINA RESULT:      -7.1      2.451      2.976
REMARK  3 active torsions:
REMARK  status: ('A' for Active; 'I' for Inactive)
REMARK    1  A    between atoms: C4_6  and  C5_7 
REMARK    2  A    between atoms: C8_11  and  N3_12 
REMARK    3  A    between atoms: N3_12  and  C9_13 
ROOT
HETATM    1  N1  UNL     1      25.222  -1.273  56.121  1.00  0.00    -0.191 NA
HETATM    2  C1  UNL     1      24.320  -1.044  55.413  1.00  0.00     0.103 C 
HETATM    3  C2  UNL     1      23.224  -0.757  54.530  1.00  0.00     0.088 A 
HETATM    4  C3  UNL     1      22.018  -1.317  54.893  1.00  0.00     0.143 A 
HETATM    5  N2  UNL     1      20.942  -1.092  54.116  1.00  0.00    -0.250 NA
HETATM    6  C4  UNL     1      21.031  -0.338  53.008  1.00  0.00     0.114 A 
HETATM    7  C7  UNL     1      22.243   0.215  52.657  1.00  0.00     0.072 A 
HETATM    8  C8  UNL     1      23.414   0.035  53.403  1.00  0.00     0.057 A 
ENDROOT
BRANCH   8   9
HETATM    9  N3  UNL     1      24.669   0.588  53.075  1.00  0.00    -0.355 N 
HETATM   10  H3  UNL     1      24.400   1.527  52.750  1.00  0.00     0.166 HD
BRANCH   9  11
HETATM   11  C9  UNL     1      25.979   0.102  53.132  1.00  0.00     0.034 A 
HETATM   12  C10 UNL     1      26.325  -1.130  52.646  1.00  0.00     0.032 A 
HETATM   13  C11 UNL     1      27.611  -1.611  52.701  1.00  0.00     0.046 A 
HETATM   14  C12 UNL     1      28.598  -0.810  53.277  1.00  0.00     0.138 A 
HETATM   15  F2  UNL     1      29.878  -1.247  53.351  1.00  0.00    -0.204 F 
HETATM   16  C13 UNL     1      28.230   0.438  53.766  1.00  0.00     0.074 A 
HETATM   17 CL1  UNL     1      29.472   1.416  54.477  1.00  0.00    -0.081 Cl
HETATM   18  C14 UNL     1      26.921   0.921  53.706  1.00  0.00     0.056 A 
ENDBRANCH   9  11
ENDBRANCH   8   9
BRANCH   6  19
HETATM   19  C5  UNL     1      19.903  -0.077  52.157  1.00  0.00    -0.011 C 
HETATM   20  C6  UNL     1      18.961   0.139  51.422  1.00  0.00     0.113 C 
HETATM   21  F1  UNL     1      17.933   0.367  50.593  1.00  0.00    -0.143 F 
ENDBRANCH   6  19
TORSDOF 3
ENDMDL
MODEL 8
REMARK VINA RESULT:      -7.1      3.280      5.516
REMARK  3 active torsions:
REMARK  status: ('A' for Active; 'I' for Inactive)
REMARK    1  A    between atoms: C4_6  and  C5_7 
REMARK    2  A    between atoms: C8_11  and  N3_12 
REMARK    3  A    between atoms: N3_12  and  C9_13 
ROOT
HETATM    1  N1  UNL     1      26.243  -0.627  54.979  1.00  0.00    -0.191 NA
HETATM    2  C1  UNL     1      25.108  -0.660  54.698  1.00  0.00     0.103 C 
HETATM    3  C2  UNL     1      23.718  -0.693  54.334  1.00  0.00     0.088 A 
HETATM    4  C3  UNL     1      22.905  -1.395  55.198  1.00  0.00     0.143 A 
HETATM    5  N2  UNL     1      21.589  -1.470  54.927  1.00  0.00    -0.250 NA
HETATM    6  C4  UNL     1      21.068  -0.877  53.841  1.00  0.00     0.114 A 
HETATM    7  C7  UNL     1      21.894  -0.178  52.985  1.00  0.00     0.072 A 
HETATM    8  C8  UNL     1      23.273  -0.047  53.186  1.00  0.00     0.057 A 
ENDROOT
BRANCH   8   9
HETATM    9  N3  UNL     1      24.146   0.661  52.335  1.00  0.00    -0.355 N 
HETATM   10  H3  UNL     1      24.779  -0.089  52.024  1.00  0.00     0.166 HD
BRANCH   9  11
HETATM   11  C9  UNL     1      24.231   2.000  51.944  1.00  0.00     0.034 A 
HETATM   12  C10 UNL     1      23.414   2.969  52.460  1.00  0.00     0.032 A 
HETATM   13  C11 UNL     1      23.495   4.286  52.077  1.00  0.00     0.046 A 
HETATM   14  C12 UNL     1      24.447   4.644  51.121  1.00  0.00     0.138 A 
HETATM   15  F2  UNL     1      24.559   5.932  50.715  1.00  0.00    -0.204 F 
HETATM   16  C13 UNL     1      25.269   3.649  50.606  1.00  0.00     0.074 A 
HETATM   17 CL1  UNL     1      26.444   4.116  49.421  1.00  0.00    -0.081 Cl
HETATM   18  C14 UNL     1      25.182   2.312  51.001  1.00  0.00     0.056 A 
ENDBRANCH   9  11
ENDBRANCH   8   9
BRANCH   6  19
HETATM   19  C5  UNL     1      19.669  -0.936  53.521  1.00  0.00    -0.011 C 
HETATM   20  C6  UNL     1      18.487  -1.006  53.251  1.00  0.00     0.113 C 
HETATM   21  F1  UNL     1      17.183  -1.106  52.958  1.00  0.00    -0.143 F 
ENDBRANCH   6  19
TORSDOF 3
ENDMDL
MODEL 9
REMARK VINA RESULT:      -7.0      3.629      6.688
REMARK  3 active torsions:
REMARK  status: ('A' for Active; 'I' for Inactive)
REMARK    1  A    between atoms: C4_6  and  C5_7 
REMARK    2  A    between atoms: C8_11  and  N3_12 
REMARK    3  A    between atoms: N3_12  and  C9_13 
ROOT
HETATM    1  N1  UNL     1      28.667   2.476  53.090  1.00  0.00    -0.191 NA
HETATM    2  C1  UNL     1      27.635   1.940  53.210  1.00  0.00     0.103 C 
HETATM    3  C2  UNL     1      26.359   1.294  53.346  1.00  0.00     0.088 A 
HETATM    4  C3  UNL     1      26.392   0.054  53.947  1.00  0.00     0.143 A 
HETATM    5  N2  UNL     1      25.236  -0.614  54.112  1.00  0.00    -0.250 NA
HETATM    6  C4  UNL     1      24.068  -0.092  53.704  1.00  0.00     0.114 A 
HETATM    7  C7  UNL     1      24.049   1.149  53.103  1.00  0.00     0.072 A 
HETATM    8  C8  UNL     1      25.201   1.915  52.890  1.00  0.00     0.057 A 
ENDROOT
BRANCH   8   9
HETATM    9  N3  UNL     1      25.219   3.188  52.283  1.00  0.00    -0.355 N 
HETATM   10  H3  UNL     1      25.969   3.655  52.812  1.00  0.00     0.166 HD
BRANCH   9  11
HETATM   11  C9  UNL     1      24.482   3.770  51.248  1.00  0.00     0.034 A 
HETATM   12  C10 UNL     1      24.449   3.246  49.985  1.00  0.00     0.032 A 
HETATM   13  C11 UNL     1      23.726   3.817  48.966  1.00  0.00     0.046 A 
HETATM   14  C12 UNL     1      22.999   4.978  49.234  1.00  0.00     0.138 A 
HETATM   15  F2  UNL     1      22.273   5.573  48.257  1.00  0.00    -0.204 F 
HETATM   16  C13 UNL     1      23.043   5.498  50.522  1.00  0.00     0.074 A 
HETATM   17 CL1  UNL     1      22.132   6.940  50.833  1.00  0.00    -0.081 Cl
HETATM   18  C14 UNL     1      23.779   4.912  51.554  1.00  0.00     0.056 A 
ENDBRANCH   9  11
ENDBRANCH   8   9
BRANCH   6  19
HETATM   19  C5  UNL     1      22.815  -0.777  53.865  1.00  0.00    -0.011 C 
HETATM   20  C6  UNL     1      21.763  -1.364  54.017  1.00  0.00     0.113 C 
HETATM   21  F1  UNL     1      20.608  -2.017  54.208  1.00  0.00    -0.143 F 
ENDBRANCH   6  19
TORSDOF 3
ENDMDL
