MODEL 1
REMARK VINA RESULT:      -7.3      0.000      0.000
REMARK  10 active torsions:
REMARK  status: ('A' for Active; 'I' for Inactive)
REMARK    1  A    between atoms: C2_2  and  C3_4 
REMARK    2  A    between atoms: C4_5  and  C5_6 
REMARK    3  A    between atoms: C5_6  and  C6_7 
REMARK    4  A    between atoms: C6_7  and  N1_8 
REMARK    5  A    between atoms: C6_7  and  N2_9 
REMARK    6  A    between atoms: N2_9  and  C7_10 
REMARK    7  A    between atoms: C7_10  and  C17_22 
REMARK    8  A    between atoms: N3_12  and  C9_13 
REMARK    9  A    between atoms: C10_14  and  C11_15 
REMARK   10  A    between atoms: C17_22  and  C18_23 
ROOT
HETATM    1  C7  UNL     1      26.473   0.155  54.317  1.00  0.00     0.151 A 
HETATM    2  C8  UNL     1      27.850   0.238  54.734  1.00  0.00     0.068 A 
HETATM    3  N3  UNL     1      27.728   1.027  53.838  1.00  0.00    -0.263 N 
ENDROOT
BRANCH   1   4
HETATM    4  N2  UNL     1      25.835  -1.099  54.665  1.00  0.00    -0.276 N 
HETATM    5  H12 UNL     1      26.567  -1.728  55.058  1.00  0.00     0.125 HD
BRANCH   4   6
HETATM    6  C6  UNL     1      24.873  -0.808  55.653  1.00  0.00     0.295 C 
BRANCH   6   7
HETATM    7  C5  UNL     1      23.497  -1.298  55.244  1.00  0.00     0.078 C 
BRANCH   7   8
HETATM    8  C4  UNL     1      22.869  -0.503  54.205  1.00  0.00    -0.024 C 
HETATM    9  C3  UNL     1      22.768  -0.704  52.892  1.00  0.00     0.005 C 
BRANCH   9  10
HETATM   10  C2  UNL     1      22.059   0.283  52.014  1.00  0.00     0.188 C 
HETATM   11  C1  UNL     1      22.010   1.605  52.755  1.00  0.00     0.049 C 
HETATM   12  F1  UNL     1      20.835  -0.157  51.654  1.00  0.00    -0.246 F 
ENDBRANCH   9  10
ENDBRANCH   7   8
ENDBRANCH   6   7
BRANCH   6  13
HETATM   13  N1  UNL     1      25.227  -1.260  56.973  1.00  0.00     0.096 N 
HETATM   14  H10 UNL     1      24.461  -1.976  57.237  1.00  0.00     0.314 HD
HETATM   15  H11 UNL     1      25.076  -0.533  57.723  1.00  0.00     0.314 HD
ENDBRANCH   6  13
ENDBRANCH   4   6
ENDBRANCH   1   4
BRANCH   1  16
HETATM   16  C17 UNL     1      26.322   0.605  52.921  1.00  0.00     0.034 A 
HETATM   17  C10 UNL     1      26.151   1.209  51.542  1.00  0.00     0.029 A 
HETATM   18  C9  UNL     1      26.094   1.258  52.823  1.00  0.00     0.050 A 
HETATM   19  C18 UNL     1      26.605  -0.121  51.953  1.00  0.00     0.042 A 
BRANCH  17  20
HETATM   20  C11 UNL     1      25.795   2.568  50.879  1.00  0.00    -0.046 A 
HETATM   21  C12 UNL     1      24.602   3.333  51.069  1.00  0.00     0.009 A 
HETATM   22  C13 UNL     1      24.427   4.523  50.417  1.00  0.00     0.019 A 
HETATM   23  C14 UNL     1      25.400   4.993  49.569  1.00  0.00     0.011 A 
HETATM   24 BR1  UNL     1      24.905   6.677  48.815  1.00  0.00    -0.051 Br
HETATM   25  C15 UNL     1      26.571   4.339  49.318  1.00  0.00     0.019 A 
HETATM   26  C16 UNL     1      26.713   3.156  49.985  1.00  0.00     0.009 A 
ENDBRANCH  17  20
ENDBRANCH   1  16
TORSDOF 10
ENDMDL
MODEL 2
REMARK VINA RESULT:      -7.2      3.876      6.323
REMARK  10 active torsions:
REMARK  status: ('A' for Active; 'I' for Inactive)
REMARK    1  A    between atoms: C2_2  and  C3_4 
REMARK    2  A    between atoms: C4_5  and  C5_6 
REMARK    3  A    between atoms: C5_6  and  C6_7 
REMARK    4  A    between atoms: C6_7  and  N1_8 
REMARK    5  A    between atoms: C6_7  and  N2_9 
REMARK    6  A    between atoms: N2_9  and  C7_10 
REMARK    7  A    between atoms: C7_10  and  C17_22 
REMARK    8  A    between atoms: N3_12  and  C9_13 
REMARK    9  A    between atoms: C10_14  and  C11_15 
REMARK   10  A    between atoms: C17_22  and  C18_23 
ROOT
HETATM    1  C7  UNL     1      21.984   1.430  51.135  1.00  0.00     0.151 A 
HETATM    2  C8  UNL     1      21.205   0.340  51.664  1.00  0.00     0.068 A 
HETATM    3  N3  UNL     1      21.818   0.789  52.593  1.00  0.00    -0.263 N 
ENDROOT
BRANCH   1   4
HETATM    4  N2  UNL     1      22.219   1.338  49.707  1.00  0.00    -0.276 N 
HETATM    5  H12 UNL     1      21.809   0.439  49.377  1.00  0.00     0.125 HD
BRANCH   4   6
HETATM    6  C6  UNL     1      21.543   2.421  49.112  1.00  0.00     0.295 C 
BRANCH   6   7
HETATM    7  C5  UNL     1      22.516   3.399  48.481  1.00  0.00     0.078 C 
BRANCH   7   8
HETATM    8  C4  UNL     1      23.879   3.275  48.965  1.00  0.00    -0.024 C 
HETATM    9  C3  UNL     1      24.698   4.174  49.510  1.00  0.00     0.005 C 
BRANCH   9  10
HETATM   10  C2  UNL     1      26.085   3.795  49.933  1.00  0.00     0.188 C 
HETATM   11  C1  UNL     1      27.058   4.496  49.005  1.00  0.00     0.049 C 
HETATM   12  F1  UNL     1      26.255   2.456  49.948  1.00  0.00    -0.246 F 
ENDBRANCH   9  10
ENDBRANCH   7   8
ENDBRANCH   6   7
BRANCH   6  13
HETATM   13  N1  UNL     1      20.507   2.036  48.190  1.00  0.00     0.096 N 
HETATM   14  H10 UNL     1      20.746   2.552  47.270  1.00  0.00     0.314 HD
HETATM   15  H11 UNL     1      19.567   2.462  48.409  1.00  0.00     0.314 HD
ENDBRANCH   6  13
ENDBRANCH   4   6
ENDBRANCH   1   4
BRANCH   1  16
HETATM   16  C17 UNL     1      23.165   1.687  51.981  1.00  0.00     0.034 A 
HETATM   17  C10 UNL     1      24.445   1.834  52.779  1.00  0.00     0.029 A 
HETATM   18  C9  UNL     1      23.664   1.198  51.982  1.00  0.00     0.050 A 
HETATM   19  C18 UNL     1      23.292   2.727  52.648  1.00  0.00     0.042 A 
BRANCH  17  20
HETATM   20  C11 UNL     1      25.798   1.102  52.991  1.00  0.00    -0.046 A 
HETATM   21  C12 UNL     1      26.045  -0.303  52.885  1.00  0.00     0.009 A 
HETATM   22  C13 UNL     1      27.298  -0.806  53.098  1.00  0.00     0.019 A 
HETATM   23  C14 UNL     1      28.335   0.036  53.419  1.00  0.00     0.011 A 
HETATM   24 BR1  UNL     1      29.968  -0.930  53.639  1.00  0.00    -0.051 Br
HETATM   25  C15 UNL     1      28.204   1.387  53.548  1.00  0.00     0.019 A 
HETATM   26  C16 UNL     1      26.940   1.858  53.329  1.00  0.00     0.009 A 
ENDBRANCH  17  20
ENDBRANCH   1  16
TORSDOF 10
ENDMDL
MODEL 3
REMARK VINA RESULT:      -7.1      3.763      5.627
REMARK  10 active torsions:
REMARK  status: ('A' for Active; 'I' for Inactive)
REMARK    1  A    between atoms: C2_2  and  C3_4 
REMARK    2  A    between atoms: C4_5  and  C5_6 
REMARK    3  A    between atoms: C5_6  and  C6_7 
REMARK    4  A    between atoms: C6_7  and  N1_8 
REMARK    5  A    between atoms: C6_7  and  N2_9 
REMARK    6  A    between atoms: N2_9  and  C7_10 
REMARK    7  A    between atoms: C7_10  and  C17_22 
REMARK    8  A    between atoms: N3_12  and  C9_13 
REMARK    9  A    between atoms: C10_14  and  C11_15 
REMARK   10  A    between atoms: C17_22  and  C18_23 
ROOT
HETATM    1  C7  UNL     1      23.104   2.936  49.983  1.00  0.00     0.151 A 
HETATM    2  C8  UNL     1      23.628   4.127  49.364  1.00  0.00     0.068 A 
HETATM    3  N3  UNL     1      24.523   3.677  50.025  1.00  0.00    -0.263 N 
ENDROOT
BRANCH   1   4
HETATM    4  N2  UNL     1      21.658   2.918  50.078  1.00  0.00    -0.276 N 
HETATM    5  H12 UNL     1      21.292   3.693  49.485  1.00  0.00     0.125 HD
BRANCH   4   6
HETATM    6  C6  UNL     1      21.229   1.678  49.566  1.00  0.00     0.295 C 
BRANCH   6   7
HETATM    7  C5  UNL     1      20.453   0.890  50.604  1.00  0.00     0.078 C 
BRANCH   7   8
HETATM    8  C4  UNL     1      21.283   0.075  51.472  1.00  0.00    -0.024 C 
HETATM    9  C3  UNL     1      21.476   0.120  52.790  1.00  0.00     0.005 C 
BRANCH   9  10
HETATM   10  C2  UNL     1      22.402  -0.846  53.465  1.00  0.00     0.188 C 
HETATM   11  C1  UNL     1      21.563  -1.748  54.349  1.00  0.00     0.049 C 
HETATM   12  F1  UNL     1      23.377  -0.210  54.149  1.00  0.00    -0.246 F 
ENDBRANCH   9  10
ENDBRANCH   7   8
ENDBRANCH   6   7
BRANCH   6  13
HETATM   13  N1  UNL     1      20.509   1.770  48.322  1.00  0.00     0.096 N 
HETATM   14  H10 UNL     1      19.972   2.706  48.380  1.00  0.00     0.314 HD
HETATM   15  H11 UNL     1      19.704   1.092  48.249  1.00  0.00     0.314 HD
ENDBRANCH   6  13
ENDBRANCH   4   6
ENDBRANCH   1   4
BRANCH   1  16
HETATM   16  C17 UNL     1      23.849   2.616  51.215  1.00  0.00     0.034 A 
HETATM   17  C10 UNL     1      24.718   2.220  52.391  1.00  0.00     0.029 A 
HETATM   18  C9  UNL     1      24.373   2.158  51.156  1.00  0.00     0.050 A 
HETATM   19  C18 UNL     1      23.586   3.146  52.308  1.00  0.00     0.042 A 
BRANCH  17  20
HETATM   20  C11 UNL     1      25.983   1.373  52.697  1.00  0.00    -0.046 A 
HETATM   21  C12 UNL     1      26.155  -0.030  52.477  1.00  0.00     0.009 A 
HETATM   22  C13 UNL     1      27.335  -0.644  52.794  1.00  0.00     0.019 A 
HETATM   23  C14 UNL     1      28.369   0.084  53.330  1.00  0.00     0.011 A 
HETATM   24 BR1  UNL     1      29.895  -1.018  53.654  1.00  0.00    -0.051 Br
HETATM   25  C15 UNL     1      28.306   1.423  53.581  1.00  0.00     0.019 A 
HETATM   26  C16 UNL     1      27.114   2.006  53.253  1.00  0.00     0.009 A 
ENDBRANCH  17  20
ENDBRANCH   1  16
TORSDOF 10
ENDMDL
MODEL 4
REMARK VINA RESULT:      -7.0      2.974      4.718
REMARK  10 active torsions:
REMARK  status: ('A' for Active; 'I' for Inactive)
REMARK    1  A    between atoms: C2_2  and  C3_4 
REMARK    2  A    between atoms: C4_5  and  C5_6 
REMARK    3  A    between atoms: C5_6  and  C6_7 
REMARK    4  A    between atoms: C6_7  and  N1_8 
REMARK    5  A    between atoms: C6_7  and  N2_9 
REMARK    6  A    between atoms: N2_9  and  C7_10 
REMARK    7  A    between atoms: C7_10  and  C17_22 
REMARK    8  A    between atoms: N3_12  and  C9_13 
REMARK    9  A    between atoms: C10_14  and  C11_15 
REMARK   10  A    between atoms: C17_22  and  C18_23 
ROOT
HETATM    1  C7  UNL     1      24.799   2.597  51.833  1.00  0.00     0.151 A 
HETATM    2  C8  UNL     1      23.422   2.648  51.412  1.00  0.00     0.068 A 
HETATM    3  N3  UNL     1      24.070   2.531  50.409  1.00  0.00    -0.263 N 
ENDROOT
BRANCH   1   4
HETATM    4  N2  UNL     1      25.032   3.194  53.133  1.00  0.00    -0.276 N 
HETATM    5  H12 UNL     1      24.105   3.323  53.593  1.00  0.00     0.125 HD
BRANCH   4   6
HETATM    6  C6  UNL     1      25.808   2.278  53.870  1.00  0.00     0.295 C 
BRANCH   6   7
HETATM    7  C5  UNL     1      25.574   0.854  53.403  1.00  0.00     0.078 C 
BRANCH   7   8
HETATM    8  C4  UNL     1      26.664  -0.055  53.704  1.00  0.00    -0.024 C 
HETATM    9  C3  UNL     1      27.586  -0.606  52.915  1.00  0.00     0.005 C 
BRANCH   9  10
HETATM   10  C2  UNL     1      28.623  -1.533  53.474  1.00  0.00     0.188 C 
HETATM   11  C1  UNL     1      29.955  -0.809  53.438  1.00  0.00     0.049 C 
HETATM   12  F1  UNL     1      28.653  -2.708  52.810  1.00  0.00    -0.246 F 
ENDBRANCH   9  10
ENDBRANCH   7   8
ENDBRANCH   6   7
BRANCH   6  13
HETATM   13  N1  UNL     1      27.212   2.597  53.917  1.00  0.00     0.096 N 
HETATM   14  H10 UNL     1      27.380   2.966  54.920  1.00  0.00     0.314 HD
HETATM   15  H11 UNL     1      27.470   3.451  53.354  1.00  0.00     0.314 HD
ENDBRANCH   6  13
ENDBRANCH   4   6
ENDBRANCH   1   4
BRANCH   1  16
HETATM   16  C17 UNL     1      25.694   3.025  50.742  1.00  0.00     0.034 A 
HETATM   17  C10 UNL     1      26.571   3.608  49.652  1.00  0.00     0.029 A 
HETATM   18  C9  UNL     1      25.634   3.686  50.526  1.00  0.00     0.050 A 
HETATM   19  C18 UNL     1      26.538   2.265  50.237  1.00  0.00     0.042 A 
BRANCH  17  20
HETATM   20  C11 UNL     1      26.852   4.969  48.959  1.00  0.00    -0.046 A 
HETATM   21  C12 UNL     1      25.912   6.017  48.707  1.00  0.00     0.009 A 
HETATM   22  C13 UNL     1      26.307   7.170  48.086  1.00  0.00     0.019 A 
HETATM   23  C14 UNL     1      27.614   7.330  47.695  1.00  0.00     0.011 A 
HETATM   24 BR1  UNL     1      27.887   9.033  46.876  1.00  0.00    -0.051 Br
HETATM   25  C15 UNL     1      28.584   6.391  47.885  1.00  0.00     0.019 A 
HETATM   26  C16 UNL     1      28.157   5.252  48.509  1.00  0.00     0.009 A 
ENDBRANCH  17  20
ENDBRANCH   1  16
TORSDOF 10
ENDMDL
MODEL 5
REMARK VINA RESULT:      -7.0      3.174      5.263
REMARK  10 active torsions:
REMARK  status: ('A' for Active; 'I' for Inactive)
REMARK    1  A    between atoms: C2_2  and  C3_4 
REMARK    2  A    between atoms: C4_5  and  C5_6 
REMARK    3  A    between atoms: C5_6  and  C6_7 
REMARK    4  A    between atoms: C6_7  and  N1_8 
REMARK    5  A    between atoms: C6_7  and  N2_9 
REMARK    6  A    between atoms: N2_9  and  C7_10 
REMARK    7  A    between atoms: C7_10  and  C17_22 
REMARK    8  A    between atoms: N3_12  and  C9_13 
REMARK    9  A    between atoms: C10_14  and  C11_15 
REMARK   10  A    between atoms: C17_22  and  C18_23 
ROOT
HETATM    1  C7  UNL     1      24.241   3.498  51.790  1.00  0.00     0.151 A 
HETATM    2  C8  UNL     1      23.519   4.558  52.445  1.00  0.00     0.068 A 
HETATM    3  N3  UNL     1      23.465   4.799  51.271  1.00  0.00    -0.263 N 
ENDROOT
BRANCH   1   4
HETATM    4  N2  UNL     1      25.194   2.825  52.650  1.00  0.00    -0.276 N 
HETATM    5  H12 UNL     1      24.919   3.016  53.637  1.00  0.00     0.125 HD
BRANCH   4   6
HETATM    6  C6  UNL     1      25.085   1.446  52.381  1.00  0.00     0.295 C 
BRANCH   6   7
HETATM    7  C5  UNL     1      26.356   0.904  51.756  1.00  0.00     0.078 C 
BRANCH   7   8
HETATM    8  C4  UNL     1      27.332   0.422  52.717  1.00  0.00    -0.024 C 
HETATM    9  C3  UNL     1      28.352   1.041  53.311  1.00  0.00     0.005 C 
BRANCH   9  10
HETATM   10  C2  UNL     1      29.233   0.314  54.281  1.00  0.00     0.188 C 
HETATM   11  C1  UNL     1      29.909  -0.817  53.531  1.00  0.00     0.049 C 
HETATM   12  F1  UNL     1      28.542  -0.117  55.358  1.00  0.00    -0.246 F 
ENDBRANCH   9  10
ENDBRANCH   7   8
ENDBRANCH   6   7
BRANCH   6  13
HETATM   13  N1  UNL     1      24.670   0.655  53.510  1.00  0.00     0.096 N 
HETATM   14  H10 UNL     1      25.475  -0.051  53.666  1.00  0.00     0.314 HD
HETATM   15  H11 UNL     1      23.876  -0.005  53.295  1.00  0.00     0.314 HD
ENDBRANCH   6  13
ENDBRANCH   4   6
ENDBRANCH   1   4
BRANCH   1  16
HETATM   16  C17 UNL     1      24.739   3.941  50.474  1.00  0.00     0.034 A 
HETATM   17  C10 UNL     1      25.368   4.460  49.197  1.00  0.00     0.029 A 
HETATM   18  C9  UNL     1      25.254   4.413  50.475  1.00  0.00     0.050 A 
HETATM   19  C18 UNL     1      24.294   3.487  49.407  1.00  0.00     0.042 A 
BRANCH  17  20
HETATM   20  C11 UNL     1      26.535   5.378  48.740  1.00  0.00    -0.046 A 
HETATM   21  C12 UNL     1      26.460   6.769  48.413  1.00  0.00     0.009 A 
HETATM   22  C13 UNL     1      27.580   7.453  48.027  1.00  0.00     0.019 A 
HETATM   23  C14 UNL     1      28.789   6.807  47.946  1.00  0.00     0.011 A 
HETATM   24 BR1  UNL     1      30.176   8.002  47.404  1.00  0.00    -0.051 Br
HETATM   25  C15 UNL     1      28.965   5.485  48.232  1.00  0.00     0.019 A 
HETATM   26  C16 UNL     1      27.828   4.831  48.615  1.00  0.00     0.009 A 
ENDBRANCH  17  20
ENDBRANCH   1  16
TORSDOF 10
ENDMDL
MODEL 6
REMARK VINA RESULT:      -7.0      2.290      2.774
REMARK  10 active torsions:
REMARK  status: ('A' for Active; 'I' for Inactive)
REMARK    1  A    between atoms: C2_2  and  C3_4 
REMARK    2  A    between atoms: C4_5  and  C5_6 
REMARK    3  A    between atoms: C5_6  and  C6_7 
REMARK    4  A    between atoms: C6_7  and  N1_8 
REMARK    5  A    between atoms: C6_7  and  N2_9 
REMARK    6  A    between atoms: N2_9  and  C7_10 
REMARK    7  A    between atoms: C7_10  and  C17_22 
REMARK    8  A    between atoms: N3_12  and  C9_13 
REMARK    9  A    between atoms: C10_14  and  C11_15 
REMARK   10  A    between atoms: C17_22  and  C18_23 
ROOT
HETATM    1  C7  UNL     1      25.144   0.311  53.157  1.00  0.00     0.151 A 
HETATM    2  C8  UNL     1      26.403   0.000  52.530  1.00  0.00     0.068 A 
HETATM    3  N3  UNL     1      26.192   1.157  52.292  1.00  0.00    -0.263 N 
ENDROOT
BRANCH   1   4
HETATM    4  N2  UNL     1      24.309  -0.851  53.390  1.00  0.00    -0.276 N 
HETATM    5  H12 UNL     1      24.897  -1.699  53.241  1.00  0.00     0.125 HD
BRANCH   4   6
HETATM    6  C6  UNL     1      23.889  -0.790  54.734  1.00  0.00     0.295 C 
BRANCH   6   7
HETATM    7  C5  UNL     1      22.415  -1.121  54.867  1.00  0.00     0.078 C 
BRANCH   7   8
HETATM    8  C4  UNL     1      21.567  -0.453  53.897  1.00  0.00    -0.024 C 
HETATM    9  C3  UNL     1      21.050   0.776  53.887  1.00  0.00     0.005 C 
BRANCH   9  10
HETATM   10  C2  UNL     1      20.187   1.238  52.753  1.00  0.00     0.188 C 
HETATM   11  C1  UNL     1      20.253   0.185  51.665  1.00  0.00     0.049 C 
HETATM   12  F1  UNL     1      20.551   2.462  52.315  1.00  0.00    -0.246 F 
ENDBRANCH   9  10
ENDBRANCH   7   8
ENDBRANCH   6   7
BRANCH   6  13
HETATM   13  N1  UNL     1      24.692  -1.570  55.639  1.00  0.00     0.096 N 
HETATM   14  H10 UNL     1      25.710  -1.427  55.303  1.00  0.00     0.314 HD
HETATM   15  H11 UNL     1      24.591  -2.612  55.504  1.00  0.00     0.314 HD
ENDBRANCH   6  13
ENDBRANCH   4   6
ENDBRANCH   1   4
BRANCH   1  16
HETATM   16  C17 UNL     1      24.501   1.461  52.495  1.00  0.00     0.034 A 
HETATM   17  C10 UNL     1      23.818   2.552  51.696  1.00  0.00     0.029 A 
HETATM   18  C9  UNL     1      24.373   1.400  51.811  1.00  0.00     0.050 A 
HETATM   19  C18 UNL     1      24.175   2.488  53.115  1.00  0.00     0.042 A 
BRANCH  17  20
HETATM   20  C11 UNL     1      23.265   2.803  50.266  1.00  0.00    -0.046 A 
HETATM   21  C12 UNL     1      22.457   1.918  49.487  1.00  0.00     0.009 A 
HETATM   22  C13 UNL     1      22.038   2.278  48.235  1.00  0.00     0.019 A 
HETATM   23  C14 UNL     1      22.395   3.498  47.714  1.00  0.00     0.011 A 
HETATM   24 BR1  UNL     1      21.659   3.746  45.969  1.00  0.00    -0.051 Br
HETATM   25  C15 UNL     1      23.165   4.411  48.373  1.00  0.00     0.019 A 
HETATM   26  C16 UNL     1      23.565   4.020  49.620  1.00  0.00     0.009 A 
ENDBRANCH  17  20
ENDBRANCH   1  16
TORSDOF 10
ENDMDL
MODEL 7
REMARK VINA RESULT:      -7.0      3.547      6.135
REMARK  10 active torsions:
REMARK  status: ('A' for Active; 'I' for Inactive)
REMARK    1  A    between atoms: C2_2  and  C3_4 
REMARK    2  A    between atoms: C4_5  and  C5_6 
REMARK    3  A    between atoms: C5_6  and  C6_7 
REMARK    4  A    between atoms: C6_7  and  N1_8 
REMARK    5  A    between atoms: C6_7  and  N2_9 
REMARK    6  A    between atoms: N2_9  and  C7_10 
REMARK    7  A    between atoms: C7_10  and  C17_22 
REMARK    8  A    between atoms: N3_12  and  C9_13 
REMARK    9  A    between atoms: C10_14  and  C11_15 
REMARK   10  A    between atoms: C17_22  and  C18_23 
ROOT
HETATM    1  C7  UNL     1      25.896   2.001  51.440  1.00  0.00     0.151 A 
HETATM    2  C8  UNL     1      26.809   0.998  51.925  1.00  0.00     0.068 A 
HETATM    3  N3  UNL     1      25.719   0.656  52.289  1.00  0.00    -0.263 N 
ENDROOT
BRANCH   1   4
HETATM    4  N2  UNL     1      26.526   3.279  51.167  1.00  0.00    -0.276 N 
HETATM    5  H12 UNL     1      27.551   3.166  51.325  1.00  0.00     0.125 HD
BRANCH   4   6
HETATM    6  C6  UNL     1      26.280   3.576  49.813  1.00  0.00     0.295 C 
BRANCH   6   7
HETATM    7  C5  UNL     1      24.898   4.172  49.621  1.00  0.00     0.078 C 
BRANCH   7   8
HETATM    8  C4  UNL     1      23.987   3.326  48.871  1.00  0.00    -0.024 C 
HETATM    9  C3  UNL     1      22.681   3.105  49.017  1.00  0.00     0.005 C 
BRANCH   9  10
HETATM   10  C2  UNL     1      21.952   2.168  48.101  1.00  0.00     0.188 C 
HETATM   11  C1  UNL     1      21.433   1.016  48.938  1.00  0.00     0.049 C 
HETATM   12  F1  UNL     1      22.735   1.757  47.080  1.00  0.00    -0.246 F 
ENDBRANCH   9  10
ENDBRANCH   7   8
ENDBRANCH   6   7
BRANCH   6  13
HETATM   13  N1  UNL     1      27.297   4.383  49.190  1.00  0.00     0.096 N 
HETATM   14  H10 UNL     1      27.462   5.201  49.879  1.00  0.00     0.314 HD
HETATM   15  H11 UNL     1      26.956   4.912  48.343  1.00  0.00     0.314 HD
ENDBRANCH   6  13
ENDBRANCH   4   6
ENDBRANCH   1   4
BRANCH   1  16
HETATM   16  C17 UNL     1      24.671   2.034  52.260  1.00  0.00     0.034 A 
HETATM   17  C10 UNL     1      23.376   1.933  53.040  1.00  0.00     0.029 A 
HETATM   18  C9  UNL     1      24.175   1.567  52.104  1.00  0.00     0.050 A 
HETATM   19  C18 UNL     1      24.522   2.830  53.202  1.00  0.00     0.042 A 
BRANCH  17  20
HETATM   20  C11 UNL     1      22.108   1.040  53.119  1.00  0.00    -0.046 A 
HETATM   21  C12 UNL     1      21.989  -0.234  53.758  1.00  0.00     0.009 A 
HETATM   22  C13 UNL     1      20.798  -0.908  53.750  1.00  0.00     0.019 A 
HETATM   23  C14 UNL     1      19.704  -0.365  53.123  1.00  0.00     0.011 A 
HETATM   24 BR1  UNL     1      18.179  -1.505  53.284  1.00  0.00    -0.051 Br
HETATM   25  C15 UNL     1      19.714   0.839  52.482  1.00  0.00     0.019 A 
HETATM   26  C16 UNL     1      20.917   1.486  52.509  1.00  0.00     0.009 A 
ENDBRANCH  17  20
ENDBRANCH   1  16
TORSDOF 10
ENDMDL
MODEL 8
REMARK VINA RESULT:      -6.9      3.760      6.220
REMARK  10 active torsions:
REMARK  status: ('A' for Active; 'I' for Inactive)
REMARK    1  A    between atoms: C2_2  and  C3_4 
REMARK    2  A    between atoms: C4_5  and  C5_6 
REMARK    3  A    between atoms: C5_6  and  C6_7 
REMARK    4  A    between atoms: C6_7  and  N1_8 
REMARK    5  A    between atoms: C6_7  and  N2_9 
REMARK    6  A    between atoms: N2_9  and  C7_10 
REMARK    7  A    between atoms: C7_10  and  C17_22 
REMARK    8  A    between atoms: N3_12  and  C9_13 
REMARK    9  A    between atoms: C10_14  and  C11_15 
REMARK   10  A    between atoms: C17_22  and  C18_23 
ROOT
HETATM    1  C7  UNL     1      21.675   1.338  51.803  1.00  0.00     0.151 A 
HETATM    2  C8  UNL     1      21.047   0.361  50.950  1.00  0.00     0.068 A 
HETATM    3  N3  UNL     1      21.399  -0.234  51.930  1.00  0.00    -0.263 N 
ENDROOT
BRANCH   1   4
HETATM    4  N2  UNL     1      22.156   2.507  51.093  1.00  0.00    -0.276 N 
HETATM    5  H12 UNL     1      21.563   2.627  50.244  1.00  0.00     0.125 HD
BRANCH   4   6
HETATM    6  C6  UNL     1      21.985   3.608  51.955  1.00  0.00     0.295 C 
BRANCH   6   7
HETATM    7  C5  UNL     1      23.269   4.402  52.098  1.00  0.00     0.078 C 
BRANCH   7   8
HETATM    8  C4  UNL     1      24.426   3.774  51.485  1.00  0.00    -0.024 C 
HETATM    9  C3  UNL     1      25.058   4.036  50.342  1.00  0.00     0.005 C 
BRANCH   9  10
HETATM   10  C2  UNL     1      26.249   3.229  49.919  1.00  0.00     0.188 C 
HETATM   11  C1  UNL     1      26.665   2.369  51.097  1.00  0.00     0.049 C 
HETATM   12  F1  UNL     1      27.250   4.014  49.469  1.00  0.00    -0.246 F 
ENDBRANCH   9  10
ENDBRANCH   7   8
ENDBRANCH   6   7
BRANCH   6  13
HETATM   13  N1  UNL     1      20.872   4.456  51.617  1.00  0.00     0.096 N 
HETATM   14  H10 UNL     1      20.653   5.003  52.524  1.00  0.00     0.314 HD
HETATM   15  H11 UNL     1      19.965   3.932  51.487  1.00  0.00     0.314 HD
ENDBRANCH   6  13
ENDBRANCH   4   6
ENDBRANCH   1   4
BRANCH   1  16
HETATM   16  C17 UNL     1      22.627   0.691  52.725  1.00  0.00     0.034 A 
HETATM   17  C10 UNL     1      23.716   0.074  53.579  1.00  0.00     0.029 A 
HETATM   18  C9  UNL     1      23.285   0.621  52.501  1.00  0.00     0.050 A 
HETATM   19  C18 UNL     1      22.296   0.302  53.858  1.00  0.00     0.042 A 
BRANCH  17  20
HETATM   20  C11 UNL     1      25.248  -0.178  53.546  1.00  0.00    -0.046 A 
HETATM   21  C12 UNL     1      25.959  -1.054  52.666  1.00  0.00     0.009 A 
HETATM   22  C13 UNL     1      27.319  -1.171  52.751  1.00  0.00     0.019 A 
HETATM   23  C14 UNL     1      28.016  -0.447  53.687  1.00  0.00     0.011 A 
HETATM   24 BR1  UNL     1      29.891  -0.788  53.568  1.00  0.00    -0.051 Br
HETATM   25  C15 UNL     1      27.433   0.412  54.573  1.00  0.00     0.019 A 
HETATM   26  C16 UNL     1      26.075   0.506  54.461  1.00  0.00     0.009 A 
ENDBRANCH  17  20
ENDBRANCH   1  16
TORSDOF 10
ENDMDL
MODEL 9
REMARK VINA RESULT:      -6.9      2.884      4.309
REMARK  10 active torsions:
REMARK  status: ('A' for Active; 'I' for Inactive)
REMARK    1  A    between atoms: C2_2  and  C3_4 
REMARK    2  A    between atoms: C4_5  and  C5_6 
REMARK    3  A    between atoms: C5_6  and  C6_7 
REMARK    4  A    between atoms: C6_7  and  N1_8 
REMARK    5  A    between atoms: C6_7  and  N2_9 
REMARK    6  A    between atoms: N2_9  and  C7_10 
REMARK    7  A    between atoms: C7_10  and  C17_22 
REMARK    8  A    between atoms: N3_12  and  C9_13 
REMARK    9  A    between atoms: C10_14  and  C11_15 
REMARK   10  A    between atoms: C17_22  and  C18_23 
ROOT
HETATM    1  C7  UNL     1      21.218   1.869  52.136  1.00  0.00     0.151 A 
HETATM    2  C8  UNL     1      20.273   2.946  52.285  1.00  0.00     0.068 A 
HETATM    3  N3  UNL     1      20.583   2.937  51.126  1.00  0.00    -0.263 N 
ENDROOT
BRANCH   1   4
HETATM    4  N2  UNL     1      21.882   1.502  53.373  1.00  0.00    -0.276 N 
HETATM    5  H12 UNL     1      21.463   2.073  54.138  1.00  0.00     0.125 HD
BRANCH   4   6
HETATM    6  C6  UNL     1      21.613   0.137  53.591  1.00  0.00     0.295 C 
BRANCH   6   7
HETATM    7  C5  UNL     1      22.890  -0.681  53.608  1.00  0.00     0.078 C 
BRANCH   7   8
HETATM    8  C4  UNL     1      24.096   0.097  53.390  1.00  0.00    -0.024 C 
HETATM    9  C3  UNL     1      25.257  -0.231  52.823  1.00  0.00     0.005 C 
BRANCH   9  10
HETATM   10  C2  UNL     1      26.370   0.767  52.718  1.00  0.00     0.188 C 
HETATM   11  C1  UNL     1      25.831   2.109  53.174  1.00  0.00     0.049 C 
HETATM   12  F1  UNL     1      26.886   0.811  51.472  1.00  0.00    -0.246 F 
ENDBRANCH   9  10
ENDBRANCH   7   8
ENDBRANCH   6   7
BRANCH   6  13
HETATM   13  N1  UNL     1      20.799  -0.127  54.749  1.00  0.00     0.096 N 
HETATM   14  H10 UNL     1      21.106  -1.107  55.087  1.00  0.00     0.314 HD
HETATM   15  H11 UNL     1      19.786  -0.313  54.520  1.00  0.00     0.314 HD
ENDBRANCH   6  13
ENDBRANCH   4   6
ENDBRANCH   1   4
BRANCH   1  16
HETATM   16  C17 UNL     1      22.086   2.094  50.966  1.00  0.00     0.034 A 
HETATM   17  C10 UNL     1      23.046   2.436  49.844  1.00  0.00     0.029 A 
HETATM   18  C9  UNL     1      22.476   2.674  50.969  1.00  0.00     0.050 A 
HETATM   19  C18 UNL     1      22.151   1.290  50.021  1.00  0.00     0.042 A 
BRANCH  17  20
HETATM   20  C11 UNL     1      24.126   3.494  49.490  1.00  0.00    -0.046 A 
HETATM   21  C12 UNL     1      23.907   4.807  48.964  1.00  0.00     0.009 A 
HETATM   22  C13 UNL     1      24.963   5.636  48.703  1.00  0.00     0.019 A 
HETATM   23  C14 UNL     1      26.248   5.212  48.942  1.00  0.00     0.011 A 
HETATM   24 BR1  UNL     1      27.516   6.573  48.509  1.00  0.00    -0.051 Br
HETATM   25  C15 UNL     1      26.563   3.981  49.438  1.00  0.00     0.019 A 
HETATM   26  C16 UNL     1      25.486   3.178  49.688  1.00  0.00     0.009 A 
ENDBRANCH  17  20
ENDBRANCH   1  16
TORSDOF 10
ENDMDL
