MODEL 1
REMARK VINA RESULT:      -9.1      0.000      0.000
REMARK  0 active torsions:
REMARK  status: ('A' for Active; 'I' for Inactive)
ROOT
HETATM    1  C1  UNL     1      21.645   0.608  51.696  1.00  0.00     0.199 C 
HETATM    2  C2  UNL     1      22.743   0.226  52.415  1.00  0.00     0.057 C 
HETATM    3  C3  UNL     1      24.016   0.612  53.101  1.00  0.00     0.036 C 
HETATM    4  C4  UNL     1      24.938  -0.189  53.725  1.00  0.00     0.027 C 
HETATM    5  C5  UNL     1      26.166  -0.746  53.670  1.00  0.00     0.002 C 
HETATM    6  C6  UNL     1      27.424  -0.097  53.619  1.00  0.00     0.000 C 
HETATM    7  C7  UNL     1      28.700   0.554  53.624  1.00  0.00     0.003 C 
HETATM    8  C8  UNL     1      28.541   2.012  53.467  1.00  0.00     0.037 C 
HETATM    9  C9  UNL     1      27.424   2.211  52.702  1.00  0.00     0.082 A 
HETATM   10  C10 UNL     1      26.728   2.530  51.608  1.00  0.00     0.044 A 
HETATM   11  C11 UNL     1      25.570   2.222  52.359  1.00  0.00     0.246 A 
HETATM   12  N1  UNL     1      24.577   1.879  53.243  1.00  0.00    -0.246 NA
HETATM   13  O1  UNL     1      26.342   1.914  53.460  1.00  0.00    -0.308 OA
HETATM   14  C12 UNL     1      26.548   2.935  50.219  1.00  0.00     0.312 C 
HETATM   15  N2  UNL     1      26.318   4.237  49.808  1.00  0.00     0.091 NA
HETATM   16  C13 UNL     1      25.275   5.048  50.293  1.00  0.00     0.308 C 
HETATM   17  C14 UNL     1      23.978   4.305  50.458  1.00  0.00    -0.030 A 
HETATM   18  C15 UNL     1      23.835   3.424  49.425  1.00  0.00     0.011 A 
HETATM   19  C16 UNL     1      22.830   2.500  49.569  1.00  0.00     0.037 A 
HETATM   20  C17 UNL     1      22.252   2.764  50.764  1.00  0.00     0.069 A 
HETATM   21  C18 UNL     1      22.310   3.605  51.836  1.00  0.00     0.037 A 
HETATM   22  C19 UNL     1      23.326   4.506  51.650  1.00  0.00     0.011 A 
HETATM   23  O2  UNL     1      21.186   1.889  51.200  1.00  0.00    -0.343 OA
HETATM   24  H10 UNL     1      27.200   4.804  49.833  1.00  0.00     0.316 HD
ENDROOT
TORSDOF 0
ENDMDL
MODEL 2
REMARK VINA RESULT:      -8.8      1.823      5.244
REMARK  0 active torsions:
REMARK  status: ('A' for Active; 'I' for Inactive)
ROOT
HETATM    1  C1  UNL     1      24.960  -1.141  55.662  1.00  0.00     0.199 C 
HETATM    2  C2  UNL     1      23.718  -0.960  55.121  1.00  0.00     0.057 C 
HETATM    3  C3  UNL     1      22.886  -0.628  53.922  1.00  0.00     0.036 C 
HETATM    4  C4  UNL     1      21.524  -0.496  53.826  1.00  0.00     0.027 C 
HETATM    5  C5  UNL     1      20.482   0.350  53.690  1.00  0.00     0.002 C 
HETATM    6  C6  UNL     1      20.195   1.228  52.617  1.00  0.00     0.000 C 
HETATM    7  C7  UNL     1      19.872   2.076  51.508  1.00  0.00     0.003 C 
HETATM    8  C8  UNL     1      20.981   2.107  50.535  1.00  0.00     0.037 C 
HETATM    9  C9  UNL     1      22.139   1.944  51.245  1.00  0.00     0.082 A 
HETATM   10  C10 UNL     1      23.295   2.309  51.806  1.00  0.00     0.044 A 
HETATM   11  C11 UNL     1      23.392   0.976  52.269  1.00  0.00     0.246 A 
HETATM   12  N1  UNL     1      23.305  -0.348  52.623  1.00  0.00    -0.246 NA
HETATM   13  O1  UNL     1      22.196   0.657  51.661  1.00  0.00    -0.308 OA
HETATM   14  C12 UNL     1      24.355   3.237  52.183  1.00  0.00     0.312 C 
HETATM   15  N2  UNL     1      25.531   3.409  51.473  1.00  0.00     0.091 NA
HETATM   16  C13 UNL     1      26.415   2.365  51.140  1.00  0.00     0.308 C 
HETATM   17  C14 UNL     1      26.606   1.375  52.256  1.00  0.00    -0.030 A 
HETATM   18  C15 UNL     1      26.639   2.045  53.445  1.00  0.00     0.011 A 
HETATM   19  C16 UNL     1      26.554   1.261  54.569  1.00  0.00     0.037 A 
HETATM   20  C17 UNL     1      26.461  -0.015  54.126  1.00  0.00     0.069 A 
HETATM   21  C18 UNL     1      26.433  -0.770  52.991  1.00  0.00     0.037 A 
HETATM   22  C19 UNL     1      26.517   0.052  51.897  1.00  0.00     0.011 A 
HETATM   23  O2  UNL     1      26.298  -1.056  55.115  1.00  0.00    -0.343 OA
HETATM   24  H10 UNL     1      25.372   3.980  50.609  1.00  0.00     0.316 HD
ENDROOT
TORSDOF 0
ENDMDL
MODEL 3
REMARK VINA RESULT:      -8.5      2.260      5.429
REMARK  0 active torsions:
REMARK  status: ('A' for Active; 'I' for Inactive)
ROOT
HETATM    1  C1  UNL     1      25.419   1.017  53.689  1.00  0.00     0.199 C 
HETATM    2  C2  UNL     1      24.353   0.162  53.746  1.00  0.00     0.057 C 
HETATM    3  C3  UNL     1      23.072  -0.320  53.141  1.00  0.00     0.036 C 
HETATM    4  C4  UNL     1      22.202  -1.273  53.607  1.00  0.00     0.027 C 
HETATM    5  C5  UNL     1      21.005  -1.523  54.175  1.00  0.00     0.002 C 
HETATM    6  C6  UNL     1      19.714  -1.229  53.673  1.00  0.00     0.000 C 
HETATM    7  C7  UNL     1      18.406  -0.985  53.142  1.00  0.00     0.003 C 
HETATM    8  C8  UNL     1      18.485  -0.177  51.911  1.00  0.00     0.037 C 
HETATM    9  C9  UNL     1      19.578   0.635  52.037  1.00  0.00     0.082 A 
HETATM   10  C10 UNL     1      20.241   1.780  52.224  1.00  0.00     0.044 A 
HETATM   11  C11 UNL     1      21.425   1.015  52.109  1.00  0.00     0.246 A 
HETATM   12  N1  UNL     1      22.447   0.109  51.972  1.00  0.00    -0.246 NA
HETATM   13  O1  UNL     1      20.686  -0.134  51.912  1.00  0.00    -0.308 OA
HETATM   14  C12 UNL     1      20.379   3.207  52.489  1.00  0.00     0.312 C 
HETATM   15  N2  UNL     1      20.534   4.173  51.509  1.00  0.00     0.091 NA
HETATM   16  C13 UNL     1      21.541   4.148  50.525  1.00  0.00     0.308 C 
HETATM   17  C14 UNL     1      22.877   3.711  51.059  1.00  0.00    -0.030 A 
HETATM   18  C15 UNL     1      23.051   4.236  52.307  1.00  0.00     0.011 A 
HETATM   19  C16 UNL     1      24.105   3.725  53.024  1.00  0.00     0.037 A 
HETATM   20  C17 UNL     1      24.686   2.802  52.221  1.00  0.00     0.069 A 
HETATM   21  C18 UNL     1      24.600   2.228  50.987  1.00  0.00     0.037 A 
HETATM   22  C19 UNL     1      23.535   2.766  50.311  1.00  0.00     0.011 A 
HETATM   23  O2  UNL     1      25.802   2.057  52.758  1.00  0.00    -0.343 OA
HETATM   24  H10 UNL     1      19.624   4.375  51.029  1.00  0.00     0.316 HD
ENDROOT
TORSDOF 0
ENDMDL
MODEL 4
REMARK VINA RESULT:      -8.4      1.304      1.691
REMARK  0 active torsions:
REMARK  status: ('A' for Active; 'I' for Inactive)
ROOT
HETATM    1  C1  UNL     1      20.909   3.212  51.347  1.00  0.00     0.199 C 
HETATM    2  C2  UNL     1      21.762   2.371  52.008  1.00  0.00     0.057 C 
HETATM    3  C3  UNL     1      23.107   2.146  52.623  1.00  0.00     0.036 C 
HETATM    4  C4  UNL     1      23.613   1.009  53.200  1.00  0.00     0.027 C 
HETATM    5  C5  UNL     1      24.467  -0.029  53.082  1.00  0.00     0.002 C 
HETATM    6  C6  UNL     1      25.877   0.002  52.961  1.00  0.00     0.000 C 
HETATM    7  C7  UNL     1      27.308   0.026  52.895  1.00  0.00     0.003 C 
HETATM    8  C8  UNL     1      27.799   1.409  52.741  1.00  0.00     0.037 C 
HETATM    9  C9  UNL     1      26.847   2.094  52.037  1.00  0.00     0.082 A 
HETATM   10  C10 UNL     1      26.309   2.708  50.980  1.00  0.00     0.044 A 
HETATM   11  C11 UNL     1      25.172   2.925  51.793  1.00  0.00     0.246 A 
HETATM   12  N1  UNL     1      24.175   3.035  52.730  1.00  0.00    -0.246 NA
HETATM   13  O1  UNL     1      25.784   2.287  52.853  1.00  0.00    -0.308 OA
HETATM   14  C12 UNL     1      26.256   3.179  49.601  1.00  0.00     0.312 C 
HETATM   15  N2  UNL     1      26.602   4.458  49.198  1.00  0.00     0.091 NA
HETATM   16  C13 UNL     1      26.046   5.634  49.735  1.00  0.00     0.308 C 
HETATM   17  C14 UNL     1      24.565   5.533  49.972  1.00  0.00    -0.030 A 
HETATM   18  C15 UNL     1      23.998   4.825  48.951  1.00  0.00     0.011 A 
HETATM   19  C16 UNL     1      22.698   4.433  49.152  1.00  0.00     0.037 A 
HETATM   20  C17 UNL     1      22.354   4.900  50.376  1.00  0.00     0.069 A 
HETATM   21  C18 UNL     1      22.830   5.608  51.440  1.00  0.00     0.037 A 
HETATM   22  C19 UNL     1      24.128   5.976  51.197  1.00  0.00     0.011 A 
HETATM   23  O2  UNL     1      21.037   4.574  50.871  1.00  0.00    -0.343 OA
HETATM   24  H10 UNL     1      27.643   4.579  49.174  1.00  0.00     0.316 HD
ENDROOT
TORSDOF 0
ENDMDL
MODEL 5
REMARK VINA RESULT:      -8.3      2.047      3.809
REMARK  0 active torsions:
REMARK  status: ('A' for Active; 'I' for Inactive)
ROOT
HETATM    1  C1  UNL     1      22.289  -0.245  53.446  1.00  0.00     0.199 C 
HETATM    2  C2  UNL     1      23.455   0.393  53.125  1.00  0.00     0.057 C 
HETATM    3  C3  UNL     1      24.134   1.611  52.581  1.00  0.00     0.036 C 
HETATM    4  C4  UNL     1      25.471   1.831  52.368  1.00  0.00     0.027 C 
HETATM    5  C5  UNL     1      26.461   1.950  51.460  1.00  0.00     0.002 C 
HETATM    6  C6  UNL     1      26.593   2.904  50.422  1.00  0.00     0.000 C 
HETATM    7  C7  UNL     1      26.759   3.902  49.407  1.00  0.00     0.003 C 
HETATM    8  C8  UNL     1      25.547   4.734  49.292  1.00  0.00     0.037 C 
HETATM    9  C9  UNL     1      24.483   3.937  49.614  1.00  0.00     0.082 A 
HETATM   10  C10 UNL     1      23.387   3.207  49.393  1.00  0.00     0.044 A 
HETATM   11  C11 UNL     1      23.388   2.941  50.782  1.00  0.00     0.246 A 
HETATM   12  N1  UNL     1      23.560   2.801  52.137  1.00  0.00    -0.246 NA
HETATM   13  O1  UNL     1      24.518   3.715  50.949  1.00  0.00    -0.308 OA
HETATM   14  C12 UNL     1      22.345   2.584  48.584  1.00  0.00     0.312 C 
HETATM   15  N2  UNL     1      21.090   3.130  48.372  1.00  0.00     0.091 NA
HETATM   16  C13 UNL     1      20.211   3.519  49.399  1.00  0.00     0.308 C 
HETATM   17  C14 UNL     1      20.182   2.550  50.549  1.00  0.00    -0.030 A 
HETATM   18  C15 UNL     1      20.262   1.277  50.061  1.00  0.00     0.011 A 
HETATM   19  C16 UNL     1      20.500   0.299  50.994  1.00  0.00     0.037 A 
HETATM   20  C17 UNL     1      20.585   0.935  52.186  1.00  0.00     0.069 A 
HETATM   21  C18 UNL     1      20.511   2.167  52.767  1.00  0.00     0.037 A 
HETATM   22  C19 UNL     1      20.275   3.110  51.800  1.00  0.00     0.011 A 
HETATM   23  O2  UNL     1      20.895   0.137  53.350  1.00  0.00    -0.343 OA
HETATM   24  H10 UNL     1      21.131   3.911  47.674  1.00  0.00     0.316 HD
ENDROOT
TORSDOF 0
ENDMDL
MODEL 6
REMARK VINA RESULT:      -8.1      5.777      8.877
REMARK  0 active torsions:
REMARK  status: ('A' for Active; 'I' for Inactive)
ROOT
HETATM    1  C1  UNL     1      31.909   6.189  48.421  1.00  0.00     0.199 C 
HETATM    2  C2  UNL     1      30.668   5.614  48.421  1.00  0.00     0.057 C 
HETATM    3  C3  UNL     1      29.207   5.735  48.122  1.00  0.00     0.036 C 
HETATM    4  C4  UNL     1      28.202   4.829  48.348  1.00  0.00     0.027 C 
HETATM    5  C5  UNL     1      27.125   4.505  49.094  1.00  0.00     0.002 C 
HETATM    6  C6  UNL     1      25.911   5.218  49.242  1.00  0.00     0.000 C 
HETATM    7  C7  UNL     1      24.660   5.907  49.349  1.00  0.00     0.003 C 
HETATM    8  C8  UNL     1      24.731   7.223  48.686  1.00  0.00     0.037 C 
HETATM    9  C9  UNL     1      26.021   7.662  48.807  1.00  0.00     0.082 A 
HETATM   10  C10 UNL     1      27.023   8.411  49.275  1.00  0.00     0.044 A 
HETATM   11  C11 UNL     1      27.870   7.651  48.436  1.00  0.00     0.246 A 
HETATM   12  N1  UNL     1      28.520   6.811  47.566  1.00  0.00    -0.246 NA
HETATM   13  O1  UNL     1      26.794   6.915  47.983  1.00  0.00    -0.308 OA
HETATM   14  C12 UNL     1      27.637   9.436  50.111  1.00  0.00     0.312 C 
HETATM   15  N2  UNL     1      27.878  10.737  49.702  1.00  0.00     0.091 NA
HETATM   16  C13 UNL     1      28.609  11.083  48.551  1.00  0.00     0.308 C 
HETATM   17  C14 UNL     1      29.829  10.227  48.347  1.00  0.00    -0.030 A 
HETATM   18  C15 UNL     1      30.401   9.973  49.560  1.00  0.00     0.011 A 
HETATM   19  C16 UNL     1      31.372   9.002  49.565  1.00  0.00     0.037 A 
HETATM   20  C17 UNL     1      31.472   8.571  48.285  1.00  0.00     0.069 A 
HETATM   21  C18 UNL     1      30.969   8.763  47.032  1.00  0.00     0.037 A 
HETATM   22  C19 UNL     1      30.004   9.737  47.076  1.00  0.00     0.011 A 
HETATM   23  O2  UNL     1      32.394   7.491  48.013  1.00  0.00    -0.343 OA
HETATM   24  H10 UNL     1      26.995  11.302  49.701  1.00  0.00     0.316 HD
ENDROOT
TORSDOF 0
ENDMDL
MODEL 7
REMARK VINA RESULT:      -7.8      2.832      4.114
REMARK  0 active torsions:
REMARK  status: ('A' for Active; 'I' for Inactive)
ROOT
HETATM    1  C1  UNL     1      17.727  -0.419  52.384  1.00  0.00     0.199 C 
HETATM    2  C2  UNL     1      18.896  -0.624  53.064  1.00  0.00     0.057 C 
HETATM    3  C3  UNL     1      20.212  -0.084  53.528  1.00  0.00     0.036 C 
HETATM    4  C4  UNL     1      21.210  -0.720  54.221  1.00  0.00     0.027 C 
HETATM    5  C5  UNL     1      22.445  -1.262  54.174  1.00  0.00     0.002 C 
HETATM    6  C6  UNL     1      23.672  -0.626  53.867  1.00  0.00     0.000 C 
HETATM    7  C7  UNL     1      24.923   0.025  53.613  1.00  0.00     0.003 C 
HETATM    8  C8  UNL     1      24.706   1.412  53.161  1.00  0.00     0.037 C 
HETATM    9  C9  UNL     1      23.521   1.428  52.479  1.00  0.00     0.082 A 
HETATM   10  C10 UNL     1      22.721   1.494  51.411  1.00  0.00     0.044 A 
HETATM   11  C11 UNL     1      21.644   1.344  52.315  1.00  0.00     0.246 A 
HETATM   12  N1  UNL     1      20.744   1.190  53.341  1.00  0.00    -0.246 NA
HETATM   13  O1  UNL     1      22.520   1.291  53.380  1.00  0.00    -0.308 OA
HETATM   14  C12 UNL     1      22.406   1.585  49.990  1.00  0.00     0.312 C 
HETATM   15  N2  UNL     1      22.100   2.764  49.332  1.00  0.00     0.091 NA
HETATM   16  C13 UNL     1      21.080   3.649  49.726  1.00  0.00     0.308 C 
HETATM   17  C14 UNL     1      19.826   2.946  50.167  1.00  0.00    -0.030 A 
HETATM   18  C15 UNL     1      19.620   1.860  49.366  1.00  0.00     0.011 A 
HETATM   19  C16 UNL     1      18.660   0.978  49.798  1.00  0.00     0.037 A 
HETATM   20  C17 UNL     1      18.182   1.489  50.957  1.00  0.00     0.069 A 
HETATM   21  C18 UNL     1      18.309   2.544  51.813  1.00  0.00     0.037 A 
HETATM   22  C19 UNL     1      19.276   3.394  51.343  1.00  0.00     0.011 A 
HETATM   23  O2  UNL     1      17.187   0.719  51.668  1.00  0.00    -0.343 OA
HETATM   24  H10 UNL     1      22.963   3.332  49.152  1.00  0.00     0.316 HD
ENDROOT
TORSDOF 0
ENDMDL
MODEL 8
REMARK VINA RESULT:      -7.7      1.837      2.563
REMARK  0 active torsions:
REMARK  status: ('A' for Active; 'I' for Inactive)
ROOT
HETATM    1  C1  UNL     1      20.099  -0.470  52.936  1.00  0.00     0.199 C 
HETATM    2  C2  UNL     1      21.440  -0.518  53.196  1.00  0.00     0.057 C 
HETATM    3  C3  UNL     1      22.745   0.206  53.301  1.00  0.00     0.036 C 
HETATM    4  C4  UNL     1      23.993  -0.296  53.572  1.00  0.00     0.027 C 
HETATM    5  C5  UNL     1      25.210  -0.610  53.084  1.00  0.00     0.002 C 
HETATM    6  C6  UNL     1      26.172   0.250  52.499  1.00  0.00     0.000 C 
HETATM    7  C7  UNL     1      27.170   1.124  51.959  1.00  0.00     0.003 C 
HETATM    8  C8  UNL     1      26.625   2.482  51.771  1.00  0.00     0.037 C 
HETATM    9  C9  UNL     1      25.293   2.343  51.490  1.00  0.00     0.082 A 
HETATM   10  C10 UNL     1      24.193   2.347  50.733  1.00  0.00     0.044 A 
HETATM   11  C11 UNL     1      23.495   1.946  51.897  1.00  0.00     0.246 A 
HETATM   12  N1  UNL     1      23.003   1.564  53.120  1.00  0.00    -0.246 NA
HETATM   13  O1  UNL     1      24.665   1.968  52.629  1.00  0.00    -0.308 OA
HETATM   14  C12 UNL     1      23.429   2.486  49.499  1.00  0.00     0.312 C 
HETATM   15  N2  UNL     1      22.765   3.640  49.117  1.00  0.00     0.091 NA
HETATM   16  C13 UNL     1      21.810   4.303  49.911  1.00  0.00     0.308 C 
HETATM   17  C14 UNL     1      20.877   3.362  50.622  1.00  0.00    -0.030 A 
HETATM   18  C15 UNL     1      20.580   2.318  49.793  1.00  0.00     0.011 A 
HETATM   19  C16 UNL     1      19.946   1.253  50.384  1.00  0.00     0.037 A 
HETATM   20  C17 UNL     1      19.797   1.587  51.688  1.00  0.00     0.069 A 
HETATM   21  C18 UNL     1      20.041   2.582  52.588  1.00  0.00     0.037 A 
HETATM   22  C19 UNL     1      20.676   3.620  51.956  1.00  0.00     0.011 A 
HETATM   23  O2  UNL     1      19.203   0.606  52.566  1.00  0.00    -0.343 OA
HETATM   24  H10 UNL     1      23.435   4.360  48.756  1.00  0.00     0.316 HD
ENDROOT
TORSDOF 0
ENDMDL
MODEL 9
REMARK VINA RESULT:      -7.3      8.363     10.828
REMARK  0 active torsions:
REMARK  status: ('A' for Active; 'I' for Inactive)
ROOT
HETATM    1  C1  UNL     1      31.854  11.255  46.731  1.00  0.00     0.199 C 
HETATM    2  C2  UNL     1      32.975  10.499  46.935  1.00  0.00     0.057 C 
HETATM    3  C3  UNL     1      33.617   9.148  46.943  1.00  0.00     0.036 C 
HETATM    4  C4  UNL     1      34.897   8.802  47.296  1.00  0.00     0.027 C 
HETATM    5  C5  UNL     1      35.692   8.216  48.215  1.00  0.00     0.002 C 
HETATM    6  C6  UNL     1      35.683   6.870  48.656  1.00  0.00     0.000 C 
HETATM    7  C7  UNL     1      35.714   5.497  49.063  1.00  0.00     0.003 C 
HETATM    8  C8  UNL     1      34.566   4.761  48.501  1.00  0.00     0.037 C 
HETATM    9  C9  UNL     1      33.534   5.652  48.395  1.00  0.00     0.082 A 
HETATM   10  C10 UNL     1      32.365   6.218  48.708  1.00  0.00     0.044 A 
HETATM   11  C11 UNL     1      32.625   7.133  47.662  1.00  0.00     0.246 A 
HETATM   12  N1  UNL     1      33.054   7.915  46.618  1.00  0.00    -0.246 NA
HETATM   13  O1  UNL     1      33.819   6.501  47.379  1.00  0.00    -0.308 OA
HETATM   14  C12 UNL     1      31.141   6.399  49.480  1.00  0.00     0.312 C 
HETATM   15  N2  UNL     1      29.912   5.866  49.131  1.00  0.00     0.091 NA
HETATM   16  C13 UNL     1      29.286   6.066  47.887  1.00  0.00     0.308 C 
HETATM   17  C14 UNL     1      29.418   7.475  47.379  1.00  0.00    -0.030 A 
HETATM   18  C15 UNL     1      29.306   8.339  48.431  1.00  0.00     0.011 A 
HETATM   19  C16 UNL     1      29.655   9.641  48.168  1.00  0.00     0.037 A 
HETATM   20  C17 UNL     1      30.023   9.671  46.865  1.00  0.00     0.069 A 
HETATM   21  C18 UNL     1      30.155   8.888  45.756  1.00  0.00     0.037 A 
HETATM   22  C19 UNL     1      29.799   7.600  46.066  1.00  0.00     0.011 A 
HETATM   23  O2  UNL     1      30.501  10.927  46.334  1.00  0.00    -0.343 OA
HETATM   24  H10 UNL     1      29.869   4.842  49.349  1.00  0.00     0.316 HD
ENDROOT
TORSDOF 0
ENDMDL
