MODEL 1
REMARK VINA RESULT:      -9.3      0.000      0.000
REMARK  5 active torsions:
REMARK  status: ('A' for Active; 'I' for Inactive)
REMARK       I    between atoms: C1_2  and  N1_3 
REMARK    1  A    between atoms: C1_2  and  C16_22 
REMARK    2  A    between atoms: N1_3  and  C2_4 
REMARK    3  A    between atoms: C5_7  and  N2_8 
REMARK    4  A    between atoms: N2_8  and  C6_9 
REMARK    5  A    between atoms: C9_13  and  C10_14 
ROOT
HETATM    1  C2  UNL     1      23.365   3.367  49.909  1.00  0.00     0.033 A 
HETATM    2  C3  UNL     1      22.836   2.414  49.159  1.00  0.00     0.009 A 
HETATM    3  C4  UNL     1      21.960   1.538  49.986  1.00  0.00     0.087 A 
HETATM    4  C5  UNL     1      22.061   2.133  51.353  1.00  0.00     0.032 A 
HETATM    5  C15 UNL     1      22.866   3.172  51.277  1.00  0.00     0.055 A 
ENDROOT
BRANCH   4   6
HETATM    6  N2  UNL     1      21.416   1.675  52.514  1.00  0.00    -0.192 N 
HETATM    7  H5  UNL     1      20.497   2.104  52.742  1.00  0.00     0.184 HD
BRANCH   6   8
HETATM    8  C6  UNL     1      21.994   0.670  53.338  1.00  0.00     0.727 A 
HETATM    9  N3  UNL     1      21.220  -0.117  54.086  1.00  0.00    -0.075 NA
HETATM   10  C7  UNL     1      21.818  -1.067  54.860  1.00  0.00     0.139 A 
HETATM   11  C8  UNL     1      23.206  -1.225  54.882  1.00  0.00     0.053 A 
HETATM   12  C9  UNL     1      23.956  -0.390  54.095  1.00  0.00     0.089 A 
HETATM   13  N5  UNL     1      23.354   0.541  53.336  1.00  0.00    -0.062 NA
BRANCH  12  14
HETATM   14  C10 UNL     1      25.410  -0.448  54.024  1.00  0.00     0.011 A 
HETATM   15  C11 UNL     1      25.998  -0.989  52.899  1.00  0.00     0.017 A 
HETATM   16  C12 UNL     1      27.384  -1.087  52.739  1.00  0.00     0.020 A 
HETATM   17  C13 UNL     1      28.205  -0.615  53.766  1.00  0.00     0.116 A 
HETATM   18  N4  UNL     1      27.614  -0.090  54.855  1.00  0.00    -0.272 NA
HETATM   19  C14 UNL     1      26.274   0.001  55.001  1.00  0.00     0.130 A 
ENDBRANCH  12  14
ENDBRANCH   6   8
ENDBRANCH   4   6
BRANCH   1  20
HETATM   20  N1  UNL     1      24.238   4.336  49.366  1.00  0.00    -0.323 N 
HETATM   21  C1  UNL     1      25.656   4.245  49.387  1.00  0.00     0.256 C 
HETATM   22  O1  UNL     1      26.148   3.223  49.932  1.00  0.00    -0.267 OA
HETATM   23  H1  UNL     1      23.802   5.169  48.923  1.00  0.00     0.169 HD
BRANCH  21  24
HETATM   24  C16 UNL     1      26.557   5.242  48.828  1.00  0.00     0.032 A 
HETATM   25  C17 UNL     1      27.871   4.866  48.666  1.00  0.00     0.017 A 
HETATM   26  C18 UNL     1      28.730   5.828  48.128  1.00  0.00     0.001 A 
HETATM   27  C19 UNL     1      28.360   7.087  47.762  1.00  0.00     0.000 A 
HETATM   28  C20 UNL     1      27.015   7.412  47.949  1.00  0.00     0.001 A 
HETATM   29  C21 UNL     1      26.122   6.500  48.477  1.00  0.00     0.017 A 
ENDBRANCH  21  24
ENDBRANCH   1  20
TORSDOF 5
ENDMDL
MODEL 2
REMARK VINA RESULT:      -9.0      1.115      1.501
REMARK  5 active torsions:
REMARK  status: ('A' for Active; 'I' for Inactive)
REMARK       I    between atoms: C1_2  and  N1_3 
REMARK    1  A    between atoms: C1_2  and  C16_22 
REMARK    2  A    between atoms: N1_3  and  C2_4 
REMARK    3  A    between atoms: C5_7  and  N2_8 
REMARK    4  A    between atoms: N2_8  and  C6_9 
REMARK    5  A    between atoms: C9_13  and  C10_14 
ROOT
HETATM    1  C2  UNL     1      24.477   4.217  49.680  1.00  0.00     0.033 A 
HETATM    2  C3  UNL     1      23.853   3.284  48.978  1.00  0.00     0.009 A 
HETATM    3  C4  UNL     1      22.980   2.470  49.868  1.00  0.00     0.087 A 
HETATM    4  C5  UNL     1      23.193   3.079  51.217  1.00  0.00     0.032 A 
HETATM    5  C15 UNL     1      24.049   4.070  51.077  1.00  0.00     0.055 A 
ENDROOT
BRANCH   4   6
HETATM    6  N2  UNL     1      22.592   2.674  52.421  1.00  0.00    -0.192 N 
HETATM    7  H5  UNL     1      21.891   3.319  52.837  1.00  0.00     0.184 HD
BRANCH   6   8
HETATM    8  C6  UNL     1      22.927   1.439  53.040  1.00  0.00     0.727 A 
HETATM    9  N3  UNL     1      21.971   0.636  53.508  1.00  0.00    -0.075 NA
HETATM   10  C7  UNL     1      22.339  -0.538  54.094  1.00  0.00     0.139 A 
HETATM   11  C8  UNL     1      23.682  -0.908  54.211  1.00  0.00     0.053 A 
HETATM   12  C9  UNL     1      24.625  -0.047  53.715  1.00  0.00     0.089 A 
HETATM   13  N5  UNL     1      24.249   1.107  53.139  1.00  0.00    -0.062 NA
BRANCH  12  14
HETATM   14  C10 UNL     1      26.058  -0.310  53.771  1.00  0.00     0.011 A 
HETATM   15  C11 UNL     1      26.839   0.453  54.614  1.00  0.00     0.017 A 
HETATM   16  C12 UNL     1      28.221   0.275  54.737  1.00  0.00     0.020 A 
HETATM   17  C13 UNL     1      28.832  -0.721  53.969  1.00  0.00     0.116 A 
HETATM   18  N4  UNL     1      28.054  -1.454  53.153  1.00  0.00    -0.272 NA
HETATM   19  C14 UNL     1      26.719  -1.276  53.041  1.00  0.00     0.130 A 
ENDBRANCH  12  14
ENDBRANCH   6   8
ENDBRANCH   4   6
BRANCH   1  20
HETATM   20  N1  UNL     1      25.369   5.128  49.070  1.00  0.00    -0.323 N 
HETATM   21  C1  UNL     1      26.771   4.927  48.957  1.00  0.00     0.256 C 
HETATM   22  O1  UNL     1      27.229   3.860  49.438  1.00  0.00    -0.267 OA
HETATM   23  H1  UNL     1      24.960   6.001  48.682  1.00  0.00     0.169 HD
BRANCH  21  24
HETATM   24  C16 UNL     1      27.691   5.865  48.329  1.00  0.00     0.032 A 
HETATM   25  C17 UNL     1      29.020   5.505  48.306  1.00  0.00     0.017 A 
HETATM   26  C18 UNL     1      29.897   6.408  47.702  1.00  0.00     0.001 A 
HETATM   27  C19 UNL     1      29.532   7.598  47.146  1.00  0.00     0.000 A 
HETATM   28  C20 UNL     1      28.172   7.909  47.199  1.00  0.00     0.001 A 
HETATM   29  C21 UNL     1      27.260   7.053  47.784  1.00  0.00     0.017 A 
ENDBRANCH  21  24
ENDBRANCH   1  20
TORSDOF 5
ENDMDL
MODEL 3
REMARK VINA RESULT:      -8.8      4.016      9.055
REMARK  5 active torsions:
REMARK  status: ('A' for Active; 'I' for Inactive)
REMARK       I    between atoms: C1_2  and  N1_3 
REMARK    1  A    between atoms: C1_2  and  C16_22 
REMARK    2  A    between atoms: N1_3  and  C2_4 
REMARK    3  A    between atoms: C5_7  and  N2_8 
REMARK    4  A    between atoms: N2_8  and  C6_9 
REMARK    5  A    between atoms: C9_13  and  C10_14 
ROOT
HETATM    1  C2  UNL     1      25.963   4.490  49.860  1.00  0.00     0.033 A 
HETATM    2  C3  UNL     1      25.376   5.669  49.995  1.00  0.00     0.009 A 
HETATM    3  C4  UNL     1      26.098   6.696  49.194  1.00  0.00     0.087 A 
HETATM    4  C5  UNL     1      27.213   5.926  48.562  1.00  0.00     0.032 A 
HETATM    5  C15 UNL     1      27.108   4.675  48.960  1.00  0.00     0.055 A 
ENDROOT
BRANCH   4   6
HETATM    6  N2  UNL     1      28.197   6.436  47.699  1.00  0.00    -0.192 N 
HETATM    7  H5  UNL     1      27.949   6.506  46.692  1.00  0.00     0.184 HD
BRANCH   6   8
HETATM    8  C6  UNL     1      29.473   6.838  48.182  1.00  0.00     0.727 A 
HETATM    9  N3  UNL     1      29.632   8.031  48.755  1.00  0.00    -0.075 NA
HETATM   10  C7  UNL     1      30.873   8.374  49.203  1.00  0.00     0.139 A 
HETATM   11  C8  UNL     1      31.963   7.510  49.072  1.00  0.00     0.053 A 
HETATM   12  C9  UNL     1      31.746   6.296  48.475  1.00  0.00     0.089 A 
HETATM   13  N5  UNL     1      30.518   5.970  48.038  1.00  0.00    -0.062 NA
BRANCH  12  14
HETATM   14  C10 UNL     1      32.793   5.302  48.276  1.00  0.00     0.011 A 
HETATM   15  C11 UNL     1      32.446   4.065  47.774  1.00  0.00     0.017 A 
HETATM   16  C12 UNL     1      33.380   3.047  47.548  1.00  0.00     0.020 A 
HETATM   17  C13 UNL     1      34.721   3.301  47.847  1.00  0.00     0.116 A 
HETATM   18  N4  UNL     1      35.040   4.513  48.335  1.00  0.00    -0.272 NA
HETATM   19  C14 UNL     1      34.132   5.491  48.549  1.00  0.00     0.130 A 
ENDBRANCH  12  14
ENDBRANCH   6   8
ENDBRANCH   4   6
BRANCH   1  20
HETATM   20  N1  UNL     1      25.472   3.341  50.519  1.00  0.00    -0.323 N 
HETATM   21  C1  UNL     1      26.251   2.502  51.362  1.00  0.00     0.256 C 
HETATM   22  O1  UNL     1      27.456   2.822  51.518  1.00  0.00    -0.267 OA
HETATM   23  H1  UNL     1      24.472   3.102  50.370  1.00  0.00     0.169 HD
BRANCH  21  24
HETATM   24  C16 UNL     1      25.746   1.317  52.042  1.00  0.00     0.032 A 
HETATM   25  C17 UNL     1      24.437   1.359  52.465  1.00  0.00     0.017 A 
HETATM   26  C18 UNL     1      23.959   0.220  53.117  1.00  0.00     0.001 A 
HETATM   27  C19 UNL     1      24.688  -0.906  53.356  1.00  0.00     0.000 A 
HETATM   28  C20 UNL     1      26.009  -0.891  52.903  1.00  0.00     0.001 A 
HETATM   29  C21 UNL     1      26.534   0.209  52.253  1.00  0.00     0.017 A 
ENDBRANCH  21  24
ENDBRANCH   1  20
TORSDOF 5
ENDMDL
MODEL 4
REMARK VINA RESULT:      -8.7      1.736      4.421
REMARK  5 active torsions:
REMARK  status: ('A' for Active; 'I' for Inactive)
REMARK       I    between atoms: C1_2  and  N1_3 
REMARK    1  A    between atoms: C1_2  and  C16_22 
REMARK    2  A    between atoms: N1_3  and  C2_4 
REMARK    3  A    between atoms: C5_7  and  N2_8 
REMARK    4  A    between atoms: N2_8  and  C6_9 
REMARK    5  A    between atoms: C9_13  and  C10_14 
ROOT
HETATM    1  C2  UNL     1      26.465   1.891  51.816  1.00  0.00     0.033 A 
HETATM    2  C3  UNL     1      27.098   0.755  51.570  1.00  0.00     0.009 A 
HETATM    3  C4  UNL     1      26.557  -0.330  52.434  1.00  0.00     0.087 A 
HETATM    4  C5  UNL     1      25.496   0.356  53.233  1.00  0.00     0.032 A 
HETATM    5  C15 UNL     1      25.468   1.617  52.858  1.00  0.00     0.055 A 
ENDROOT
BRANCH   4   6
HETATM    6  N2  UNL     1      24.673  -0.233  54.208  1.00  0.00    -0.192 N 
HETATM    7  H5  UNL     1      25.124  -0.503  55.104  1.00  0.00     0.184 HD
BRANCH   6   8
HETATM    8  C6  UNL     1      23.286  -0.447  53.978  1.00  0.00     0.727 A 
HETATM    9  N3  UNL     1      22.558  -1.150  54.847  1.00  0.00    -0.075 NA
HETATM   10  C7  UNL     1      21.233  -1.330  54.585  1.00  0.00     0.139 A 
HETATM   11  C8  UNL     1      20.634  -0.800  53.439  1.00  0.00     0.053 A 
HETATM   12  C9  UNL     1      21.427  -0.087  52.578  1.00  0.00     0.089 A 
HETATM   13  N5  UNL     1      22.731   0.084  52.848  1.00  0.00    -0.062 NA
BRANCH  12  14
HETATM   14  C10 UNL     1      20.931   0.519  51.349  1.00  0.00     0.011 A 
HETATM   15  C11 UNL     1      21.843   0.976  50.421  1.00  0.00     0.017 A 
HETATM   16  C12 UNL     1      21.464   1.571  49.213  1.00  0.00     0.020 A 
HETATM   17  C13 UNL     1      20.099   1.707  48.940  1.00  0.00     0.116 A 
HETATM   18  N4  UNL     1      19.226   1.255  49.857  1.00  0.00    -0.272 NA
HETATM   19  C14 UNL     1      19.600   0.681  51.022  1.00  0.00     0.130 A 
ENDBRANCH  12  14
ENDBRANCH   6   8
ENDBRANCH   4   6
BRANCH   1  20
HETATM   20  N1  UNL     1      26.789   3.082  51.127  1.00  0.00    -0.323 N 
HETATM   21  C1  UNL     1      26.048   3.607  50.034  1.00  0.00     0.256 C 
HETATM   22  O1  UNL     1      25.038   2.952  49.670  1.00  0.00    -0.267 OA
HETATM   23  H1  UNL     1      27.630   3.601  51.450  1.00  0.00     0.169 HD
BRANCH  21  24
HETATM   24  C16 UNL     1      26.382   4.833  49.323  1.00  0.00     0.032 A 
HETATM   25  C17 UNL     1      27.636   4.900  48.761  1.00  0.00     0.017 A 
HETATM   26  C18 UNL     1      27.950   6.079  48.081  1.00  0.00     0.001 A 
HETATM   27  C19 UNL     1      27.113   7.145  47.941  1.00  0.00     0.000 A 
HETATM   28  C20 UNL     1      25.854   7.020  48.532  1.00  0.00     0.001 A 
HETATM   29  C21 UNL     1      25.491   5.877  49.217  1.00  0.00     0.017 A 
ENDBRANCH  21  24
ENDBRANCH   1  20
TORSDOF 5
ENDMDL
MODEL 5
REMARK VINA RESULT:      -8.4      4.769      8.223
REMARK  5 active torsions:
REMARK  status: ('A' for Active; 'I' for Inactive)
REMARK       I    between atoms: C1_2  and  N1_3 
REMARK    1  A    between atoms: C1_2  and  C16_22 
REMARK    2  A    between atoms: N1_3  and  C2_4 
REMARK    3  A    between atoms: C5_7  and  N2_8 
REMARK    4  A    between atoms: N2_8  and  C6_9 
REMARK    5  A    between atoms: C9_13  and  C10_14 
ROOT
HETATM    1  C2  UNL     1      23.475  -0.144  53.372  1.00  0.00     0.033 A 
HETATM    2  C3  UNL     1      22.772   0.963  53.191  1.00  0.00     0.009 A 
HETATM    3  C4  UNL     1      21.337   0.716  53.502  1.00  0.00     0.087 A 
HETATM    4  C5  UNL     1      21.309  -0.726  53.898  1.00  0.00     0.032 A 
HETATM    5  C15 UNL     1      22.539  -1.186  53.814  1.00  0.00     0.055 A 
ENDROOT
BRANCH   4   6
HETATM    6  N2  UNL     1      20.178  -1.462  54.290  1.00  0.00    -0.192 N 
HETATM    7  H5  UNL     1      20.270  -2.044  55.147  1.00  0.00     0.184 HD
BRANCH   6   8
HETATM    8  C6  UNL     1      18.966  -1.414  53.549  1.00  0.00     0.727 A 
HETATM    9  N3  UNL     1      18.680  -0.355  52.791  1.00  0.00    -0.075 NA
HETATM   10  C7  UNL     1      17.506  -0.352  52.099  1.00  0.00     0.139 A 
HETATM   11  C8  UNL     1      16.612  -1.423  52.169  1.00  0.00     0.053 A 
HETATM   12  C9  UNL     1      16.953  -2.486  52.963  1.00  0.00     0.089 A 
HETATM   13  N5  UNL     1      18.113  -2.477  53.640  1.00  0.00    -0.062 NA
BRANCH  12  14
HETATM   14  C10 UNL     1      16.113  -3.666  53.126  1.00  0.00     0.011 A 
HETATM   15  C11 UNL     1      16.526  -4.660  53.989  1.00  0.00     0.017 A 
HETATM   16  C12 UNL     1      15.789  -5.828  54.212  1.00  0.00     0.020 A 
HETATM   17  C13 UNL     1      14.581  -5.990  53.526  1.00  0.00     0.116 A 
HETATM   18  N4  UNL     1      14.195  -5.011  52.689  1.00  0.00    -0.272 NA
HETATM   19  C14 UNL     1      14.914  -3.885  52.480  1.00  0.00     0.130 A 
ENDBRANCH  12  14
ENDBRANCH   6   8
ENDBRANCH   4   6
BRANCH   1  20
HETATM   20  N1  UNL     1      24.869  -0.179  53.145  1.00  0.00    -0.323 N 
HETATM   21  C1  UNL     1      25.840  -0.473  54.140  1.00  0.00     0.256 C 
HETATM   22  O1  UNL     1      25.408  -0.715  55.296  1.00  0.00    -0.267 OA
HETATM   23  H1  UNL     1      25.196   0.025  52.180  1.00  0.00     0.169 HD
BRANCH  21  24
HETATM   24  C16 UNL     1      27.277  -0.510  53.907  1.00  0.00     0.032 A 
HETATM   25  C17 UNL     1      27.771  -1.627  53.272  1.00  0.00     0.017 A 
HETATM   26  C18 UNL     1      29.149  -1.657  53.051  1.00  0.00     0.001 A 
HETATM   27  C19 UNL     1      30.019  -0.673  53.415  1.00  0.00     0.000 A 
HETATM   28  C20 UNL     1      29.461   0.435  54.055  1.00  0.00     0.001 A 
HETATM   29  C21 UNL     1      28.104   0.517  54.299  1.00  0.00     0.017 A 
ENDBRANCH  21  24
ENDBRANCH   1  20
TORSDOF 5
ENDMDL
MODEL 6
REMARK VINA RESULT:      -8.4      3.608      9.825
REMARK  5 active torsions:
REMARK  status: ('A' for Active; 'I' for Inactive)
REMARK       I    between atoms: C1_2  and  N1_3 
REMARK    1  A    between atoms: C1_2  and  C16_22 
REMARK    2  A    between atoms: N1_3  and  C2_4 
REMARK    3  A    between atoms: C5_7  and  N2_8 
REMARK    4  A    between atoms: N2_8  and  C6_9 
REMARK    5  A    between atoms: C9_13  and  C10_14 
ROOT
HETATM    1  C2  UNL     1      25.742   4.153  49.831  1.00  0.00     0.033 A 
HETATM    2  C3  UNL     1      25.314   5.389  49.629  1.00  0.00     0.009 A 
HETATM    3  C4  UNL     1      26.332   6.167  48.871  1.00  0.00     0.087 A 
HETATM    4  C5  UNL     1      27.437   5.182  48.658  1.00  0.00     0.032 A 
HETATM    5  C15 UNL     1      27.071   4.047  49.215  1.00  0.00     0.055 A 
ENDROOT
BRANCH   4   6
HETATM    6  N2  UNL     1      28.648   5.417  47.986  1.00  0.00    -0.192 N 
HETATM    7  H5  UNL     1      28.801   4.902  47.097  1.00  0.00     0.184 HD
BRANCH   6   8
HETATM    8  C6  UNL     1      29.620   6.320  48.501  1.00  0.00     0.727 A 
HETATM    9  N3  UNL     1      30.803   5.870  48.922  1.00  0.00    -0.075 NA
HETATM   10  C7  UNL     1      31.703   6.771  49.407  1.00  0.00     0.139 A 
HETATM   11  C8  UNL     1      31.411   8.136  49.469  1.00  0.00     0.053 A 
HETATM   12  C9  UNL     1      30.181   8.546  49.025  1.00  0.00     0.089 A 
HETATM   13  N5  UNL     1      29.303   7.647  48.548  1.00  0.00    -0.062 NA
BRANCH  12  14
HETATM   14  C10 UNL     1      29.749   9.938  49.034  1.00  0.00     0.011 A 
HETATM   15  C11 UNL     1      30.708  10.929  49.060  1.00  0.00     0.017 A 
HETATM   16  C12 UNL     1      30.391  12.292  49.070  1.00  0.00     0.020 A 
HETATM   17  C13 UNL     1      29.043  12.659  49.052  1.00  0.00     0.116 A 
HETATM   18  N4  UNL     1      28.123  11.679  49.026  1.00  0.00    -0.272 NA
HETATM   19  C14 UNL     1      28.437  10.364  49.017  1.00  0.00     0.130 A 
ENDBRANCH  12  14
ENDBRANCH   6   8
ENDBRANCH   4   6
BRANCH   1  20
HETATM   20  N1  UNL     1      24.961   3.205  50.529  1.00  0.00    -0.323 N 
HETATM   21  C1  UNL     1      25.469   2.301  51.501  1.00  0.00     0.256 C 
HETATM   22  O1  UNL     1      26.702   2.365  51.741  1.00  0.00    -0.267 OA
HETATM   23  H1  UNL     1      23.945   3.175  50.309  1.00  0.00     0.169 HD
BRANCH  21  24
HETATM   24  C16 UNL     1      24.665   1.324  52.221  1.00  0.00     0.032 A 
HETATM   25  C17 UNL     1      25.322   0.546  53.148  1.00  0.00     0.017 A 
HETATM   26  C18 UNL     1      24.545  -0.389  53.835  1.00  0.00     0.001 A 
HETATM   27  C19 UNL     1      23.208  -0.578  53.652  1.00  0.00     0.000 A 
HETATM   28  C20 UNL     1      22.596   0.239  52.699  1.00  0.00     0.001 A 
HETATM   29  C21 UNL     1      23.316   1.180  51.990  1.00  0.00     0.017 A 
ENDBRANCH  21  24
ENDBRANCH   1  20
TORSDOF 5
ENDMDL
MODEL 7
REMARK VINA RESULT:      -8.3      1.905      6.488
REMARK  5 active torsions:
REMARK  status: ('A' for Active; 'I' for Inactive)
REMARK       I    between atoms: C1_2  and  N1_3 
REMARK    1  A    between atoms: C1_2  and  C16_22 
REMARK    2  A    between atoms: N1_3  and  C2_4 
REMARK    3  A    between atoms: C5_7  and  N2_8 
REMARK    4  A    between atoms: N2_8  and  C6_9 
REMARK    5  A    between atoms: C9_13  and  C10_14 
ROOT
HETATM    1  C2  UNL     1      23.837   0.130  53.220  1.00  0.00     0.033 A 
HETATM    2  C3  UNL     1      22.875  -0.764  53.058  1.00  0.00     0.009 A 
HETATM    3  C4  UNL     1      21.600  -0.087  52.695  1.00  0.00     0.087 A 
HETATM    4  C5  UNL     1      21.969   1.362  52.670  1.00  0.00     0.032 A 
HETATM    5  C15 UNL     1      23.247   1.453  52.972  1.00  0.00     0.055 A 
ENDROOT
BRANCH   4   6
HETATM    6  N2  UNL     1      21.113   2.437  52.377  1.00  0.00    -0.192 N 
HETATM    7  H5  UNL     1      20.126   2.351  52.689  1.00  0.00     0.184 HD
BRANCH   6   8
HETATM    8  C6  UNL     1      21.579   3.590  51.686  1.00  0.00     0.727 A 
HETATM    9  N3  UNL     1      20.793   4.659  51.551  1.00  0.00    -0.075 NA
HETATM   10  C7  UNL     1      21.282   5.741  50.881  1.00  0.00     0.139 A 
HETATM   11  C8  UNL     1      22.570   5.747  50.341  1.00  0.00     0.053 A 
HETATM   12  C9  UNL     1      23.336   4.623  50.507  1.00  0.00     0.089 A 
HETATM   13  N5  UNL     1      22.843   3.563  51.171  1.00  0.00    -0.062 NA
BRANCH  12  14
HETATM   14  C10 UNL     1      24.695   4.497  49.996  1.00  0.00     0.011 A 
HETATM   15  C11 UNL     1      25.260   5.572  49.343  1.00  0.00     0.017 A 
HETATM   16  C12 UNL     1      26.557   5.547  48.819  1.00  0.00     0.020 A 
HETATM   17  C13 UNL     1      27.309   4.378  48.966  1.00  0.00     0.116 A 
HETATM   18  N4  UNL     1      26.741   3.340  49.606  1.00  0.00    -0.272 NA
HETATM   19  C14 UNL     1      25.487   3.373  50.109  1.00  0.00     0.130 A 
ENDBRANCH  12  14
ENDBRANCH   6   8
ENDBRANCH   4   6
BRANCH   1  20
HETATM   20  N1  UNL     1      25.152  -0.252  53.568  1.00  0.00    -0.323 N 
HETATM   21  C1  UNL     1      26.289  -0.081  52.733  1.00  0.00     0.256 C 
HETATM   22  O1  UNL     1      26.089   0.449  51.611  1.00  0.00    -0.267 OA
HETATM   23  H1  UNL     1      25.285  -0.688  54.502  1.00  0.00     0.169 HD
BRANCH  21  24
HETATM   24  C16 UNL     1      27.644  -0.475  53.091  1.00  0.00     0.032 A 
HETATM   25  C17 UNL     1      27.960  -1.806  52.942  1.00  0.00     0.017 A 
HETATM   26  C18 UNL     1      29.261  -2.178  53.287  1.00  0.00     0.001 A 
HETATM   27  C19 UNL     1      30.218  -1.327  53.753  1.00  0.00     0.000 A 
HETATM   28  C20 UNL     1      29.840   0.011  53.884  1.00  0.00     0.001 A 
HETATM   29  C21 UNL     1      28.566   0.434  53.558  1.00  0.00     0.017 A 
ENDBRANCH  21  24
ENDBRANCH   1  20
TORSDOF 5
ENDMDL
MODEL 8
REMARK VINA RESULT:      -8.3      3.068      4.965
REMARK  5 active torsions:
REMARK  status: ('A' for Active; 'I' for Inactive)
REMARK       I    between atoms: C1_2  and  N1_3 
REMARK    1  A    between atoms: C1_2  and  C16_22 
REMARK    2  A    between atoms: N1_3  and  C2_4 
REMARK    3  A    between atoms: C5_7  and  N2_8 
REMARK    4  A    between atoms: N2_8  and  C6_9 
REMARK    5  A    between atoms: C9_13  and  C10_14 
ROOT
HETATM    1  C2  UNL     1      27.991   6.099  48.425  1.00  0.00     0.033 A 
HETATM    2  C3  UNL     1      26.979   6.831  48.863  1.00  0.00     0.009 A 
HETATM    3  C4  UNL     1      25.890   5.950  49.369  1.00  0.00     0.087 A 
HETATM    4  C5  UNL     1      26.429   4.571  49.156  1.00  0.00     0.032 A 
HETATM    5  C15 UNL     1      27.625   4.690  48.619  1.00  0.00     0.055 A 
ENDROOT
BRANCH   4   6
HETATM    6  N2  UNL     1      25.783   3.364  49.471  1.00  0.00    -0.192 N 
HETATM    7  H5  UNL     1      25.401   2.814  48.677  1.00  0.00     0.184 HD
BRANCH   6   8
HETATM    8  C6  UNL     1      25.660   2.916  50.816  1.00  0.00     0.727 A 
HETATM    9  N3  UNL     1      24.686   3.384  51.596  1.00  0.00    -0.075 NA
HETATM   10  C7  UNL     1      24.607   2.927  52.878  1.00  0.00     0.139 A 
HETATM   11  C8  UNL     1      25.515   1.991  53.378  1.00  0.00     0.053 A 
HETATM   12  C9  UNL     1      26.498   1.542  52.535  1.00  0.00     0.089 A 
HETATM   13  N5  UNL     1      26.564   2.001  51.274  1.00  0.00    -0.062 NA
BRANCH  12  14
HETATM   14  C10 UNL     1      27.507   0.567  52.928  1.00  0.00     0.011 A 
HETATM   15  C11 UNL     1      28.753   1.021  53.310  1.00  0.00     0.017 A 
HETATM   16  C12 UNL     1      29.786   0.163  53.704  1.00  0.00     0.020 A 
HETATM   17  C13 UNL     1      29.539  -1.213  53.709  1.00  0.00     0.116 A 
HETATM   18  N4  UNL     1      28.319  -1.636  53.334  1.00  0.00    -0.272 NA
HETATM   19  C14 UNL     1      27.326  -0.800  52.955  1.00  0.00     0.130 A 
ENDBRANCH  12  14
ENDBRANCH   6   8
ENDBRANCH   4   6
BRANCH   1  20
HETATM   20  N1  UNL     1      29.156   6.693  47.891  1.00  0.00    -0.323 N 
HETATM   21  C1  UNL     1      30.483   6.325  48.245  1.00  0.00     0.256 C 
HETATM   22  O1  UNL     1      30.606   5.405  49.093  1.00  0.00    -0.267 OA
HETATM   23  H1  UNL     1      29.023   7.451  47.193  1.00  0.00     0.169 HD
BRANCH  21  24
HETATM   24  C16 UNL     1      31.684   6.937  47.695  1.00  0.00     0.032 A 
HETATM   25  C17 UNL     1      31.766   8.310  47.766  1.00  0.00     0.017 A 
HETATM   26  C18 UNL     1      32.921   8.891  47.237  1.00  0.00     0.001 A 
HETATM   27  C19 UNL     1      33.950   8.202  46.667  1.00  0.00     0.000 A 
HETATM   28  C20 UNL     1      33.811   6.814  46.623  1.00  0.00     0.001 A 
HETATM   29  C21 UNL     1      32.691   6.186  47.131  1.00  0.00     0.017 A 
ENDBRANCH  21  24
ENDBRANCH   1  20
TORSDOF 5
ENDMDL
MODEL 9
REMARK VINA RESULT:      -8.2      3.071      6.888
REMARK  5 active torsions:
REMARK  status: ('A' for Active; 'I' for Inactive)
REMARK       I    between atoms: C1_2  and  N1_3 
REMARK    1  A    between atoms: C1_2  and  C16_22 
REMARK    2  A    between atoms: N1_3  and  C2_4 
REMARK    3  A    between atoms: C5_7  and  N2_8 
REMARK    4  A    between atoms: N2_8  and  C6_9 
REMARK    5  A    between atoms: C9_13  and  C10_14 
ROOT
HETATM    1  C2  UNL     1      22.880  -0.532  53.641  1.00  0.00     0.033 A 
HETATM    2  C3  UNL     1      22.125  -0.465  54.726  1.00  0.00     0.009 A 
HETATM    3  C4  UNL     1      20.726  -0.111  54.356  1.00  0.00     0.087 A 
HETATM    4  C5  UNL     1      20.782   0.021  52.868  1.00  0.00     0.032 A 
HETATM    5  C15 UNL     1      22.019  -0.225  52.492  1.00  0.00     0.055 A 
ENDROOT
BRANCH   4   6
HETATM    6  N2  UNL     1      19.712   0.346  52.017  1.00  0.00    -0.192 N 
HETATM    7  H5  UNL     1      19.147  -0.445  51.648  1.00  0.00     0.184 HD
BRANCH   6   8
HETATM    8  C6  UNL     1      19.416   1.695  51.678  1.00  0.00     0.727 A 
HETATM    9  N3  UNL     1      18.161   2.068  51.427  1.00  0.00    -0.075 NA
HETATM   10  C7  UNL     1      17.924   3.372  51.106  1.00  0.00     0.139 A 
HETATM   11  C8  UNL     1      18.959   4.308  51.036  1.00  0.00     0.053 A 
HETATM   12  C9  UNL     1      20.231   3.872  51.303  1.00  0.00     0.089 A 
HETATM   13  N5  UNL     1      20.450   2.585  51.619  1.00  0.00    -0.062 NA
BRANCH  12  14
HETATM   14  C10 UNL     1      21.400   4.742  51.266  1.00  0.00     0.011 A 
HETATM   15  C11 UNL     1      21.261   6.018  50.760  1.00  0.00     0.017 A 
HETATM   16  C12 UNL     1      22.323   6.925  50.684  1.00  0.00     0.020 A 
HETATM   17  C13 UNL     1      23.578   6.515  51.143  1.00  0.00     0.116 A 
HETATM   18  N4  UNL     1      23.694   5.269  51.633  1.00  0.00    -0.272 NA
HETATM   19  C14 UNL     1      22.662   4.398  51.703  1.00  0.00     0.130 A 
ENDBRANCH  12  14
ENDBRANCH   6   8
ENDBRANCH   4   6
BRANCH   1  20
HETATM   20  N1  UNL     1      24.254  -0.851  53.717  1.00  0.00    -0.323 N 
HETATM   21  C1  UNL     1      25.308   0.097  53.618  1.00  0.00     0.256 C 
HETATM   22  O1  UNL     1      24.973   1.298  53.454  1.00  0.00    -0.267 OA
HETATM   23  H1  UNL     1      24.500  -1.852  53.853  1.00  0.00     0.169 HD
BRANCH  21  24
HETATM   24  C16 UNL     1      26.725  -0.231  53.696  1.00  0.00     0.032 A 
HETATM   25  C17 UNL     1      27.162  -1.271  52.907  1.00  0.00     0.017 A 
HETATM   26  C18 UNL     1      28.521  -1.581  52.986  1.00  0.00     0.001 A 
HETATM   27  C19 UNL     1      29.424  -0.935  53.776  1.00  0.00     0.000 A 
HETATM   28  C20 UNL     1      28.924   0.111  54.554  1.00  0.00     0.001 A 
HETATM   29  C21 UNL     1      27.588   0.461  54.515  1.00  0.00     0.017 A 
ENDBRANCH  21  24
ENDBRANCH   1  20
TORSDOF 5
ENDMDL
