MODEL 1
REMARK VINA RESULT:      -7.2      0.000      0.000
REMARK  10 active torsions:
REMARK  status: ('A' for Active; 'I' for Inactive)
REMARK    1  A    between atoms: C2_2  and  C3_3 
REMARK    2  A    between atoms: C2_2  and  C15_18 
REMARK    3  A    between atoms: C3_3  and  N1_4 
REMARK    4  A    between atoms: N1_4  and  C4_5 
REMARK       I    between atoms: N1_4  and  C8_9 
REMARK    5  A    between atoms: C4_5  and  C5_6 
REMARK    6  A    between atoms: C5_6  and  C6_7 
REMARK       I    between atoms: C8_9  and  N2_11 
REMARK    7  A    between atoms: N2_11  and  C9_12 
REMARK    8  A    between atoms: C15_18  and  C19_23 
REMARK    9  A    between atoms: C16_19  and  C17_20 
REMARK   10  A    between atoms: C19_23  and  O2_24 
ROOT
HETATM    1  N1  UNL     1      23.294  -0.497  53.619  1.00  0.00    -0.330 N 
HETATM    2  C8  UNL     1      24.689  -0.664  53.980  1.00  0.00     0.323 C 
HETATM    3  O1  UNL     1      25.043  -1.126  55.123  1.00  0.00    -0.247 OA
HETATM    4  N2  UNL     1      25.779  -0.349  53.139  1.00  0.00    -0.309 N 
HETATM    5  H14 UNL     1      25.433   0.037  52.235  1.00  0.00     0.170 HD
ENDROOT
BRANCH   1   6
HETATM    6  C3  UNL     1      22.959   0.004  52.300  1.00  0.00     0.166 C 
BRANCH   6   7
HETATM    7  C2  UNL     1      22.869   1.457  52.259  1.00  0.00    -0.041 C 
HETATM    8  C1  UNL     1      21.807   2.226  52.312  1.00  0.00     0.021 C 
BRANCH   7   9
HETATM    9  C15 UNL     1      23.929   2.426  52.179  1.00  0.00    -0.026 C 
HETATM   10  C16 UNL     1      24.466   2.416  50.972  1.00  0.00     0.038 C 
BRANCH  10  11
HETATM   11  C17 UNL     1      25.546   3.176  50.363  1.00  0.00     0.049 A 
HETATM   12  N3  UNL     1      26.868   3.589  49.811  1.00  0.00    -0.286 NA
HETATM   13  C18 UNL     1      25.821   4.508  49.785  1.00  0.00     0.207 A 
ENDBRANCH  10  11
BRANCH   9  14
HETATM   14  C19 UNL     1      24.487   3.400  53.131  1.00  0.00     0.203 C 
BRANCH  14  15
HETATM   15  O2  UNL     1      25.561   2.820  53.832  1.00  0.00    -0.396 OA
HETATM   16  H25 UNL     1      25.533   1.838  53.614  1.00  0.00     0.209 HD
ENDBRANCH  14  15
ENDBRANCH   9  14
ENDBRANCH   7   9
ENDBRANCH   6   7
ENDBRANCH   1   6
BRANCH   1  17
HETATM   17  C4  UNL     1      22.383  -0.887  54.714  1.00  0.00     0.128 C 
BRANCH  17  18
HETATM   18  C5  UNL     1      21.137  -1.543  54.232  1.00  0.00     0.020 C 
BRANCH  18  19
HETATM   19  C6  UNL     1      20.076  -0.466  54.028  1.00  0.00    -0.003 C 
HETATM   20  C7  UNL     1      18.873  -1.072  53.343  1.00  0.00     0.005 C 
ENDBRANCH  18  19
ENDBRANCH  17  18
ENDBRANCH   1  17
BRANCH   4  21
HETATM   21  C9  UNL     1      27.173  -0.459  53.322  1.00  0.00     0.036 A 
HETATM   22  C10 UNL     1      28.072   0.480  53.758  1.00  0.00     0.029 A 
HETATM   23  C11 UNL     1      29.427   0.330  53.926  1.00  0.00     0.002 A 
HETATM   24  C12 UNL     1      29.909  -0.920  53.611  1.00  0.00     0.000 A 
HETATM   25  C13 UNL     1      29.107  -1.927  53.169  1.00  0.00     0.002 A 
HETATM   26  C14 UNL     1      27.765  -1.683  53.034  1.00  0.00     0.029 A 
ENDBRANCH   4  21
TORSDOF 10
ENDMDL
MODEL 2
REMARK VINA RESULT:      -7.2      2.029      5.551
REMARK  10 active torsions:
REMARK  status: ('A' for Active; 'I' for Inactive)
REMARK    1  A    between atoms: C2_2  and  C3_3 
REMARK    2  A    between atoms: C2_2  and  C15_18 
REMARK    3  A    between atoms: C3_3  and  N1_4 
REMARK    4  A    between atoms: N1_4  and  C4_5 
REMARK       I    between atoms: N1_4  and  C8_9 
REMARK    5  A    between atoms: C4_5  and  C5_6 
REMARK    6  A    between atoms: C5_6  and  C6_7 
REMARK       I    between atoms: C8_9  and  N2_11 
REMARK    7  A    between atoms: N2_11  and  C9_12 
REMARK    8  A    between atoms: C15_18  and  C19_23 
REMARK    9  A    between atoms: C16_19  and  C17_20 
REMARK   10  A    between atoms: C19_23  and  O2_24 
ROOT
HETATM    1  N1  UNL     1      23.418   2.033  51.652  1.00  0.00    -0.330 N 
HETATM    2  C8  UNL     1      24.062   2.854  50.646  1.00  0.00     0.323 C 
HETATM    3  O1  UNL     1      23.625   2.922  49.443  1.00  0.00    -0.247 OA
HETATM    4  N2  UNL     1      25.207   3.651  50.873  1.00  0.00    -0.309 N 
HETATM    5  H14 UNL     1      25.527   3.544  51.858  1.00  0.00     0.170 HD
ENDROOT
BRANCH   1   6
HETATM    6  C3  UNL     1      23.945   2.023  53.003  1.00  0.00     0.166 C 
BRANCH   6   7
HETATM    7  C2  UNL     1      24.824   0.889  53.253  1.00  0.00    -0.041 C 
HETATM    8  C1  UNL     1      24.526  -0.384  53.367  1.00  0.00     0.021 C 
BRANCH   7   9
HETATM    9  C15 UNL     1      26.254   0.871  53.411  1.00  0.00    -0.026 C 
HETATM   10  C16 UNL     1      26.707  -0.367  53.322  1.00  0.00     0.038 C 
BRANCH  10  11
HETATM   11  C17 UNL     1      28.040  -0.940  53.406  1.00  0.00     0.049 A 
HETATM   12  N3  UNL     1      29.197  -1.881  53.364  1.00  0.00    -0.286 NA
HETATM   13  C18 UNL     1      29.427  -0.562  53.750  1.00  0.00     0.207 A 
ENDBRANCH  10  11
BRANCH   9  14
HETATM   14  C19 UNL     1      27.264   1.921  53.616  1.00  0.00     0.203 C 
BRANCH  14  15
HETATM   15  O2  UNL     1      27.622   2.487  52.378  1.00  0.00    -0.396 OA
HETATM   16  H25 UNL     1      27.242   3.419  52.382  1.00  0.00     0.209 HD
ENDBRANCH  14  15
ENDBRANCH   9  14
ENDBRANCH   7   9
ENDBRANCH   6   7
ENDBRANCH   1   6
BRANCH   1  17
HETATM   17  C4  UNL     1      22.258   1.295  51.112  1.00  0.00     0.128 C 
BRANCH  17  18
HETATM   18  C5  UNL     1      21.043   1.412  51.963  1.00  0.00     0.020 C 
BRANCH  18  19
HETATM   19  C6  UNL     1      20.833   0.085  52.686  1.00  0.00    -0.003 C 
HETATM   20  C7  UNL     1      20.886   0.314  54.178  1.00  0.00     0.005 C 
ENDBRANCH  18  19
ENDBRANCH  17  18
ENDBRANCH   1  17
BRANCH   4  21
HETATM   21  C9  UNL     1      25.943   4.506  50.026  1.00  0.00     0.036 A 
HETATM   22  C10 UNL     1      27.051   4.237  49.265  1.00  0.00     0.029 A 
HETATM   23  C11 UNL     1      27.738   5.101  48.449  1.00  0.00     0.002 A 
HETATM   24  C12 UNL     1      27.231   6.381  48.411  1.00  0.00     0.000 A 
HETATM   25  C13 UNL     1      26.136   6.758  49.126  1.00  0.00     0.002 A 
HETATM   26  C14 UNL     1      25.515   5.823  49.914  1.00  0.00     0.029 A 
ENDBRANCH   4  21
TORSDOF 10
ENDMDL
MODEL 3
REMARK VINA RESULT:      -7.1      2.094      5.594
REMARK  10 active torsions:
REMARK  status: ('A' for Active; 'I' for Inactive)
REMARK    1  A    between atoms: C2_2  and  C3_3 
REMARK    2  A    between atoms: C2_2  and  C15_18 
REMARK    3  A    between atoms: C3_3  and  N1_4 
REMARK    4  A    between atoms: N1_4  and  C4_5 
REMARK       I    between atoms: N1_4  and  C8_9 
REMARK    5  A    between atoms: C4_5  and  C5_6 
REMARK    6  A    between atoms: C5_6  and  C6_7 
REMARK       I    between atoms: C8_9  and  N2_11 
REMARK    7  A    between atoms: N2_11  and  C9_12 
REMARK    8  A    between atoms: C15_18  and  C19_23 
REMARK    9  A    between atoms: C16_19  and  C17_20 
REMARK   10  A    between atoms: C19_23  and  O2_24 
ROOT
HETATM    1  N1  UNL     1      24.775   3.361  51.056  1.00  0.00    -0.330 N 
HETATM    2  C8  UNL     1      25.974   2.588  51.321  1.00  0.00     0.323 C 
HETATM    3  O1  UNL     1      26.995   2.633  50.548  1.00  0.00    -0.247 OA
HETATM    4  N2  UNL     1      26.146   1.728  52.429  1.00  0.00    -0.309 N 
HETATM    5  H14 UNL     1      25.282   1.718  53.011  1.00  0.00     0.170 HD
ENDROOT
BRANCH   1   6
HETATM    6  C3  UNL     1      23.665   3.288  51.986  1.00  0.00     0.166 C 
BRANCH   6   7
HETATM    7  C2  UNL     1      22.792   2.150  51.729  1.00  0.00    -0.041 C 
HETATM    8  C1  UNL     1      22.563   1.517  50.603  1.00  0.00     0.021 C 
BRANCH   7   9
HETATM    9  C15 UNL     1      21.976   1.410  52.654  1.00  0.00    -0.026 C 
HETATM   10  C16 UNL     1      22.677   0.428  53.194  1.00  0.00     0.038 C 
BRANCH  10  11
HETATM   11  C17 UNL     1      22.350  -0.600  54.169  1.00  0.00     0.049 A 
HETATM   12  N3  UNL     1      21.640  -1.650  54.955  1.00  0.00    -0.286 NA
HETATM   13  C18 UNL     1      22.945  -1.320  55.314  1.00  0.00     0.207 A 
ENDBRANCH  10  11
BRANCH   9  14
HETATM   14  C19 UNL     1      20.585   1.545  53.112  1.00  0.00     0.203 C 
BRANCH  14  15
HETATM   15  O2  UNL     1      20.118   2.845  52.842  1.00  0.00    -0.396 OA
HETATM   16  H25 UNL     1      19.424   3.039  53.546  1.00  0.00     0.209 HD
ENDBRANCH  14  15
ENDBRANCH   9  14
ENDBRANCH   7   9
ENDBRANCH   6   7
ENDBRANCH   1   6
BRANCH   1  17
HETATM   17  C4  UNL     1      24.881   4.147  49.810  1.00  0.00     0.128 C 
BRANCH  17  18
HETATM   18  C5  UNL     1      25.275   5.562  50.044  1.00  0.00     0.020 C 
BRANCH  18  19
HETATM   19  C6  UNL     1      25.946   6.089  48.779  1.00  0.00    -0.003 C 
HETATM   20  C7  UNL     1      27.310   5.456  48.635  1.00  0.00     0.005 C 
ENDBRANCH  18  19
ENDBRANCH  17  18
ENDBRANCH   1  17
BRANCH   4  21
HETATM   21  C9  UNL     1      27.231   0.927  52.840  1.00  0.00     0.036 A 
HETATM   22  C10 UNL     1      28.427   1.299  53.398  1.00  0.00     0.029 A 
HETATM   23  C11 UNL     1      29.460   0.483  53.788  1.00  0.00     0.002 A 
HETATM   24  C12 UNL     1      29.240  -0.860  53.583  1.00  0.00     0.000 A 
HETATM   25  C13 UNL     1      28.090  -1.341  53.037  1.00  0.00     0.002 A 
HETATM   26  C14 UNL     1      27.113  -0.448  52.679  1.00  0.00     0.029 A 
ENDBRANCH   4  21
TORSDOF 10
ENDMDL
MODEL 4
REMARK VINA RESULT:      -7.1      1.425      2.220
REMARK  10 active torsions:
REMARK  status: ('A' for Active; 'I' for Inactive)
REMARK    1  A    between atoms: C2_2  and  C3_3 
REMARK    2  A    between atoms: C2_2  and  C15_18 
REMARK    3  A    between atoms: C3_3  and  N1_4 
REMARK    4  A    between atoms: N1_4  and  C4_5 
REMARK       I    between atoms: N1_4  and  C8_9 
REMARK    5  A    between atoms: C4_5  and  C5_6 
REMARK    6  A    between atoms: C5_6  and  C6_7 
REMARK       I    between atoms: C8_9  and  N2_11 
REMARK    7  A    between atoms: N2_11  and  C9_12 
REMARK    8  A    between atoms: C15_18  and  C19_23 
REMARK    9  A    between atoms: C16_19  and  C17_20 
REMARK   10  A    between atoms: C19_23  and  O2_24 
ROOT
HETATM    1  N1  UNL     1      23.605   0.810  52.665  1.00  0.00    -0.330 N 
HETATM    2  C8  UNL     1      24.821   0.217  53.190  1.00  0.00     0.323 C 
HETATM    3  O1  UNL     1      24.837  -0.427  54.298  1.00  0.00    -0.247 OA
HETATM    4  N2  UNL     1      26.082   0.278  52.556  1.00  0.00    -0.309 N 
HETATM    5  H14 UNL     1      26.011   0.825  51.672  1.00  0.00     0.170 HD
ENDROOT
BRANCH   1   6
HETATM    6  C3  UNL     1      23.647   1.500  51.390  1.00  0.00     0.166 C 
BRANCH   6   7
HETATM    7  C2  UNL     1      24.138   2.867  51.509  1.00  0.00    -0.041 C 
HETATM    8  C1  UNL     1      23.803   3.797  52.371  1.00  0.00     0.021 C 
BRANCH   7   9
HETATM    9  C15 UNL     1      25.141   3.538  50.727  1.00  0.00    -0.026 C 
HETATM   10  C16 UNL     1      24.703   4.723  50.343  1.00  0.00     0.038 C 
BRANCH  10  11
HETATM   11  C17 UNL     1      25.297   5.789  49.552  1.00  0.00     0.049 A 
HETATM   12  N3  UNL     1      25.787   6.623  48.418  1.00  0.00    -0.286 NA
HETATM   13  C18 UNL     1      25.973   7.093  49.716  1.00  0.00     0.207 A 
ENDBRANCH  10  11
BRANCH   9  14
HETATM   14  C19 UNL     1      26.509   3.184  50.313  1.00  0.00     0.203 C 
BRANCH  14  15
HETATM   15  O2  UNL     1      27.333   3.057  51.447  1.00  0.00    -0.396 OA
HETATM   16  H25 UNL     1      26.788   2.552  52.127  1.00  0.00     0.209 HD
ENDBRANCH  14  15
ENDBRANCH   9  14
ENDBRANCH   7   9
ENDBRANCH   6   7
ENDBRANCH   1   6
BRANCH   1  17
HETATM   17  C4  UNL     1      22.450   0.603  53.561  1.00  0.00     0.128 C 
BRANCH  17  18
HETATM   18  C5  UNL     1      21.199   0.259  52.834  1.00  0.00     0.020 C 
BRANCH  18  19
HETATM   19  C6  UNL     1      20.445  -0.792  53.644  1.00  0.00    -0.003 C 
HETATM   20  C7  UNL     1      21.417  -1.527  54.537  1.00  0.00     0.005 C 
ENDBRANCH  18  19
ENDBRANCH  17  18
ENDBRANCH   1  17
BRANCH   4  21
HETATM   21  C9  UNL     1      27.342  -0.245  52.913  1.00  0.00     0.036 A 
HETATM   22  C10 UNL     1      27.795  -1.539  52.863  1.00  0.00     0.029 A 
HETATM   23  C11 UNL     1      29.035  -2.008  53.219  1.00  0.00     0.002 A 
HETATM   24  C12 UNL     1      29.904  -1.043  53.676  1.00  0.00     0.000 A 
HETATM   25  C13 UNL     1      29.561   0.271  53.766  1.00  0.00     0.002 A 
HETATM   26  C14 UNL     1      28.298   0.645  53.386  1.00  0.00     0.029 A 
ENDBRANCH   4  21
TORSDOF 10
ENDMDL
MODEL 5
REMARK VINA RESULT:      -7.0      2.399      6.200
REMARK  10 active torsions:
REMARK  status: ('A' for Active; 'I' for Inactive)
REMARK    1  A    between atoms: C2_2  and  C3_3 
REMARK    2  A    between atoms: C2_2  and  C15_18 
REMARK    3  A    between atoms: C3_3  and  N1_4 
REMARK    4  A    between atoms: N1_4  and  C4_5 
REMARK       I    between atoms: N1_4  and  C8_9 
REMARK    5  A    between atoms: C4_5  and  C5_6 
REMARK    6  A    between atoms: C5_6  and  C6_7 
REMARK       I    between atoms: C8_9  and  N2_11 
REMARK    7  A    between atoms: N2_11  and  C9_12 
REMARK    8  A    between atoms: C15_18  and  C19_23 
REMARK    9  A    between atoms: C16_19  and  C17_20 
REMARK   10  A    between atoms: C19_23  and  O2_24 
ROOT
HETATM    1  N1  UNL     1      23.429   3.010  51.321  1.00  0.00    -0.330 N 
HETATM    2  C8  UNL     1      24.107   3.839  50.343  1.00  0.00     0.323 C 
HETATM    3  O1  UNL     1      23.561   4.158  49.228  1.00  0.00    -0.247 OA
HETATM    4  N2  UNL     1      25.405   4.375  50.506  1.00  0.00    -0.309 N 
HETATM    5  H14 UNL     1      25.805   4.070  51.418  1.00  0.00     0.170 HD
ENDROOT
BRANCH   1   6
HETATM    6  C3  UNL     1      24.091   2.710  52.576  1.00  0.00     0.166 C 
BRANCH   6   7
HETATM    7  C2  UNL     1      24.797   1.437  52.547  1.00  0.00    -0.041 C 
HETATM    8  C1  UNL     1      25.832   1.077  51.825  1.00  0.00     0.021 C 
BRANCH   7   9
HETATM    9  C15 UNL     1      24.558   0.252  53.327  1.00  0.00    -0.026 C 
HETATM   10  C16 UNL     1      23.266   0.121  53.570  1.00  0.00     0.038 C 
BRANCH  10  11
HETATM   11  C17 UNL     1      22.492  -0.874  54.296  1.00  0.00     0.049 A 
HETATM   12  N3  UNL     1      22.082  -1.965  55.226  1.00  0.00    -0.286 NA
HETATM   13  C18 UNL     1      21.118  -1.408  54.389  1.00  0.00     0.207 A 
ENDBRANCH  10  11
BRANCH   9  14
HETATM   14  C19 UNL     1      25.431  -0.806  53.859  1.00  0.00     0.203 C 
BRANCH  14  15
HETATM   15  O2  UNL     1      25.865  -0.460  55.153  1.00  0.00    -0.396 OA
HETATM   16  H25 UNL     1      25.871  -1.319  55.679  1.00  0.00     0.209 HD
ENDBRANCH  14  15
ENDBRANCH   9  14
ENDBRANCH   7   9
ENDBRANCH   6   7
ENDBRANCH   1   6
BRANCH   1  17
HETATM   17  C4  UNL     1      22.094   2.580  50.859  1.00  0.00     0.128 C 
BRANCH  17  18
HETATM   18  C5  UNL     1      22.132   1.344  50.031  1.00  0.00     0.020 C 
BRANCH  18  19
HETATM   19  C6  UNL     1      21.267   0.286  50.709  1.00  0.00    -0.003 C 
HETATM   20  C7  UNL     1      20.025   0.939  51.270  1.00  0.00     0.005 C 
ENDBRANCH  18  19
ENDBRANCH  17  18
ENDBRANCH   1  17
BRANCH   4  21
HETATM   21  C9  UNL     1      26.196   5.196  49.677  1.00  0.00     0.036 A 
HETATM   22  C10 UNL     1      26.018   6.510  49.327  1.00  0.00     0.029 A 
HETATM   23  C11 UNL     1      26.816   7.278  48.516  1.00  0.00     0.002 A 
HETATM   24  C12 UNL     1      27.917   6.625  48.009  1.00  0.00     0.000 A 
HETATM   25  C13 UNL     1      28.191   5.322  48.291  1.00  0.00     0.002 A 
HETATM   26  C14 UNL     1      27.335   4.636  49.113  1.00  0.00     0.029 A 
ENDBRANCH   4  21
TORSDOF 10
ENDMDL
MODEL 6
REMARK VINA RESULT:      -6.9      2.860      3.998
REMARK  10 active torsions:
REMARK  status: ('A' for Active; 'I' for Inactive)
REMARK    1  A    between atoms: C2_2  and  C3_3 
REMARK    2  A    between atoms: C2_2  and  C15_18 
REMARK    3  A    between atoms: C3_3  and  N1_4 
REMARK    4  A    between atoms: N1_4  and  C4_5 
REMARK       I    between atoms: N1_4  and  C8_9 
REMARK    5  A    between atoms: C4_5  and  C5_6 
REMARK    6  A    between atoms: C5_6  and  C6_7 
REMARK       I    between atoms: C8_9  and  N2_11 
REMARK    7  A    between atoms: N2_11  and  C9_12 
REMARK    8  A    between atoms: C15_18  and  C19_23 
REMARK    9  A    between atoms: C16_19  and  C17_20 
REMARK   10  A    between atoms: C19_23  and  O2_24 
ROOT
HETATM    1  N1  UNL     1      23.858   2.670  51.827  1.00  0.00    -0.330 N 
HETATM    2  C8  UNL     1      24.997   2.164  52.569  1.00  0.00     0.323 C 
HETATM    3  O1  UNL     1      25.194   2.466  53.799  1.00  0.00    -0.247 OA
HETATM    4  N2  UNL     1      25.985   1.305  52.036  1.00  0.00    -0.309 N 
HETATM    5  H14 UNL     1      25.783   1.109  51.034  1.00  0.00     0.170 HD
ENDROOT
BRANCH   1   6
HETATM    6  C3  UNL     1      23.676   2.266  50.446  1.00  0.00     0.166 C 
BRANCH   6   7
HETATM    7  C2  UNL     1      24.059   3.309  49.503  1.00  0.00    -0.041 C 
HETATM    8  C1  UNL     1      23.342   3.892  48.572  1.00  0.00     0.021 C 
BRANCH   7   9
HETATM    9  C15 UNL     1      25.320   3.989  49.371  1.00  0.00    -0.026 C 
HETATM   10  C16 UNL     1      25.125   5.289  49.241  1.00  0.00     0.038 C 
BRANCH  10  11
HETATM   11  C17 UNL     1      26.032   6.414  49.078  1.00  0.00     0.049 A 
HETATM   12  N3  UNL     1      26.820   7.659  49.306  1.00  0.00    -0.286 NA
HETATM   13  C18 UNL     1      26.972   6.990  48.094  1.00  0.00     0.207 A 
ENDBRANCH  10  11
BRANCH   9  14
HETATM   14  C19 UNL     1      26.721   3.539  49.380  1.00  0.00     0.203 C 
BRANCH  14  15
HETATM   15  O2  UNL     1      27.262   3.689  50.670  1.00  0.00    -0.396 OA
HETATM   16  H25 UNL     1      27.341   4.681  50.822  1.00  0.00     0.209 HD
ENDBRANCH  14  15
ENDBRANCH   9  14
ENDBRANCH   7   9
ENDBRANCH   6   7
ENDBRANCH   1   6
BRANCH   1  17
HETATM   17  C4  UNL     1      23.013   3.565  52.642  1.00  0.00     0.128 C 
BRANCH  17  18
HETATM   18  C5  UNL     1      23.175   5.002  52.292  1.00  0.00     0.020 C 
BRANCH  18  19
HETATM   19  C6  UNL     1      21.902   5.472  51.594  1.00  0.00    -0.003 C 
HETATM   20  C7  UNL     1      22.180   6.766  50.865  1.00  0.00     0.005 C 
ENDBRANCH  18  19
ENDBRANCH  17  18
ENDBRANCH   1  17
BRANCH   4  21
HETATM   21  C9  UNL     1      27.131   0.718  52.610  1.00  0.00     0.036 A 
HETATM   22  C10 UNL     1      28.234   1.317  53.163  1.00  0.00     0.029 A 
HETATM   23  C11 UNL     1      29.332   0.706  53.716  1.00  0.00     0.002 A 
HETATM   24  C12 UNL     1      29.292  -0.670  53.699  1.00  0.00     0.000 A 
HETATM   25  C13 UNL     1      28.248  -1.368  53.177  1.00  0.00     0.002 A 
HETATM   26  C14 UNL     1      27.194  -0.669  52.647  1.00  0.00     0.029 A 
ENDBRANCH   4  21
TORSDOF 10
ENDMDL
MODEL 7
REMARK VINA RESULT:      -6.6      2.282      6.180
REMARK  10 active torsions:
REMARK  status: ('A' for Active; 'I' for Inactive)
REMARK    1  A    between atoms: C2_2  and  C3_3 
REMARK    2  A    between atoms: C2_2  and  C15_18 
REMARK    3  A    between atoms: C3_3  and  N1_4 
REMARK    4  A    between atoms: N1_4  and  C4_5 
REMARK       I    between atoms: N1_4  and  C8_9 
REMARK    5  A    between atoms: C4_5  and  C5_6 
REMARK    6  A    between atoms: C5_6  and  C6_7 
REMARK       I    between atoms: C8_9  and  N2_11 
REMARK    7  A    between atoms: N2_11  and  C9_12 
REMARK    8  A    between atoms: C15_18  and  C19_23 
REMARK    9  A    between atoms: C16_19  and  C17_20 
REMARK   10  A    between atoms: C19_23  and  O2_24 
ROOT
HETATM    1  N1  UNL     1      23.507   2.826  50.311  1.00  0.00    -0.330 N 
HETATM    2  C8  UNL     1      22.659   1.778  50.845  1.00  0.00     0.323 C 
HETATM    3  O1  UNL     1      21.859   1.107  50.100  1.00  0.00    -0.247 OA
HETATM    4  N2  UNL     1      22.622   1.388  52.202  1.00  0.00    -0.309 N 
HETATM    5  H14 UNL     1      23.277   1.976  52.760  1.00  0.00     0.170 HD
ENDROOT
BRANCH   1   6
HETATM    6  C3  UNL     1      24.412   3.527  51.201  1.00  0.00     0.166 C 
BRANCH   6   7
HETATM    7  C2  UNL     1      25.699   2.857  51.333  1.00  0.00    -0.041 C 
HETATM    8  C1  UNL     1      26.750   2.914  50.550  1.00  0.00     0.021 C 
BRANCH   7   9
HETATM    9  C15 UNL     1      26.157   1.980  52.377  1.00  0.00    -0.026 C 
HETATM   10  C16 UNL     1      26.520   0.816  51.868  1.00  0.00     0.038 C 
BRANCH  10  11
HETATM   11  C17 UNL     1      27.046  -0.403  52.462  1.00  0.00     0.049 A 
HETATM   12  N3  UNL     1      27.897  -1.382  53.197  1.00  0.00    -0.286 NA
HETATM   13  C18 UNL     1      26.726  -1.839  52.596  1.00  0.00     0.207 A 
ENDBRANCH  10  11
BRANCH   9  14
HETATM   14  C19 UNL     1      26.317   2.132  53.832  1.00  0.00     0.203 C 
BRANCH  14  15
HETATM   15  O2  UNL     1      27.493   2.854  54.110  1.00  0.00    -0.396 OA
HETATM   16  H25 UNL     1      27.316   3.796  53.802  1.00  0.00     0.209 HD
ENDBRANCH  14  15
ENDBRANCH   9  14
ENDBRANCH   7   9
ENDBRANCH   6   7
ENDBRANCH   1   6
BRANCH   1  17
HETATM   17  C4  UNL     1      23.306   3.023  48.861  1.00  0.00     0.128 C 
BRANCH  17  18
HETATM   18  C5  UNL     1      22.530   4.251  48.540  1.00  0.00     0.020 C 
BRANCH  18  19
HETATM   19  C6  UNL     1      23.516   5.387  48.281  1.00  0.00    -0.003 C 
HETATM   20  C7  UNL     1      23.242   6.517  49.245  1.00  0.00     0.005 C 
ENDBRANCH  18  19
ENDBRANCH  17  18
ENDBRANCH   1  17
BRANCH   4  21
HETATM   21  C9  UNL     1      21.881   0.398  52.879  1.00  0.00     0.036 A 
HETATM   22  C10 UNL     1      20.523   0.220  52.946  1.00  0.00     0.029 A 
HETATM   23  C11 UNL     1      19.837  -0.763  53.616  1.00  0.00     0.002 A 
HETATM   24  C12 UNL     1      20.635  -1.661  54.290  1.00  0.00     0.000 A 
HETATM   25  C13 UNL     1      21.993  -1.580  54.291  1.00  0.00     0.002 A 
HETATM   26  C14 UNL     1      22.588  -0.562  53.591  1.00  0.00     0.029 A 
ENDBRANCH   4  21
TORSDOF 10
ENDMDL
MODEL 8
REMARK VINA RESULT:      -6.6      2.298      6.277
REMARK  10 active torsions:
REMARK  status: ('A' for Active; 'I' for Inactive)
REMARK    1  A    between atoms: C2_2  and  C3_3 
REMARK    2  A    between atoms: C2_2  and  C15_18 
REMARK    3  A    between atoms: C3_3  and  N1_4 
REMARK    4  A    between atoms: N1_4  and  C4_5 
REMARK       I    between atoms: N1_4  and  C8_9 
REMARK    5  A    between atoms: C4_5  and  C5_6 
REMARK    6  A    between atoms: C5_6  and  C6_7 
REMARK       I    between atoms: C8_9  and  N2_11 
REMARK    7  A    between atoms: N2_11  and  C9_12 
REMARK    8  A    between atoms: C15_18  and  C19_23 
REMARK    9  A    between atoms: C16_19  and  C17_20 
REMARK   10  A    between atoms: C19_23  and  O2_24 
ROOT
HETATM    1  N1  UNL     1      24.750   2.656  51.000  1.00  0.00    -0.330 N 
HETATM    2  C8  UNL     1      25.109   3.820  50.214  1.00  0.00     0.323 C 
HETATM    3  O1  UNL     1      24.243   4.701  49.872  1.00  0.00    -0.247 OA
HETATM    4  N2  UNL     1      26.415   4.109  49.756  1.00  0.00    -0.309 N 
HETATM    5  H14 UNL     1      27.070   3.354  50.048  1.00  0.00     0.170 HD
ENDROOT
BRANCH   1   6
HETATM    6  C3  UNL     1      25.784   1.712  51.380  1.00  0.00     0.166 C 
BRANCH   6   7
HETATM    7  C2  UNL     1      25.975   1.642  52.823  1.00  0.00    -0.041 C 
HETATM    8  C1  UNL     1      25.599   2.487  53.753  1.00  0.00     0.021 C 
BRANCH   7   9
HETATM    9  C15 UNL     1      26.602   0.607  53.602  1.00  0.00    -0.026 C 
HETATM   10  C16 UNL     1      27.505  -0.026  52.875  1.00  0.00     0.038 C 
BRANCH  10  11
HETATM   11  C17 UNL     1      28.409  -1.129  53.162  1.00  0.00     0.049 A 
HETATM   12  N3  UNL     1      28.981  -2.490  53.369  1.00  0.00    -0.286 NA
HETATM   13  C18 UNL     1      29.809  -1.386  53.555  1.00  0.00     0.207 A 
ENDBRANCH  10  11
BRANCH   9  14
HETATM   14  C19 UNL     1      26.456   0.158  54.995  1.00  0.00     0.203 C 
BRANCH  14  15
HETATM   15  O2  UNL     1      25.553  -0.921  55.057  1.00  0.00    -0.396 OA
HETATM   16  H25 UNL     1      24.819  -0.703  54.402  1.00  0.00     0.209 HD
ENDBRANCH  14  15
ENDBRANCH   9  14
ENDBRANCH   7   9
ENDBRANCH   6   7
ENDBRANCH   1   6
BRANCH   1  17
HETATM   17  C4  UNL     1      23.307   2.613  51.309  1.00  0.00     0.128 C 
BRANCH  17  18
HETATM   18  C5  UNL     1      22.684   1.294  51.016  1.00  0.00     0.020 C 
BRANCH  18  19
HETATM   19  C6  UNL     1      21.972   0.809  52.275  1.00  0.00    -0.003 C 
HETATM   20  C7  UNL     1      22.838  -0.208  52.980  1.00  0.00     0.005 C 
ENDBRANCH  18  19
ENDBRANCH  17  18
ENDBRANCH   1  17
BRANCH   4  21
HETATM   21  C9  UNL     1      26.934   5.184  49.005  1.00  0.00     0.036 A 
HETATM   22  C10 UNL     1      26.315   6.335  48.589  1.00  0.00     0.029 A 
HETATM   23  C11 UNL     1      26.860   7.363  47.860  1.00  0.00     0.002 A 
HETATM   24  C12 UNL     1      28.183   7.188  47.521  1.00  0.00     0.000 A 
HETATM   25  C13 UNL     1      28.894   6.086  47.881  1.00  0.00     0.002 A 
HETATM   26  C14 UNL     1      28.264   5.111  48.612  1.00  0.00     0.029 A 
ENDBRANCH   4  21
TORSDOF 10
ENDMDL
MODEL 9
REMARK VINA RESULT:      -6.6      3.464      6.064
REMARK  10 active torsions:
REMARK  status: ('A' for Active; 'I' for Inactive)
REMARK    1  A    between atoms: C2_2  and  C3_3 
REMARK    2  A    between atoms: C2_2  and  C15_18 
REMARK    3  A    between atoms: C3_3  and  N1_4 
REMARK    4  A    between atoms: N1_4  and  C4_5 
REMARK       I    between atoms: N1_4  and  C8_9 
REMARK    5  A    between atoms: C4_5  and  C5_6 
REMARK    6  A    between atoms: C5_6  and  C6_7 
REMARK       I    between atoms: C8_9  and  N2_11 
REMARK    7  A    between atoms: N2_11  and  C9_12 
REMARK    8  A    between atoms: C15_18  and  C19_23 
REMARK    9  A    between atoms: C16_19  and  C17_20 
REMARK   10  A    between atoms: C19_23  and  O2_24 
ROOT
HETATM    1  N1  UNL     1      22.985   3.326  49.671  1.00  0.00    -0.330 N 
HETATM    2  C8  UNL     1      22.653   2.185  50.503  1.00  0.00     0.323 C 
HETATM    3  O1  UNL     1      22.214   1.088  50.007  1.00  0.00    -0.247 OA
HETATM    4  N2  UNL     1      22.774   2.156  51.911  1.00  0.00    -0.309 N 
HETATM    5  H14 UNL     1      23.117   3.076  52.259  1.00  0.00     0.170 HD
ENDROOT
BRANCH   1   6
HETATM    6  C3  UNL     1      23.506   4.528  50.293  1.00  0.00     0.166 C 
BRANCH   6   7
HETATM    7  C2  UNL     1      24.624   5.101  49.555  1.00  0.00    -0.041 C 
HETATM    8  C1  UNL     1      24.692   6.233  48.896  1.00  0.00     0.021 C 
BRANCH   7   9
HETATM    9  C15 UNL     1      25.956   4.582  49.387  1.00  0.00    -0.026 C 
HETATM   10  C16 UNL     1      26.728   5.487  48.812  1.00  0.00     0.038 C 
BRANCH  10  11
HETATM   11  C17 UNL     1      28.128   5.486  48.419  1.00  0.00     0.049 A 
HETATM   12  N3  UNL     1      29.546   5.089  48.185  1.00  0.00    -0.286 NA
HETATM   13  C18 UNL     1      29.136   6.358  47.781  1.00  0.00     0.207 A 
ENDBRANCH  10  11
BRANCH   9  14
HETATM   14  C19 UNL     1      26.599   3.307  49.740  1.00  0.00     0.203 C 
BRANCH  14  15
HETATM   15  O2  UNL     1      27.044   3.350  51.075  1.00  0.00    -0.396 OA
HETATM   16  H25 UNL     1      27.483   4.248  51.189  1.00  0.00     0.209 HD
ENDBRANCH  14  15
ENDBRANCH   9  14
ENDBRANCH   7   9
ENDBRANCH   6   7
ENDBRANCH   1   6
BRANCH   1  17
HETATM   17  C4  UNL     1      22.730   3.066  48.240  1.00  0.00     0.128 C 
BRANCH  17  18
HETATM   18  C5  UNL     1      21.590   3.853  47.698  1.00  0.00     0.020 C 
BRANCH  18  19
HETATM   19  C6  UNL     1      21.875   4.163  46.231  1.00  0.00    -0.003 C 
HETATM   20  C7  UNL     1      22.205   5.630  46.084  1.00  0.00     0.005 C 
ENDBRANCH  18  19
ENDBRANCH  17  18
ENDBRANCH   1  17
BRANCH   4  21
HETATM   21  C9  UNL     1      22.513   1.144  52.858  1.00  0.00     0.036 A 
HETATM   22  C10 UNL     1      21.341   0.829  53.495  1.00  0.00     0.029 A 
HETATM   23  C11 UNL     1      21.127  -0.170  54.412  1.00  0.00     0.002 A 
HETATM   24  C12 UNL     1      22.239  -0.926  54.707  1.00  0.00     0.000 A 
HETATM   25  C13 UNL     1      23.452  -0.702  54.134  1.00  0.00     0.002 A 
HETATM   26  C14 UNL     1      23.568   0.320  53.227  1.00  0.00     0.029 A 
ENDBRANCH   4  21
TORSDOF 10
ENDMDL
