MODEL 1
REMARK VINA RESULT:     -10.1      0.000      0.000
REMARK  4 active torsions:
REMARK  status: ('A' for Active; 'I' for Inactive)
REMARK       I    between atoms: N2_3  and  C2_4 
REMARK    1  A    between atoms: C2_4  and  C3_6 
REMARK    2  A    between atoms: C3_6  and  C4_7 
REMARK    3  A    between atoms: C6_9  and  C7_10 
REMARK    4  A    between atoms: C12_15  and  O2_16 
ROOT
HETATM    1  N1  UNL     1      24.463   7.859  50.473  1.00  0.00    -0.172 NA
HETATM    2  C1  UNL     1      25.043   6.835  50.480  1.00  0.00     0.184 C 
HETATM    3  N2  UNL     1      25.726   5.587  50.481  1.00  0.00    -0.264 N 
HETATM    4  C2  UNL     1      25.276   4.515  49.663  1.00  0.00     0.234 C 
HETATM    5  O1  UNL     1      24.265   4.632  48.910  1.00  0.00    -0.272 OA
HETATM    6  H1  UNL     1      26.545   5.595  51.124  1.00  0.00     0.181 HD
ENDROOT
BRANCH   4   7
HETATM    7  C3  UNL     1      26.135   3.327  49.833  1.00  0.00     0.142 C 
BRANCH   7   8
HETATM    8  C4  UNL     1      25.751   2.525  51.008  1.00  0.00    -0.052 A 
HETATM    9  C5  UNL     1      26.380   2.095  52.124  1.00  0.00    -0.009 A 
HETATM   10  C6  UNL     1      26.364   1.351  53.408  1.00  0.00     0.053 A 
HETATM   11  C13 UNL     1      25.038   0.949  53.656  1.00  0.00     0.037 A 
HETATM   12  C14 UNL     1      24.343   1.374  52.435  1.00  0.00    -0.045 A 
HETATM   13  C20 UNL     1      24.635  -0.486  54.025  1.00  0.00    -0.025 A 
HETATM   14  C21 UNL     1      23.933   0.067  53.489  1.00  0.00     0.067 A 
HETATM   15  C15 UNL     1      24.346   2.033  51.173  1.00  0.00     0.015 A 
HETATM   16  C16 UNL     1      23.024   0.868  52.723  1.00  0.00    -0.046 A 
HETATM   17  C17 UNL     1      21.682   0.611  52.818  1.00  0.00     0.004 A 
HETATM   18  C18 UNL     1      21.646  -0.478  53.764  1.00  0.00    -0.020 A 
HETATM   19  C19 UNL     1      23.058  -0.707  54.087  1.00  0.00     0.023 A 
BRANCH  10  20
HETATM   20  C7  UNL     1      27.399   0.253  53.383  1.00  0.00    -0.017 A 
HETATM   21  C8  UNL     1      27.159  -0.907  52.645  1.00  0.00     0.011 A 
HETATM   22  C9  UNL     1      28.027  -1.975  52.560  1.00  0.00     0.001 A 
HETATM   23  C10 UNL     1      29.217  -1.826  53.288  1.00  0.00     0.003 A 
HETATM   24  C11 UNL     1      29.523  -0.710  54.040  1.00  0.00     0.037 A 
HETATM   25  C12 UNL     1      28.592   0.306  54.063  1.00  0.00     0.072 A 
BRANCH  25  26
HETATM   26  O2  UNL     1      28.729   1.517  54.772  1.00  0.00    -0.360 OA
HETATM   27  H10 UNL     1      27.913   1.916  55.217  1.00  0.00     0.217 HD
ENDBRANCH  25  26
ENDBRANCH  10  20
ENDBRANCH   7   8
ENDBRANCH   4   7
TORSDOF 4
ENDMDL
MODEL 2
REMARK VINA RESULT:      -9.6      2.968      6.385
REMARK  4 active torsions:
REMARK  status: ('A' for Active; 'I' for Inactive)
REMARK       I    between atoms: N2_3  and  C2_4 
REMARK    1  A    between atoms: C2_4  and  C3_6 
REMARK    2  A    between atoms: C3_6  and  C4_7 
REMARK    3  A    between atoms: C6_9  and  C7_10 
REMARK    4  A    between atoms: C12_15  and  O2_16 
ROOT
HETATM    1  N1  UNL     1      29.020  -3.085  53.418  1.00  0.00    -0.172 NA
HETATM    2  C1  UNL     1      28.513  -2.045  53.198  1.00  0.00     0.184 C 
HETATM    3  N2  UNL     1      27.894  -0.789  52.953  1.00  0.00    -0.264 N 
HETATM    4  C2  UNL     1      27.708   0.145  54.009  1.00  0.00     0.234 C 
HETATM    5  O1  UNL     1      28.085  -0.105  55.191  1.00  0.00    -0.272 OA
HETATM    6  H1  UNL     1      27.628  -0.677  51.952  1.00  0.00     0.181 HD
ENDROOT
BRANCH   4   7
HETATM    7  C3  UNL     1      27.046   1.369  53.518  1.00  0.00     0.142 C 
BRANCH   7   8
HETATM    8  C4  UNL     1      25.651   1.124  53.110  1.00  0.00    -0.052 A 
HETATM    9  C5  UNL     1      24.865   1.527  52.088  1.00  0.00    -0.009 A 
HETATM   10  C6  UNL     1      23.559   1.519  51.384  1.00  0.00     0.053 A 
HETATM   11  C13 UNL     1      22.732   0.577  52.024  1.00  0.00     0.037 A 
HETATM   12  C14 UNL     1      23.554   0.152  53.163  1.00  0.00    -0.045 A 
HETATM   13  C20 UNL     1      21.298   0.872  52.485  1.00  0.00    -0.025 A 
HETATM   14  C21 UNL     1      21.831   0.177  53.051  1.00  0.00     0.067 A 
HETATM   15  C15 UNL     1      24.780   0.187  53.889  1.00  0.00     0.015 A 
HETATM   16  C16 UNL     1      22.626  -0.744  53.807  1.00  0.00    -0.046 A 
HETATM   17  C17 UNL     1      21.993  -1.728  54.519  1.00  0.00     0.004 A 
HETATM   18  C18 UNL     1      20.605  -1.479  54.217  1.00  0.00    -0.020 A 
HETATM   19  C19 UNL     1      20.644  -0.312  53.330  1.00  0.00     0.023 A 
BRANCH  10  20
HETATM   20  C7  UNL     1      23.015   2.923  51.286  1.00  0.00    -0.017 A 
HETATM   21  C8  UNL     1      23.121   3.784  52.378  1.00  0.00     0.011 A 
HETATM   22  C9  UNL     1      22.650   5.080  52.403  1.00  0.00     0.001 A 
HETATM   23  C10 UNL     1      22.033   5.505  51.217  1.00  0.00     0.003 A 
HETATM   24  C11 UNL     1      21.891   4.711  50.097  1.00  0.00     0.037 A 
HETATM   25  C12 UNL     1      22.393   3.429  50.170  1.00  0.00     0.072 A 
BRANCH  25  26
HETATM   26  O2  UNL     1      22.341   2.477  49.131  1.00  0.00    -0.360 OA
HETATM   27  H10 UNL     1      23.075   2.475  48.435  1.00  0.00     0.217 HD
ENDBRANCH  25  26
ENDBRANCH  10  20
ENDBRANCH   7   8
ENDBRANCH   4   7
TORSDOF 4
ENDMDL
MODEL 3
REMARK VINA RESULT:      -9.4      3.941      6.870
REMARK  4 active torsions:
REMARK  status: ('A' for Active; 'I' for Inactive)
REMARK       I    between atoms: N2_3  and  C2_4 
REMARK    1  A    between atoms: C2_4  and  C3_6 
REMARK    2  A    between atoms: C3_6  and  C4_7 
REMARK    3  A    between atoms: C6_9  and  C7_10 
REMARK    4  A    between atoms: C12_15  and  O2_16 
ROOT
HETATM    1  N1  UNL     1      16.444  -1.540  52.352  1.00  0.00    -0.172 NA
HETATM    2  C1  UNL     1      17.398  -1.372  53.022  1.00  0.00     0.184 C 
HETATM    3  N2  UNL     1      18.561  -1.168  53.814  1.00  0.00    -0.264 N 
HETATM    4  C2  UNL     1      19.684  -0.474  53.284  1.00  0.00     0.234 C 
HETATM    5  O1  UNL     1      19.686  -0.016  52.104  1.00  0.00    -0.272 OA
HETATM    6  H1  UNL     1      18.457  -1.573  54.768  1.00  0.00     0.181 HD
ENDROOT
BRANCH   4   7
HETATM    7  C3  UNL     1      20.767  -0.387  54.283  1.00  0.00     0.142 C 
BRANCH   7   8
HETATM    8  C4  UNL     1      22.000   0.190  53.720  1.00  0.00    -0.052 A 
HETATM    9  C5  UNL     1      22.307   1.308  53.027  1.00  0.00    -0.009 A 
HETATM   10  C6  UNL     1      23.305   2.170  52.345  1.00  0.00     0.053 A 
HETATM   11  C13 UNL     1      24.580   1.626  52.586  1.00  0.00     0.037 A 
HETATM   12  C14 UNL     1      24.267   0.386  53.307  1.00  0.00    -0.045 A 
HETATM   13  C20 UNL     1      25.614   1.353  51.485  1.00  0.00    -0.025 A 
HETATM   14  C21 UNL     1      25.638   0.715  52.309  1.00  0.00     0.067 A 
HETATM   15  C15 UNL     1      23.322  -0.487  53.919  1.00  0.00     0.015 A 
HETATM   16  C16 UNL     1      25.598  -0.149  53.451  1.00  0.00    -0.046 A 
HETATM   17  C17 UNL     1      26.746  -0.790  53.831  1.00  0.00     0.004 A 
HETATM   18  C18 UNL     1      27.699  -0.312  52.859  1.00  0.00    -0.020 A 
HETATM   19  C19 UNL     1      26.908   0.580  52.005  1.00  0.00     0.023 A 
BRANCH  10  20
HETATM   20  C7  UNL     1      22.923   2.356  50.897  1.00  0.00    -0.017 A 
HETATM   21  C8  UNL     1      22.257   1.335  50.220  1.00  0.00     0.011 A 
HETATM   22  C9  UNL     1      21.872   1.393  48.897  1.00  0.00     0.001 A 
HETATM   23  C10 UNL     1      22.201   2.588  48.240  1.00  0.00     0.003 A 
HETATM   24  C11 UNL     1      22.859   3.641  48.843  1.00  0.00     0.037 A 
HETATM   25  C12 UNL     1      23.203   3.488  50.169  1.00  0.00     0.072 A 
BRANCH  25  26
HETATM   26  O2  UNL     1      23.876   4.451  50.949  1.00  0.00    -0.360 OA
HETATM   27  H10 UNL     1      24.052   4.251  51.924  1.00  0.00     0.217 HD
ENDBRANCH  25  26
ENDBRANCH  10  20
ENDBRANCH   7   8
ENDBRANCH   4   7
TORSDOF 4
ENDMDL
MODEL 4
REMARK VINA RESULT:      -9.4      3.220      6.206
REMARK  4 active torsions:
REMARK  status: ('A' for Active; 'I' for Inactive)
REMARK       I    between atoms: N2_3  and  C2_4 
REMARK    1  A    between atoms: C2_4  and  C3_6 
REMARK    2  A    between atoms: C3_6  and  C4_7 
REMARK    3  A    between atoms: C6_9  and  C7_10 
REMARK    4  A    between atoms: C12_15  and  O2_16 
ROOT
HETATM    1  N1  UNL     1      18.179   1.115  51.487  1.00  0.00    -0.172 NA
HETATM    2  C1  UNL     1      19.210   0.569  51.646  1.00  0.00     0.184 C 
HETATM    3  N2  UNL     1      20.457  -0.081  51.856  1.00  0.00    -0.264 N 
HETATM    4  C2  UNL     1      20.944  -0.302  53.174  1.00  0.00     0.234 C 
HETATM    5  O1  UNL     1      20.291   0.064  54.195  1.00  0.00    -0.272 OA
HETATM    6  H1  UNL     1      20.910  -0.349  50.958  1.00  0.00     0.181 HD
ENDROOT
BRANCH   4   7
HETATM    7  C3  UNL     1      22.252  -0.986  53.143  1.00  0.00     0.142 C 
BRANCH   7   8
HETATM    8  C4  UNL     1      23.379  -0.039  53.201  1.00  0.00    -0.052 A 
HETATM    9  C5  UNL     1      23.509   1.303  53.125  1.00  0.00    -0.009 A 
HETATM   10  C6  UNL     1      24.359   2.520  53.134  1.00  0.00     0.053 A 
HETATM   11  C13 UNL     1      25.671   2.125  53.455  1.00  0.00     0.037 A 
HETATM   12  C14 UNL     1      25.561   0.662  53.505  1.00  0.00    -0.045 A 
HETATM   13  C20 UNL     1      26.910   2.536  52.647  1.00  0.00    -0.025 A 
HETATM   14  C21 UNL     1      26.954   1.607  53.117  1.00  0.00     0.067 A 
HETATM   15  C15 UNL     1      24.775  -0.524  53.445  1.00  0.00     0.015 A 
HETATM   16  C16 UNL     1      26.939   0.327  53.760  1.00  0.00    -0.046 A 
HETATM   17  C17 UNL     1      28.132  -0.235  54.132  1.00  0.00     0.004 A 
HETATM   18  C18 UNL     1      29.083   0.767  53.719  1.00  0.00    -0.020 A 
HETATM   19  C19 UNL     1      28.250   1.817  53.126  1.00  0.00     0.023 A 
BRANCH  10  20
HETATM   20  C7  UNL     1      24.191   3.278  51.840  1.00  0.00    -0.017 A 
HETATM   21  C8  UNL     1      24.255   2.596  50.624  1.00  0.00     0.011 A 
HETATM   22  C9  UNL     1      24.126   3.188  49.386  1.00  0.00     0.001 A 
HETATM   23  C10 UNL     1      23.917   4.575  49.415  1.00  0.00     0.003 A 
HETATM   24  C11 UNL     1      23.843   5.317  50.577  1.00  0.00     0.037 A 
HETATM   25  C12 UNL     1      23.985   4.635  51.766  1.00  0.00     0.072 A 
BRANCH  25  26
HETATM   26  O2  UNL     1      23.937   5.220  53.048  1.00  0.00    -0.360 OA
HETATM   27  H10 UNL     1      24.801   5.528  53.475  1.00  0.00     0.217 HD
ENDBRANCH  25  26
ENDBRANCH  10  20
ENDBRANCH   7   8
ENDBRANCH   4   7
TORSDOF 4
ENDMDL
MODEL 5
REMARK VINA RESULT:      -9.1      3.516      6.394
REMARK  4 active torsions:
REMARK  status: ('A' for Active; 'I' for Inactive)
REMARK       I    between atoms: N2_3  and  C2_4 
REMARK    1  A    between atoms: C2_4  and  C3_6 
REMARK    2  A    between atoms: C3_6  and  C4_7 
REMARK    3  A    between atoms: C6_9  and  C7_10 
REMARK    4  A    between atoms: C12_15  and  O2_16 
ROOT
HETATM    1  N1  UNL     1      16.809  -0.047  49.761  1.00  0.00    -0.172 NA
HETATM    2  C1  UNL     1      17.536  -0.080  50.686  1.00  0.00     0.184 C 
HETATM    3  N2  UNL     1      18.432  -0.121  51.790  1.00  0.00    -0.264 N 
HETATM    4  C2  UNL     1      19.790   0.269  51.635  1.00  0.00     0.234 C 
HETATM    5  O1  UNL     1      20.245   0.666  50.522  1.00  0.00    -0.272 OA
HETATM    6  H1  UNL     1      17.961  -0.452  52.658  1.00  0.00     0.181 HD
ENDROOT
BRANCH   4   7
HETATM    7  C3  UNL     1      20.523   0.141  52.910  1.00  0.00     0.142 C 
BRANCH   7   8
HETATM    8  C4  UNL     1      21.903   0.647  52.813  1.00  0.00    -0.052 A 
HETATM    9  C5  UNL     1      22.471   1.860  52.639  1.00  0.00    -0.009 A 
HETATM   10  C6  UNL     1      23.678   2.712  52.498  1.00  0.00     0.053 A 
HETATM   11  C13 UNL     1      24.805   1.903  52.735  1.00  0.00     0.037 A 
HETATM   12  C14 UNL     1      24.213   0.569  52.890  1.00  0.00    -0.045 A 
HETATM   13  C20 UNL     1      26.023   1.838  51.803  1.00  0.00    -0.025 A 
HETATM   14  C21 UNL     1      25.797   0.967  52.329  1.00  0.00     0.067 A 
HETATM   15  C15 UNL     1      23.071  -0.279  52.972  1.00  0.00     0.015 A 
HETATM   16  C16 UNL     1      25.416  -0.209  53.053  1.00  0.00    -0.046 A 
HETATM   17  C17 UNL     1      26.379  -1.132  53.362  1.00  0.00     0.004 A 
HETATM   18  C18 UNL     1      27.567  -0.530  52.807  1.00  0.00    -0.020 A 
HETATM   19  C19 UNL     1      27.082   0.721  52.217  1.00  0.00     0.023 A 
BRANCH  10  20
HETATM   20  C7  UNL     1      23.648   3.438  51.175  1.00  0.00    -0.017 A 
HETATM   21  C8  UNL     1      23.341   2.738  50.008  1.00  0.00     0.011 A 
HETATM   22  C9  UNL     1      23.296   3.297  48.748  1.00  0.00     0.001 A 
HETATM   23  C10 UNL     1      23.587   4.668  48.701  1.00  0.00     0.003 A 
HETATM   24  C11 UNL     1      23.899   5.426  49.812  1.00  0.00     0.037 A 
HETATM   25  C12 UNL     1      23.920   4.777  51.028  1.00  0.00     0.072 A 
BRANCH  25  26
HETATM   26  O2  UNL     1      24.216   5.383  52.266  1.00  0.00    -0.360 OA
HETATM   27  H10 UNL     1      25.040   5.085  52.770  1.00  0.00     0.217 HD
ENDBRANCH  25  26
ENDBRANCH  10  20
ENDBRANCH   7   8
ENDBRANCH   4   7
TORSDOF 4
ENDMDL
MODEL 6
REMARK VINA RESULT:      -8.9      3.115      5.385
REMARK  4 active torsions:
REMARK  status: ('A' for Active; 'I' for Inactive)
REMARK       I    between atoms: N2_3  and  C2_4 
REMARK    1  A    between atoms: C2_4  and  C3_6 
REMARK    2  A    between atoms: C3_6  and  C4_7 
REMARK    3  A    between atoms: C6_9  and  C7_10 
REMARK    4  A    between atoms: C12_15  and  O2_16 
ROOT
HETATM    1  N1  UNL     1      19.573   3.412  46.539  1.00  0.00    -0.172 NA
HETATM    2  C1  UNL     1      19.719   2.846  47.561  1.00  0.00     0.184 C 
HETATM    3  N2  UNL     1      19.906   2.148  48.786  1.00  0.00    -0.264 N 
HETATM    4  C2  UNL     1      20.999   1.253  48.949  1.00  0.00     0.234 C 
HETATM    5  O1  UNL     1      21.837   1.051  48.021  1.00  0.00    -0.272 OA
HETATM    6  H1  UNL     1      19.172   2.388  49.484  1.00  0.00     0.181 HD
ENDROOT
BRANCH   4   7
HETATM    7  C3  UNL     1      20.985   0.646  50.294  1.00  0.00     0.142 C 
BRANCH   7   8
HETATM    8  C4  UNL     1      22.078   1.150  51.144  1.00  0.00    -0.052 A 
HETATM    9  C5  UNL     1      22.612   2.363  51.402  1.00  0.00    -0.009 A 
HETATM   10  C6  UNL     1      23.604   3.213  52.107  1.00  0.00     0.053 A 
HETATM   11  C13 UNL     1      24.291   2.400  53.026  1.00  0.00     0.037 A 
HETATM   12  C14 UNL     1      23.752   1.066  52.737  1.00  0.00    -0.045 A 
HETATM   13  C20 UNL     1      25.821   2.341  53.140  1.00  0.00    -0.025 A 
HETATM   14  C21 UNL     1      25.307   1.465  53.375  1.00  0.00     0.067 A 
HETATM   15  C15 UNL     1      22.848   0.220  52.032  1.00  0.00     0.015 A 
HETATM   16  C16 UNL     1      24.545   0.283  53.652  1.00  0.00    -0.046 A 
HETATM   17  C17 UNL     1      25.064  -0.645  54.516  1.00  0.00     0.004 A 
HETATM   18  C18 UNL     1      26.317  -0.041  54.897  1.00  0.00    -0.020 A 
HETATM   19  C19 UNL     1      26.342   1.217  54.144  1.00  0.00     0.023 A 
BRANCH  10  20
HETATM   20  C7  UNL     1      24.458   3.952  51.105  1.00  0.00    -0.017 A 
HETATM   21  C8  UNL     1      25.180   3.236  50.150  1.00  0.00     0.011 A 
HETATM   22  C9  UNL     1      25.998   3.805  49.197  1.00  0.00     0.001 A 
HETATM   23  C10 UNL     1      26.067   5.206  49.241  1.00  0.00     0.003 A 
HETATM   24  C11 UNL     1      25.383   5.980  50.155  1.00  0.00     0.037 A 
HETATM   25  C12 UNL     1      24.591   5.319  51.069  1.00  0.00     0.072 A 
BRANCH  25  26
HETATM   26  O2  UNL     1      23.821   5.939  52.074  1.00  0.00    -0.360 OA
HETATM   27  H10 UNL     1      22.815   5.963  51.973  1.00  0.00     0.217 HD
ENDBRANCH  25  26
ENDBRANCH  10  20
ENDBRANCH   7   8
ENDBRANCH   4   7
TORSDOF 4
ENDMDL
MODEL 7
REMARK VINA RESULT:      -8.8      3.564      5.538
REMARK  4 active torsions:
REMARK  status: ('A' for Active; 'I' for Inactive)
REMARK       I    between atoms: N2_3  and  C2_4 
REMARK    1  A    between atoms: C2_4  and  C3_6 
REMARK    2  A    between atoms: C3_6  and  C4_7 
REMARK    3  A    between atoms: C6_9  and  C7_10 
REMARK    4  A    between atoms: C12_15  and  O2_16 
ROOT
HETATM    1  N1  UNL     1      18.047  -1.616  53.185  1.00  0.00    -0.172 NA
HETATM    2  C1  UNL     1      19.000  -1.072  53.611  1.00  0.00     0.184 C 
HETATM    3  N2  UNL     1      20.158  -0.432  54.133  1.00  0.00    -0.264 N 
HETATM    4  C2  UNL     1      21.365  -1.161  54.319  1.00  0.00     0.234 C 
HETATM    5  O1  UNL     1      21.451  -2.390  54.027  1.00  0.00    -0.272 OA
HETATM    6  H1  UNL     1      19.987   0.575  54.332  1.00  0.00     0.181 HD
ENDROOT
BRANCH   4   7
HETATM    7  C3  UNL     1      22.423  -0.294  54.872  1.00  0.00     0.142 C 
BRANCH   7   8
HETATM    8  C4  UNL     1      23.373   0.154  53.839  1.00  0.00    -0.052 A 
HETATM    9  C5  UNL     1      24.471  -0.370  53.253  1.00  0.00    -0.009 A 
HETATM   10  C6  UNL     1      25.591  -0.266  52.285  1.00  0.00     0.053 A 
HETATM   11  C13 UNL     1      25.404   0.910  51.536  1.00  0.00     0.037 A 
HETATM   12  C14 UNL     1      24.235   1.517  52.182  1.00  0.00    -0.045 A 
HETATM   13  C20 UNL     1      26.497   1.966  51.315  1.00  0.00    -0.025 A 
HETATM   14  C21 UNL     1      25.515   2.316  51.342  1.00  0.00     0.067 A 
HETATM   15  C15 UNL     1      23.184   1.467  53.142  1.00  0.00     0.015 A 
HETATM   16  C16 UNL     1      24.148   2.739  51.421  1.00  0.00    -0.046 A 
HETATM   17  C17 UNL     1      23.776   3.883  50.768  1.00  0.00     0.004 A 
HETATM   18  C18 UNL     1      25.011   4.299  50.151  1.00  0.00    -0.020 A 
HETATM   19  C19 UNL     1      25.974   3.277  50.573  1.00  0.00     0.023 A 
BRANCH  10  20
HETATM   20  C7  UNL     1      26.911  -0.393  53.005  1.00  0.00    -0.017 A 
HETATM   21  C8  UNL     1      27.326   0.616  53.874  1.00  0.00     0.011 A 
HETATM   22  C9  UNL     1      28.514   0.609  54.574  1.00  0.00     0.001 A 
HETATM   23  C10 UNL     1      29.320  -0.518  54.355  1.00  0.00     0.003 A 
HETATM   24  C11 UNL     1      28.977  -1.555  53.510  1.00  0.00     0.037 A 
HETATM   25  C12 UNL     1      27.769  -1.457  52.855  1.00  0.00     0.072 A 
BRANCH  25  26
HETATM   26  O2  UNL     1      27.253  -2.414  51.957  1.00  0.00    -0.360 OA
HETATM   27  H10 UNL     1      26.685  -3.167  52.321  1.00  0.00     0.217 HD
ENDBRANCH  25  26
ENDBRANCH  10  20
ENDBRANCH   7   8
ENDBRANCH   4   7
TORSDOF 4
ENDMDL
MODEL 8
REMARK VINA RESULT:      -8.5      2.739      5.811
REMARK  4 active torsions:
REMARK  status: ('A' for Active; 'I' for Inactive)
REMARK       I    between atoms: N2_3  and  C2_4 
REMARK    1  A    between atoms: C2_4  and  C3_6 
REMARK    2  A    between atoms: C3_6  and  C4_7 
REMARK    3  A    between atoms: C6_9  and  C7_10 
REMARK    4  A    between atoms: C12_15  and  O2_16 
ROOT
HETATM    1  N1  UNL     1      26.478   9.833  49.836  1.00  0.00    -0.172 NA
HETATM    2  C1  UNL     1      26.793   8.700  49.780  1.00  0.00     0.184 C 
HETATM    3  N2  UNL     1      27.154   7.326  49.708  1.00  0.00    -0.264 N 
HETATM    4  C2  UNL     1      26.446   6.437  48.853  1.00  0.00     0.234 C 
HETATM    5  O1  UNL     1      25.483   6.832  48.133  1.00  0.00    -0.272 OA
HETATM    6  H1  UNL     1      27.959   7.104  50.329  1.00  0.00     0.181 HD
ENDROOT
BRANCH   4   7
HETATM    7  C3  UNL     1      26.994   5.070  48.947  1.00  0.00     0.142 C 
BRANCH   7   8
HETATM    8  C4  UNL     1      26.028   4.119  49.525  1.00  0.00    -0.052 A 
HETATM    9  C5  UNL     1      24.755   3.759  49.251  1.00  0.00    -0.009 A 
HETATM   10  C6  UNL     1      23.553   2.942  49.550  1.00  0.00     0.053 A 
HETATM   11  C13 UNL     1      23.898   2.022  50.558  1.00  0.00     0.037 A 
HETATM   12  C14 UNL     1      25.269   2.421  50.898  1.00  0.00    -0.045 A 
HETATM   13  C20 UNL     1      23.076   1.806  51.836  1.00  0.00    -0.025 A 
HETATM   14  C21 UNL     1      24.104   1.656  51.918  1.00  0.00     0.067 A 
HETATM   15  C15 UNL     1      26.417   3.233  50.668  1.00  0.00     0.015 A 
HETATM   16  C16 UNL     1      25.527   1.497  51.974  1.00  0.00    -0.046 A 
HETATM   17  C17 UNL     1      26.057   0.651  52.911  1.00  0.00     0.004 A 
HETATM   18  C18 UNL     1      24.878   0.152  53.574  1.00  0.00    -0.020 A 
HETATM   19  C19 UNL     1      23.776   0.831  52.885  1.00  0.00     0.023 A 
BRANCH  10  20
HETATM   20  C7  UNL     1      22.376   3.839  49.844  1.00  0.00    -0.017 A 
HETATM   21  C8  UNL     1      22.556   4.985  50.619  1.00  0.00     0.011 A 
HETATM   22  C9  UNL     1      21.552   5.868  50.958  1.00  0.00     0.001 A 
HETATM   23  C10 UNL     1      20.284   5.537  50.458  1.00  0.00     0.003 A 
HETATM   24  C11 UNL     1      20.030   4.423  49.685  1.00  0.00     0.037 A 
HETATM   25  C12 UNL     1      21.098   3.600  49.400  1.00  0.00     0.072 A 
BRANCH  25  26
HETATM   26  O2  UNL     1      21.031   2.421  48.629  1.00  0.00    -0.360 OA
HETATM   27  H10 UNL     1      21.513   2.392  47.740  1.00  0.00     0.217 HD
ENDBRANCH  25  26
ENDBRANCH  10  20
ENDBRANCH   7   8
ENDBRANCH   4   7
TORSDOF 4
ENDMDL
MODEL 9
REMARK VINA RESULT:      -8.1      2.964      5.322
REMARK  4 active torsions:
REMARK  status: ('A' for Active; 'I' for Inactive)
REMARK       I    between atoms: N2_3  and  C2_4 
REMARK    1  A    between atoms: C2_4  and  C3_6 
REMARK    2  A    between atoms: C3_6  and  C4_7 
REMARK    3  A    between atoms: C6_9  and  C7_10 
REMARK    4  A    between atoms: C12_15  and  O2_16 
ROOT
HETATM    1  N1  UNL     1      29.293   7.252  47.181  1.00  0.00    -0.172 NA
HETATM    2  C1  UNL     1      28.526   7.090  48.060  1.00  0.00     0.184 C 
HETATM    3  N2  UNL     1      27.597   6.914  49.122  1.00  0.00    -0.264 N 
HETATM    4  C2  UNL     1      26.510   7.816  49.288  1.00  0.00     0.234 C 
HETATM    5  O1  UNL     1      26.332   8.794  48.505  1.00  0.00    -0.272 OA
HETATM    6  H1  UNL     1      27.825   6.080  49.702  1.00  0.00     0.181 HD
ENDROOT
BRANCH   4   7
HETATM    7  C3  UNL     1      25.685   7.436  50.452  1.00  0.00     0.142 C 
BRANCH   7   8
HETATM    8  C4  UNL     1      24.818   6.279  50.167  1.00  0.00    -0.052 A 
HETATM    9  C5  UNL     1      24.346   5.235  50.882  1.00  0.00    -0.009 A 
HETATM   10  C6  UNL     1      23.542   3.991  50.970  1.00  0.00     0.053 A 
HETATM   11  C13 UNL     1      22.858   3.833  49.751  1.00  0.00     0.037 A 
HETATM   12  C14 UNL     1      23.386   4.939  48.943  1.00  0.00    -0.045 A 
HETATM   13  C20 UNL     1      22.854   2.533  48.934  1.00  0.00    -0.025 A 
HETATM   14  C21 UNL     1      22.777   3.420  48.391  1.00  0.00     0.067 A 
HETATM   15  C15 UNL     1      24.195   6.104  48.816  1.00  0.00     0.015 A 
HETATM   16  C16 UNL     1      22.706   4.673  47.700  1.00  0.00    -0.046 A 
HETATM   17  C17 UNL     1      22.090   4.716  46.478  1.00  0.00     0.004 A 
HETATM   18  C18 UNL     1      21.670   3.348  46.300  1.00  0.00    -0.020 A 
HETATM   19  C19 UNL     1      22.143   2.676  47.515  1.00  0.00     0.023 A 
BRANCH  10  20
HETATM   20  C7  UNL     1      24.418   2.837  51.395  1.00  0.00    -0.017 A 
HETATM   21  C8  UNL     1      25.737   2.769  50.947  1.00  0.00     0.011 A 
HETATM   22  C9  UNL     1      26.621   1.758  51.262  1.00  0.00     0.001 A 
HETATM   23  C10 UNL     1      26.098   0.758  52.096  1.00  0.00     0.003 A 
HETATM   24  C11 UNL     1      24.804   0.758  52.577  1.00  0.00     0.037 A 
HETATM   25  C12 UNL     1      23.997   1.811  52.206  1.00  0.00     0.072 A 
BRANCH  25  26
HETATM   26  O2  UNL     1      22.653   1.981  52.598  1.00  0.00    -0.360 OA
HETATM   27  H10 UNL     1      21.947   2.093  51.883  1.00  0.00     0.217 HD
ENDBRANCH  25  26
ENDBRANCH  10  20
ENDBRANCH   7   8
ENDBRANCH   4   7
TORSDOF 4
ENDMDL
