MODEL 1
REMARK VINA RESULT:      -7.2      0.000      0.000
REMARK  5 active torsions:
REMARK  status: ('A' for Active; 'I' for Inactive)
REMARK    1  A    between atoms: C1_2  and  C2_3 
REMARK    2  A    between atoms: C2_3  and  N1_4 
REMARK    3  A    between atoms: N1_4  and  C3_5 
REMARK    4  A    between atoms: C5_7  and  N2_8 
REMARK    5  A    between atoms: N2_8  and  C6_9 
ROOT
HETATM    1  C3  UNL     1      22.044   0.476  52.221  1.00  0.00     0.025 A 
HETATM    2  C4  UNL     1      22.636  -0.117  53.257  1.00  0.00     0.061 A 
HETATM    3  C5  UNL     1      23.960  -0.160  53.640  1.00  0.00     0.144 A 
HETATM    4  N3  UNL     1      24.192  -0.853  54.740  1.00  0.00    -0.223 NA
HETATM    5  C12 UNL     1      23.287  -1.492  55.487  1.00  0.00     0.236 A 
HETATM    6  N4  UNL     1      22.002  -1.440  55.103  1.00  0.00    -0.241 NA
HETATM    7  C13 UNL     1      21.674  -0.761  53.997  1.00  0.00     0.070 A 
HETATM    8  C14 UNL     1      20.469  -0.609  53.480  1.00  0.00     0.012 A 
HETATM    9  C15 UNL     1      20.581   0.231  52.239  1.00  0.00     0.087 A 
ENDROOT
BRANCH   3  10
HETATM   10  N2  UNL     1      24.902   0.523  52.833  1.00  0.00    -0.340 N 
HETATM   11  H5  UNL     1      24.639   0.913  51.930  1.00  0.00     0.167 HD
BRANCH  10  12
HETATM   12  C6  UNL     1      26.274   0.784  53.088  1.00  0.00     0.035 A 
HETATM   13  C7  UNL     1      26.825   2.036  53.264  1.00  0.00     0.029 A 
HETATM   14  C8  UNL     1      28.156   2.267  53.509  1.00  0.00     0.004 A 
HETATM   15  C9  UNL     1      29.043   1.216  53.596  1.00  0.00     0.019 A 
HETATM   16  C10 UNL     1      28.538  -0.055  53.426  1.00  0.00     0.013 A 
HETATM   17 BR1  UNL     1      29.800  -1.473  53.554  1.00  0.00    -0.051 Br
HETATM   18  C11 UNL     1      27.195  -0.237  53.183  1.00  0.00     0.048 A 
ENDBRANCH  10  12
ENDBRANCH   3  10
BRANCH   1  19
HETATM   19  N1  UNL     1      22.488   1.258  51.146  1.00  0.00    -0.386 N 
HETATM   20  H4  UNL     1      23.098   0.837  50.396  1.00  0.00     0.159 HD
BRANCH  19  21
HETATM   21  C2  UNL     1      22.107   2.665  51.059  1.00  0.00     0.188 C 
BRANCH  21  22
HETATM   22  C1  UNL     1      23.055   3.514  51.831  1.00  0.00     0.250 C 
HETATM   23  O1  UNL     1      23.708   3.453  52.836  1.00  0.00    -0.305 OA
ENDBRANCH  21  22
ENDBRANCH  19  21
ENDBRANCH   1  19
TORSDOF 5
ENDMDL
MODEL 2
REMARK VINA RESULT:      -7.1      2.755      5.782
REMARK  5 active torsions:
REMARK  status: ('A' for Active; 'I' for Inactive)
REMARK    1  A    between atoms: C1_2  and  C2_3 
REMARK    2  A    between atoms: C2_3  and  N1_4 
REMARK    3  A    between atoms: N1_4  and  C3_5 
REMARK    4  A    between atoms: C5_7  and  N2_8 
REMARK    5  A    between atoms: N2_8  and  C6_9 
ROOT
HETATM    1  C3  UNL     1      27.425   1.633  53.332  1.00  0.00     0.025 A 
HETATM    2  C4  UNL     1      27.696   0.329  53.270  1.00  0.00     0.061 A 
HETATM    3  C5  UNL     1      26.895  -0.747  52.953  1.00  0.00     0.144 A 
HETATM    4  N3  UNL     1      27.506  -1.917  52.993  1.00  0.00    -0.223 NA
HETATM    5  C12 UNL     1      28.787  -2.139  53.302  1.00  0.00     0.236 A 
HETATM    6  N4  UNL     1      29.554  -1.082  53.608  1.00  0.00    -0.241 NA
HETATM    7  C13 UNL     1      29.018   0.144  53.594  1.00  0.00     0.070 A 
HETATM    8  C14 UNL     1      29.624   1.285  53.867  1.00  0.00     0.012 A 
HETATM    9  C15 UNL     1      28.631   2.404  53.724  1.00  0.00     0.087 A 
ENDROOT
BRANCH   3  10
HETATM   10  N2  UNL     1      25.541  -0.489  52.629  1.00  0.00    -0.340 N 
HETATM   11  H5  UNL     1      25.273  -0.164  51.702  1.00  0.00     0.167 HD
BRANCH  10  12
HETATM   12  C6  UNL     1      24.388  -0.617  53.447  1.00  0.00     0.035 A 
HETATM   13  C7  UNL     1      24.373  -1.131  54.726  1.00  0.00     0.029 A 
HETATM   14  C8  UNL     1      23.245  -1.247  55.500  1.00  0.00     0.004 A 
HETATM   15  C9  UNL     1      22.022  -0.839  55.017  1.00  0.00     0.019 A 
HETATM   16  C10 UNL     1      21.986  -0.319  53.742  1.00  0.00     0.013 A 
HETATM   17 BR1  UNL     1      20.274   0.231  53.118  1.00  0.00    -0.051 Br
HETATM   18  C11 UNL     1      23.144  -0.222  53.003  1.00  0.00     0.048 A 
ENDBRANCH  10  12
ENDBRANCH   3  10
BRANCH   1  19
HETATM   19  N1  UNL     1      26.282   2.414  53.117  1.00  0.00    -0.386 N 
HETATM   20  H4  UNL     1      25.743   2.809  53.932  1.00  0.00     0.159 HD
BRANCH  19  21
HETATM   21  C2  UNL     1      25.829   2.687  51.755  1.00  0.00     0.188 C 
BRANCH  21  22
HETATM   22  C1  UNL     1      24.476   3.308  51.767  1.00  0.00     0.250 C 
HETATM   23  O1  UNL     1      23.428   3.176  52.335  1.00  0.00    -0.305 OA
ENDBRANCH  21  22
ENDBRANCH  19  21
ENDBRANCH   1  19
TORSDOF 5
ENDMDL
MODEL 3
REMARK VINA RESULT:      -7.0      2.214      4.095
REMARK  5 active torsions:
REMARK  status: ('A' for Active; 'I' for Inactive)
REMARK    1  A    between atoms: C1_2  and  C2_3 
REMARK    2  A    between atoms: C2_3  and  N1_4 
REMARK    3  A    between atoms: N1_4  and  C3_5 
REMARK    4  A    between atoms: C5_7  and  N2_8 
REMARK    5  A    between atoms: N2_8  and  C6_9 
ROOT
HETATM    1  C3  UNL     1      23.237   1.396  52.114  1.00  0.00     0.025 A 
HETATM    2  C4  UNL     1      23.979   2.198  51.350  1.00  0.00     0.061 A 
HETATM    3  C5  UNL     1      25.200   2.794  51.584  1.00  0.00     0.144 A 
HETATM    4  N3  UNL     1      25.647   3.538  50.589  1.00  0.00    -0.223 NA
HETATM    5  C12 UNL     1      25.040   3.755  49.418  1.00  0.00     0.236 A 
HETATM    6  N4  UNL     1      23.853   3.168  49.205  1.00  0.00    -0.241 NA
HETATM    7  C13 UNL     1      23.322   2.396  50.160  1.00  0.00     0.070 A 
HETATM    8  C14 UNL     1      22.171   1.748  50.117  1.00  0.00     0.012 A 
HETATM    9  C15 UNL     1      21.986   1.011  51.413  1.00  0.00     0.087 A 
ENDROOT
BRANCH   3  10
HETATM   10  N2  UNL     1      25.824   2.550  52.831  1.00  0.00    -0.340 N 
HETATM   11  H5  UNL     1      25.487   2.990  53.685  1.00  0.00     0.167 HD
BRANCH  10  12
HETATM   12  C6  UNL     1      26.939   1.722  53.124  1.00  0.00     0.035 A 
HETATM   13  C7  UNL     1      28.136   2.159  53.654  1.00  0.00     0.029 A 
HETATM   14  C8  UNL     1      29.203   1.341  53.930  1.00  0.00     0.004 A 
HETATM   15  C9  UNL     1      29.129  -0.012  53.682  1.00  0.00     0.019 A 
HETATM   16  C10 UNL     1      27.953  -0.495  53.151  1.00  0.00     0.013 A 
HETATM   17 BR1  UNL     1      27.898  -2.369  52.825  1.00  0.00    -0.051 Br
HETATM   18  C11 UNL     1      26.909   0.364  52.892  1.00  0.00     0.048 A 
ENDBRANCH  10  12
ENDBRANCH   3  10
BRANCH   1  19
HETATM   19  N1  UNL     1      23.374   0.852  53.397  1.00  0.00    -0.386 N 
HETATM   20  H4  UNL     1      23.503   1.481  54.234  1.00  0.00     0.159 HD
BRANCH  19  21
HETATM   21  C2  UNL     1      23.339  -0.597  53.585  1.00  0.00     0.188 C 
BRANCH  21  22
HETATM   22  C1  UNL     1      22.373  -0.963  54.658  1.00  0.00     0.250 C 
HETATM   23  O1  UNL     1      21.842  -1.944  55.097  1.00  0.00    -0.305 OA
ENDBRANCH  21  22
ENDBRANCH  19  21
ENDBRANCH   1  19
TORSDOF 5
ENDMDL
MODEL 4
REMARK VINA RESULT:      -6.8      3.724      5.514
REMARK  5 active torsions:
REMARK  status: ('A' for Active; 'I' for Inactive)
REMARK    1  A    between atoms: C1_2  and  C2_3 
REMARK    2  A    between atoms: C2_3  and  N1_4 
REMARK    3  A    between atoms: N1_4  and  C3_5 
REMARK    4  A    between atoms: C5_7  and  N2_8 
REMARK    5  A    between atoms: N2_8  and  C6_9 
ROOT
HETATM    1  C3  UNL     1      25.152   0.588  52.976  1.00  0.00     0.025 A 
HETATM    2  C4  UNL     1      26.338   1.194  53.024  1.00  0.00     0.061 A 
HETATM    3  C5  UNL     1      26.953   2.051  52.136  1.00  0.00     0.144 A 
HETATM    4  N3  UNL     1      28.149   2.466  52.513  1.00  0.00    -0.223 NA
HETATM    5  C12 UNL     1      28.790   2.139  53.638  1.00  0.00     0.236 A 
HETATM    6  N4  UNL     1      28.179   1.304  54.492  1.00  0.00    -0.241 NA
HETATM    7  C13 UNL     1      26.964   0.832  54.192  1.00  0.00     0.070 A 
HETATM    8  C14 UNL     1      26.225   0.009  54.914  1.00  0.00     0.012 A 
HETATM    9  C15 UNL     1      24.937  -0.246  54.184  1.00  0.00     0.087 A 
ENDROOT
BRANCH   3  10
HETATM   10  N2  UNL     1      26.255   2.383  50.950  1.00  0.00    -0.340 N 
HETATM   11  H5  UNL     1      25.733   1.680  50.430  1.00  0.00     0.167 HD
BRANCH  10  12
HETATM   12  C6  UNL     1      26.144   3.641  50.302  1.00  0.00     0.035 A 
HETATM   13  C7  UNL     1      27.001   4.112  49.329  1.00  0.00     0.029 A 
HETATM   14  C8  UNL     1      26.877   5.333  48.715  1.00  0.00     0.004 A 
HETATM   15  C9  UNL     1      25.848   6.184  49.053  1.00  0.00     0.019 A 
HETATM   16  C10 UNL     1      24.966   5.757  50.022  1.00  0.00     0.013 A 
HETATM   17 BR1  UNL     1      23.562   6.966  50.457  1.00  0.00    -0.051 Br
HETATM   18  C11 UNL     1      25.131   4.523  50.610  1.00  0.00     0.048 A 
ENDBRANCH  10  12
ENDBRANCH   3  10
BRANCH   1  19
HETATM   19  N1  UNL     1      24.092   0.566  52.060  1.00  0.00    -0.386 N 
HETATM   20  H4  UNL     1      24.099  -0.111  51.251  1.00  0.00     0.159 HD
BRANCH  19  21
HETATM   21  C2  UNL     1      22.967   1.484  52.221  1.00  0.00     0.188 C 
BRANCH  21  22
HETATM   22  C1  UNL     1      21.717   0.734  52.526  1.00  0.00     0.250 C 
HETATM   23  O1  UNL     1      21.387  -0.368  52.864  1.00  0.00    -0.305 OA
ENDBRANCH  21  22
ENDBRANCH  19  21
ENDBRANCH   1  19
TORSDOF 5
ENDMDL
MODEL 5
REMARK VINA RESULT:      -6.8      3.018      4.455
REMARK  5 active torsions:
REMARK  status: ('A' for Active; 'I' for Inactive)
REMARK    1  A    between atoms: C1_2  and  C2_3 
REMARK    2  A    between atoms: C2_3  and  N1_4 
REMARK    3  A    between atoms: N1_4  and  C3_5 
REMARK    4  A    between atoms: C5_7  and  N2_8 
REMARK    5  A    between atoms: N2_8  and  C6_9 
ROOT
HETATM    1  C3  UNL     1      22.541  -0.339  53.507  1.00  0.00     0.025 A 
HETATM    2  C4  UNL     1      23.852  -0.170  53.678  1.00  0.00     0.061 A 
HETATM    3  C5  UNL     1      24.779   0.527  52.932  1.00  0.00     0.144 A 
HETATM    4  N3  UNL     1      26.011   0.479  53.404  1.00  0.00    -0.223 NA
HETATM    5  C12 UNL     1      26.422  -0.163  54.501  1.00  0.00     0.236 A 
HETATM    6  N4  UNL     1      25.509  -0.837  55.217  1.00  0.00    -0.241 NA
HETATM    7  C13 UNL     1      24.233  -0.844  54.813  1.00  0.00     0.070 A 
HETATM    8  C14 UNL     1      23.214  -1.450  55.393  1.00  0.00     0.012 A 
HETATM    9  C15 UNL     1      21.974  -1.182  54.588  1.00  0.00     0.087 A 
ENDROOT
BRANCH   3  10
HETATM   10  N2  UNL     1      24.321   1.199  51.773  1.00  0.00    -0.340 N 
HETATM   11  H5  UNL     1      24.207   0.709  50.888  1.00  0.00     0.167 HD
BRANCH  10  12
HETATM   12  C6  UNL     1      23.959   2.563  51.617  1.00  0.00     0.035 A 
HETATM   13  C7  UNL     1      23.781   3.461  52.648  1.00  0.00     0.029 A 
HETATM   14  C8  UNL     1      23.430   4.777  52.475  1.00  0.00     0.004 A 
HETATM   15  C9  UNL     1      23.229   5.286  51.211  1.00  0.00     0.019 A 
HETATM   16  C10 UNL     1      23.395   4.425  50.148  1.00  0.00     0.013 A 
HETATM   17 BR1  UNL     1      23.108   5.173  48.422  1.00  0.00    -0.051 Br
HETATM   18  C11 UNL     1      23.749   3.114  50.371  1.00  0.00     0.048 A 
ENDBRANCH  10  12
ENDBRANCH   3  10
BRANCH   1  19
HETATM   19  N1  UNL     1      21.606   0.091  52.557  1.00  0.00    -0.386 N 
HETATM   20  H4  UNL     1      21.776  -0.071  51.528  1.00  0.00     0.159 HD
BRANCH  19  21
HETATM   21  C2  UNL     1      20.386   0.770  52.986  1.00  0.00     0.188 C 
BRANCH  21  22
HETATM   22  C1  UNL     1      20.316   2.140  52.404  1.00  0.00     0.250 C 
HETATM   23  O1  UNL     1      20.190   3.272  52.777  1.00  0.00    -0.305 OA
ENDBRANCH  21  22
ENDBRANCH  19  21
ENDBRANCH   1  19
TORSDOF 5
ENDMDL
MODEL 6
REMARK VINA RESULT:      -6.8      3.068      5.743
REMARK  5 active torsions:
REMARK  status: ('A' for Active; 'I' for Inactive)
REMARK    1  A    between atoms: C1_2  and  C2_3 
REMARK    2  A    between atoms: C2_3  and  N1_4 
REMARK    3  A    between atoms: N1_4  and  C3_5 
REMARK    4  A    between atoms: C5_7  and  N2_8 
REMARK    5  A    between atoms: N2_8  and  C6_9 
ROOT
HETATM    1  C3  UNL     1      26.267  -0.316  53.044  1.00  0.00     0.025 A 
HETATM    2  C4  UNL     1      27.140   0.619  53.419  1.00  0.00     0.061 A 
HETATM    3  C5  UNL     1      26.965   1.953  53.718  1.00  0.00     0.144 A 
HETATM    4  N3  UNL     1      28.071   2.589  54.058  1.00  0.00    -0.223 NA
HETATM    5  C12 UNL     1      29.300   2.070  54.135  1.00  0.00     0.236 A 
HETATM    6  N4  UNL     1      29.455   0.770  53.841  1.00  0.00    -0.241 NA
HETATM    7  C13 UNL     1      28.388   0.046  53.485  1.00  0.00     0.070 A 
HETATM    8  C14 UNL     1      28.360  -1.235  53.166  1.00  0.00     0.012 A 
HETATM    9  C15 UNL     1      26.946  -1.619  52.836  1.00  0.00     0.087 A 
ENDROOT
BRANCH   3  10
HETATM   10  N2  UNL     1      25.655   2.482  53.629  1.00  0.00    -0.340 N 
HETATM   11  H5  UNL     1      25.099   2.658  54.464  1.00  0.00     0.167 HD
BRANCH  10  12
HETATM   12  C6  UNL     1      24.914   2.843  52.473  1.00  0.00     0.035 A 
HETATM   13  C7  UNL     1      25.429   2.941  51.198  1.00  0.00     0.029 A 
HETATM   14  C8  UNL     1      24.695   3.293  50.092  1.00  0.00     0.004 A 
HETATM   15  C9  UNL     1      23.352   3.578  50.207  1.00  0.00     0.019 A 
HETATM   16  C10 UNL     1      22.793   3.495  51.464  1.00  0.00     0.013 A 
HETATM   17 BR1  UNL     1      20.936   3.898  51.573  1.00  0.00    -0.051 Br
HETATM   18  C11 UNL     1      23.569   3.137  52.543  1.00  0.00     0.048 A 
ENDBRANCH  10  12
ENDBRANCH   3  10
BRANCH   1  19
HETATM   19  N1  UNL     1      24.886  -0.337  52.808  1.00  0.00    -0.386 N 
HETATM   20  H4  UNL     1      24.507  -0.169  51.838  1.00  0.00     0.159 HD
BRANCH  19  21
HETATM   21  C2  UNL     1      23.960  -0.594  53.908  1.00  0.00     0.188 C 
BRANCH  21  22
HETATM   22  C1  UNL     1      22.550  -0.484  53.443  1.00  0.00     0.250 C 
HETATM   23  O1  UNL     1      21.941  -0.061  52.500  1.00  0.00    -0.305 OA
ENDBRANCH  21  22
ENDBRANCH  19  21
ENDBRANCH   1  19
TORSDOF 5
ENDMDL
MODEL 7
REMARK VINA RESULT:      -6.6      3.343      4.622
REMARK  5 active torsions:
REMARK  status: ('A' for Active; 'I' for Inactive)
REMARK    1  A    between atoms: C1_2  and  C2_3 
REMARK    2  A    between atoms: C2_3  and  N1_4 
REMARK    3  A    between atoms: N1_4  and  C3_5 
REMARK    4  A    between atoms: C5_7  and  N2_8 
REMARK    5  A    between atoms: N2_8  and  C6_9 
ROOT
HETATM    1  C3  UNL     1      23.355   0.300  53.217  1.00  0.00     0.025 A 
HETATM    2  C4  UNL     1      24.676   0.298  53.033  1.00  0.00     0.061 A 
HETATM    3  C5  UNL     1      25.461   0.954  52.109  1.00  0.00     0.144 A 
HETATM    4  N3  UNL     1      26.756   0.716  52.221  1.00  0.00    -0.223 NA
HETATM    5  C12 UNL     1      27.347  -0.077  53.120  1.00  0.00     0.236 A 
HETATM    6  N4  UNL     1      26.570  -0.708  54.013  1.00  0.00    -0.241 NA
HETATM    7  C13 UNL     1      25.245  -0.526  53.973  1.00  0.00     0.070 A 
HETATM    8  C14 UNL     1      24.339  -1.065  54.770  1.00  0.00     0.012 A 
HETATM    9  C15 UNL     1      22.981  -0.576  54.354  1.00  0.00     0.087 A 
ENDROOT
BRANCH   3  10
HETATM   10  N2  UNL     1      24.813   1.787  51.166  1.00  0.00    -0.340 N 
HETATM   11  H5  UNL     1      23.888   1.559  50.806  1.00  0.00     0.167 HD
BRANCH  10  12
HETATM   12  C6  UNL     1      25.269   2.999  50.583  1.00  0.00     0.035 A 
HETATM   13  C7  UNL     1      26.350   3.115  49.734  1.00  0.00     0.029 A 
HETATM   14  C8  UNL     1      26.776   4.297  49.182  1.00  0.00     0.004 A 
HETATM   15  C9  UNL     1      26.117   5.475  49.459  1.00  0.00     0.019 A 
HETATM   16  C10 UNL     1      25.030   5.409  50.303  1.00  0.00     0.013 A 
HETATM   17 BR1  UNL     1      24.153   7.060  50.657  1.00  0.00    -0.051 Br
HETATM   18  C11 UNL     1      24.640   4.200  50.834  1.00  0.00     0.048 A 
ENDBRANCH  10  12
ENDBRANCH   3  10
BRANCH   1  19
HETATM   19  N1  UNL     1      22.273   0.929  52.588  1.00  0.00    -0.386 N 
HETATM   20  H4  UNL     1      21.994   1.909  52.859  1.00  0.00     0.159 HD
BRANCH  19  21
HETATM   21  C2  UNL     1      21.522   0.228  51.550  1.00  0.00     0.188 C 
BRANCH  21  22
HETATM   22  C1  UNL     1      21.498   1.024  50.292  1.00  0.00     0.250 C 
HETATM   23  O1  UNL     1      22.268   1.428  49.465  1.00  0.00    -0.305 OA
ENDBRANCH  21  22
ENDBRANCH  19  21
ENDBRANCH   1  19
TORSDOF 5
ENDMDL
MODEL 8
REMARK VINA RESULT:      -6.5      3.765      5.434
REMARK  5 active torsions:
REMARK  status: ('A' for Active; 'I' for Inactive)
REMARK    1  A    between atoms: C1_2  and  C2_3 
REMARK    2  A    between atoms: C2_3  and  N1_4 
REMARK    3  A    between atoms: N1_4  and  C3_5 
REMARK    4  A    between atoms: C5_7  and  N2_8 
REMARK    5  A    between atoms: N2_8  and  C6_9 
ROOT
HETATM    1  C3  UNL     1      24.834   0.534  53.394  1.00  0.00     0.025 A 
HETATM    2  C4  UNL     1      23.995   0.885  52.419  1.00  0.00     0.061 A 
HETATM    3  C5  UNL     1      24.140   1.780  51.380  1.00  0.00     0.144 A 
HETATM    4  N3  UNL     1      23.087   1.877  50.589  1.00  0.00    -0.223 NA
HETATM    5  C12 UNL     1      21.937   1.208  50.704  1.00  0.00     0.236 A 
HETATM    6  N4  UNL     1      21.811   0.340  51.719  1.00  0.00    -0.241 NA
HETATM    7  C13 UNL     1      22.828   0.177  52.573  1.00  0.00     0.070 A 
HETATM    8  C14 UNL     1      22.874  -0.629  53.618  1.00  0.00     0.012 A 
HETATM    9  C15 UNL     1      24.214  -0.480  54.282  1.00  0.00     0.087 A 
ENDROOT
BRANCH   3  10
HETATM   10  N2  UNL     1      25.367   2.479  51.278  1.00  0.00    -0.340 N 
HETATM   11  H5  UNL     1      26.191   2.177  51.795  1.00  0.00     0.167 HD
BRANCH  10  12
HETATM   12  C6  UNL     1      25.677   3.632  50.510  1.00  0.00     0.035 A 
HETATM   13  C7  UNL     1      26.677   3.710  49.564  1.00  0.00     0.029 A 
HETATM   14  C8  UNL     1      26.961   4.836  48.831  1.00  0.00     0.004 A 
HETATM   15  C9  UNL     1      26.231   5.991  49.013  1.00  0.00     0.019 A 
HETATM   16  C10 UNL     1      25.221   5.960  49.949  1.00  0.00     0.013 A 
HETATM   17 BR1  UNL     1      24.241   7.577  50.165  1.00  0.00    -0.051 Br
HETATM   18  C11 UNL     1      24.973   4.807  50.660  1.00  0.00     0.048 A 
ENDBRANCH  10  12
ENDBRANCH   3  10
BRANCH   1  19
HETATM   19  N1  UNL     1      26.136   0.904  53.756  1.00  0.00    -0.386 N 
HETATM   20  H4  UNL     1      26.490   1.877  53.558  1.00  0.00     0.159 HD
BRANCH  19  21
HETATM   21  C2  UNL     1      27.014  -0.061  54.413  1.00  0.00     0.188 C 
BRANCH  21  22
HETATM   22  C1  UNL     1      27.863  -0.764  53.412  1.00  0.00     0.250 C 
HETATM   23  O1  UNL     1      28.761  -1.559  53.390  1.00  0.00    -0.305 OA
ENDBRANCH  21  22
ENDBRANCH  19  21
ENDBRANCH   1  19
TORSDOF 5
ENDMDL
MODEL 9
REMARK VINA RESULT:      -6.4      4.094      5.873
REMARK  5 active torsions:
REMARK  status: ('A' for Active; 'I' for Inactive)
REMARK    1  A    between atoms: C1_2  and  C2_3 
REMARK    2  A    between atoms: C2_3  and  N1_4 
REMARK    3  A    between atoms: N1_4  and  C3_5 
REMARK    4  A    between atoms: C5_7  and  N2_8 
REMARK    5  A    between atoms: N2_8  and  C6_9 
ROOT
HETATM    1  C3  UNL     1      24.470   2.106  52.184  1.00  0.00     0.025 A 
HETATM    2  C4  UNL     1      23.916   2.291  50.986  1.00  0.00     0.061 A 
HETATM    3  C5  UNL     1      24.386   2.938  49.862  1.00  0.00     0.144 A 
HETATM    4  N3  UNL     1      23.555   2.926  48.835  1.00  0.00    -0.223 NA
HETATM    5  C12 UNL     1      22.344   2.364  48.793  1.00  0.00     0.236 A 
HETATM    6  N4  UNL     1      21.901   1.738  49.894  1.00  0.00    -0.241 NA
HETATM    7  C13 UNL     1      22.676   1.700  50.984  1.00  0.00     0.070 A 
HETATM    8  C14 UNL     1      22.398   1.131  52.143  1.00  0.00     0.012 A 
HETATM    9  C15 UNL     1      23.561   1.339  53.072  1.00  0.00     0.087 A 
ENDROOT
BRANCH   3  10
HETATM   10  N2  UNL     1      25.671   3.527  49.930  1.00  0.00    -0.340 N 
HETATM   11  H5  UNL     1      26.412   3.116  50.495  1.00  0.00     0.167 HD
BRANCH  10  12
HETATM   12  C6  UNL     1      26.151   4.698  49.287  1.00  0.00     0.035 A 
HETATM   13  C7  UNL     1      25.381   5.792  48.950  1.00  0.00     0.029 A 
HETATM   14  C8  UNL     1      25.865   6.916  48.327  1.00  0.00     0.004 A 
HETATM   15  C9  UNL     1      27.199   7.010  47.995  1.00  0.00     0.019 A 
HETATM   16  C10 UNL     1      28.008   5.940  48.311  1.00  0.00     0.013 A 
HETATM   17 BR1  UNL     1      29.841   6.117  47.832  1.00  0.00    -0.051 Br
HETATM   18  C11 UNL     1      27.477   4.835  48.936  1.00  0.00     0.048 A 
ENDBRANCH  10  12
ENDBRANCH   3  10
BRANCH   1  19
HETATM   19  N1  UNL     1      25.688   2.468  52.774  1.00  0.00    -0.386 N 
HETATM   20  H4  UNL     1      25.792   3.399  53.258  1.00  0.00     0.159 HD
BRANCH  19  21
HETATM   21  C2  UNL     1      26.826   1.553  52.722  1.00  0.00     0.188 C 
BRANCH  21  22
HETATM   22  C1  UNL     1      28.068   2.235  53.180  1.00  0.00     0.250 C 
HETATM   23  O1  UNL     1      28.533   2.677  54.193  1.00  0.00    -0.305 OA
ENDBRANCH  21  22
ENDBRANCH  19  21
ENDBRANCH   1  19
TORSDOF 5
ENDMDL
