MODEL 1
REMARK VINA RESULT:     -10.0      0.000      0.000
REMARK  1 active torsions:
REMARK  status: ('A' for Active; 'I' for Inactive)
REMARK    1  A    between atoms: C2_2  and  C3_3 
ROOT
HETATM    1  C3  UNL     1      27.098   0.769  53.640  1.00  0.00    -0.018 A 
HETATM    2  C4  UNL     1      26.493  -0.066  54.593  1.00  0.00     0.042 A 
HETATM    3  C5  UNL     1      25.154  -0.465  54.589  1.00  0.00     0.068 A 
HETATM    4  N1  UNL     1      24.759  -1.258  55.620  1.00  0.00    -0.260 NA
HETATM    5  C6  UNL     1      23.459  -1.621  55.624  1.00  0.00     0.118 A 
HETATM    6  C7  UNL     1      22.673  -1.136  54.567  1.00  0.00     0.027 A 
HETATM    7  C8  UNL     1      23.016  -0.314  53.465  1.00  0.00    -0.042 A 
HETATM    8  C9  UNL     1      24.336  -0.027  53.578  1.00  0.00     0.001 A 
HETATM    9  C10 UNL     1      25.027   0.757  52.716  1.00  0.00     0.055 A 
HETATM   10  C11 UNL     1      26.304   1.216  52.611  1.00  0.00     0.182 A 
HETATM   11  N2  UNL     1      26.979   2.050  51.693  1.00  0.00     0.137 N 
HETATM   12  C12 UNL     1      26.709   2.989  50.724  1.00  0.00     0.311 A 
HETATM   13  O1  UNL     1      25.750   2.504  51.298  1.00  0.00    -0.120 OA
HETATM   14  C13 UNL     1      26.437   3.977  49.703  1.00  0.00     0.072 C 
HETATM   15  C14 UNL     1      25.441   4.652  49.058  1.00  0.00     0.163 C 
HETATM   16  N3  UNL     1      24.607   3.925  49.882  1.00  0.00    -0.291 NA
HETATM   17  C15 UNL     1      23.706   3.145  49.419  1.00  0.00     0.125 C 
HETATM   18  C16 UNL     1      22.803   2.358  50.226  1.00  0.00     0.230 A 
HETATM   19  C17 UNL     1      21.890   1.559  50.750  1.00  0.00     0.086 A 
HETATM   20  F1  UNL     1      22.090   1.710  49.393  1.00  0.00    -0.358 F 
HETATM   21  C18 UNL     1      21.642   1.371  52.186  1.00  0.00     0.144 C 
HETATM   22 CL1  UNL     1      20.074   2.074  52.630  1.00  0.00    -0.118 Cl
HETATM   23  C19 UNL     1      21.807  -0.049  52.666  1.00  0.00     0.066 C 
HETATM   24  H10 UNL     1      28.045   2.047  51.637  1.00  0.00     0.335 HD
ENDROOT
BRANCH   1  25
HETATM   25  C2  UNL     1      28.509   1.177  53.823  1.00  0.00     0.036 C 
HETATM   26  C1  UNL     1      29.442   0.008  53.734  1.00  0.00     0.010 C 
ENDBRANCH   1  25
TORSDOF 1
ENDMDL
MODEL 2
REMARK VINA RESULT:      -9.5      2.138      5.132
REMARK  1 active torsions:
REMARK  status: ('A' for Active; 'I' for Inactive)
REMARK    1  A    between atoms: C2_2  and  C3_3 
ROOT
HETATM    1  C3  UNL     1      26.259   0.408  52.383  1.00  0.00    -0.018 A 
HETATM    2  C4  UNL     1      26.855   1.357  51.537  1.00  0.00     0.042 A 
HETATM    3  C5  UNL     1      26.207   2.459  50.972  1.00  0.00     0.068 A 
HETATM    4  N1  UNL     1      26.959   3.247  50.157  1.00  0.00    -0.260 NA
HETATM    5  C6  UNL     1      26.322   4.296  49.596  1.00  0.00     0.118 A 
HETATM    6  C7  UNL     1      24.965   4.448  49.919  1.00  0.00     0.027 A 
HETATM    7  C8  UNL     1      24.125   3.673  50.756  1.00  0.00    -0.042 A 
HETATM    8  C9  UNL     1      24.880   2.664  51.255  1.00  0.00     0.001 A 
HETATM    9  C10 UNL     1      24.419   1.698  52.085  1.00  0.00     0.055 A 
HETATM   10  C11 UNL     1      24.933   0.592  52.690  1.00  0.00     0.182 A 
HETATM   11  N2  UNL     1      24.403  -0.400  53.544  1.00  0.00     0.137 N 
HETATM   12  C12 UNL     1      23.190  -0.923  53.928  1.00  0.00     0.311 A 
HETATM   13  O1  UNL     1      23.161  -0.020  53.111  1.00  0.00    -0.120 OA
HETATM   14  C13 UNL     1      21.921  -1.481  54.341  1.00  0.00     0.072 C 
HETATM   15  C14 UNL     1      20.569  -1.396  54.168  1.00  0.00     0.163 C 
HETATM   16  N3  UNL     1      20.888  -0.389  53.279  1.00  0.00    -0.291 NA
HETATM   17  C15 UNL     1      20.451   0.805  53.418  1.00  0.00     0.125 C 
HETATM   18  C16 UNL     1      20.747   1.900  52.526  1.00  0.00     0.230 A 
HETATM   19  C17 UNL     1      20.882   3.035  51.862  1.00  0.00     0.086 A 
HETATM   20  F1  UNL     1      20.149   2.908  53.024  1.00  0.00    -0.358 F 
HETATM   21  C18 UNL     1      21.648   3.214  50.622  1.00  0.00     0.144 C 
HETATM   22 CL1  UNL     1      20.547   3.521  49.264  1.00  0.00    -0.118 Cl
HETATM   23  C19 UNL     1      22.760   4.228  50.717  1.00  0.00     0.066 C 
HETATM   24  H10 UNL     1      25.049  -1.013  54.132  1.00  0.00     0.335 HD
ENDROOT
BRANCH   1  25
HETATM   25  C2  UNL     1      27.051  -0.759  52.837  1.00  0.00     0.036 C 
HETATM   26  C1  UNL     1      28.376  -0.346  53.401  1.00  0.00     0.010 C 
ENDBRANCH   1  25
TORSDOF 1
ENDMDL
MODEL 3
REMARK VINA RESULT:      -9.1      2.556      5.458
REMARK  1 active torsions:
REMARK  status: ('A' for Active; 'I' for Inactive)
REMARK    1  A    between atoms: C2_2  and  C3_3 
ROOT
HETATM    1  C3  UNL     1      21.700   0.472  53.720  1.00  0.00    -0.018 A 
HETATM    2  C4  UNL     1      20.579   1.232  53.349  1.00  0.00     0.042 A 
HETATM    3  C5  UNL     1      20.578   2.280  52.425  1.00  0.00     0.068 A 
HETATM    4  N1  UNL     1      19.388   2.907  52.225  1.00  0.00    -0.260 NA
HETATM    5  C6  UNL     1      19.398   3.933  51.349  1.00  0.00     0.118 A 
HETATM    6  C7  UNL     1      20.633   4.230  50.751  1.00  0.00     0.027 A 
HETATM    7  C8  UNL     1      21.903   3.622  50.908  1.00  0.00    -0.042 A 
HETATM    8  C9  UNL     1      21.755   2.614  51.802  1.00  0.00     0.001 A 
HETATM    9  C10 UNL     1      22.759   1.810  52.227  1.00  0.00     0.055 A 
HETATM   10  C11 UNL     1      22.890   0.780  53.107  1.00  0.00     0.182 A 
HETATM   11  N2  UNL     1      23.972  -0.024  53.528  1.00  0.00     0.137 N 
HETATM   12  C12 UNL     1      25.347  -0.019  53.543  1.00  0.00     0.311 A 
HETATM   13  O1  UNL     1      24.803   0.951  53.047  1.00  0.00    -0.120 OA
HETATM   14  C13 UNL     1      26.794  -0.026  53.564  1.00  0.00     0.072 C 
HETATM   15  C14 UNL     1      27.906   0.687  53.216  1.00  0.00     0.163 C 
HETATM   16  N3  UNL     1      26.995   1.608  52.742  1.00  0.00    -0.291 NA
HETATM   17  C15 UNL     1      26.977   1.979  51.518  1.00  0.00     0.125 C 
HETATM   18  C16 UNL     1      26.052   2.938  50.961  1.00  0.00     0.230 A 
HETATM   19  C17 UNL     1      25.321   3.770  50.241  1.00  0.00     0.086 A 
HETATM   20  F1  UNL     1      26.348   3.007  49.724  1.00  0.00    -0.358 F 
HETATM   21  C18 UNL     1      24.222   4.602  50.749  1.00  0.00     0.144 C 
HETATM   22 CL1  UNL     1      24.691   6.313  50.722  1.00  0.00    -0.118 Cl
HETATM   23  C19 UNL     1      22.890   4.347  50.089  1.00  0.00     0.066 C 
HETATM   24  H10 UNL     1      23.798  -0.961  54.010  1.00  0.00     0.335 HD
ENDROOT
BRANCH   1  25
HETATM   25  C2  UNL     1      21.565  -0.552  54.781  1.00  0.00     0.036 C 
HETATM   26  C1  UNL     1      20.844  -1.770  54.289  1.00  0.00     0.010 C 
ENDBRANCH   1  25
TORSDOF 1
ENDMDL
MODEL 4
REMARK VINA RESULT:      -8.8      2.836      4.930
REMARK  1 active torsions:
REMARK  status: ('A' for Active; 'I' for Inactive)
REMARK    1  A    between atoms: C2_2  and  C3_3 
ROOT
HETATM    1  C3  UNL     1      22.357   0.031  53.322  1.00  0.00    -0.018 A 
HETATM    2  C4  UNL     1      23.550  -0.693  53.476  1.00  0.00     0.042 A 
HETATM    3  C5  UNL     1      24.825  -0.239  53.129  1.00  0.00     0.068 A 
HETATM    4  N1  UNL     1      25.851  -1.107  53.335  1.00  0.00    -0.260 NA
HETATM    5  C6  UNL     1      27.077  -0.672  52.976  1.00  0.00     0.118 A 
HETATM    6  C7  UNL     1      27.145   0.621  52.433  1.00  0.00     0.027 A 
HETATM    7  C8  UNL     1      26.126   1.575  52.193  1.00  0.00    -0.042 A 
HETATM    8  C9  UNL     1      24.957   1.020  52.598  1.00  0.00     0.001 A 
HETATM    9  C10 UNL     1      23.748   1.625  52.508  1.00  0.00     0.055 A 
HETATM   10  C11 UNL     1      22.460   1.297  52.800  1.00  0.00     0.182 A 
HETATM   11  N2  UNL     1      21.221   1.964  52.674  1.00  0.00     0.137 N 
HETATM   12  C12 UNL     1      20.654   3.017  51.995  1.00  0.00     0.311 A 
HETATM   13  O1  UNL     1      21.830   2.793  51.771  1.00  0.00    -0.120 OA
HETATM   14  C13 UNL     1      20.046   4.122  51.287  1.00  0.00     0.072 C 
HETATM   15  C14 UNL     1      20.282   5.115  50.380  1.00  0.00     0.163 C 
HETATM   16  N3  UNL     1      21.562   4.600  50.360  1.00  0.00    -0.291 NA
HETATM   17  C15 UNL     1      22.584   5.306  50.661  1.00  0.00     0.125 C 
HETATM   18  C16 UNL     1      23.947   4.827  50.659  1.00  0.00     0.230 A 
HETATM   19  C17 UNL     1      25.249   4.615  50.731  1.00  0.00     0.086 A 
HETATM   20  F1  UNL     1      24.650   5.820  51.036  1.00  0.00    -0.358 F 
HETATM   21  C18 UNL     1      25.928   3.352  50.414  1.00  0.00     0.144 C 
HETATM   22 CL1  UNL     1      26.885   3.531  48.930  1.00  0.00    -0.118 Cl
HETATM   23  C19 UNL     1      26.718   2.764  51.556  1.00  0.00     0.066 C 
HETATM   24  H10 UNL     1      20.370   1.638  53.230  1.00  0.00     0.335 HD
ENDROOT
BRANCH   1  25
HETATM   25  C2  UNL     1      21.067  -0.616  53.655  1.00  0.00     0.036 C 
HETATM   26  C1  UNL     1      21.255  -1.809  54.542  1.00  0.00     0.010 C 
ENDBRANCH   1  25
TORSDOF 1
ENDMDL
MODEL 5
REMARK VINA RESULT:      -8.8      2.069      5.378
REMARK  1 active torsions:
REMARK  status: ('A' for Active; 'I' for Inactive)
REMARK    1  A    between atoms: C2_2  and  C3_3 
ROOT
HETATM    1  C3  UNL     1      25.544   3.987  49.966  1.00  0.00    -0.018 A 
HETATM    2  C4  UNL     1      24.469   4.797  49.566  1.00  0.00     0.042 A 
HETATM    3  C5  UNL     1      23.153   4.684  50.024  1.00  0.00     0.068 A 
HETATM    4  N1  UNL     1      22.253   5.552  49.492  1.00  0.00    -0.260 NA
HETATM    5  C6  UNL     1      20.980   5.422  49.920  1.00  0.00     0.118 A 
HETATM    6  C7  UNL     1      20.739   4.409  50.861  1.00  0.00     0.027 A 
HETATM    7  C8  UNL     1      21.622   3.476  51.458  1.00  0.00    -0.042 A 
HETATM    8  C9  UNL     1      22.856   3.714  50.950  1.00  0.00     0.001 A 
HETATM    9  C10 UNL     1      23.967   3.007  51.267  1.00  0.00     0.055 A 
HETATM   10  C11 UNL     1      25.277   3.013  50.897  1.00  0.00     0.182 A 
HETATM   11  N2  UNL     1      26.404   2.239  51.251  1.00  0.00     0.137 N 
HETATM   12  C12 UNL     1      26.715   1.027  51.822  1.00  0.00     0.311 A 
HETATM   13  O1  UNL     1      25.531   1.290  51.709  1.00  0.00    -0.120 OA
HETATM   14  C13 UNL     1      27.054  -0.245  52.423  1.00  0.00     0.072 C 
HETATM   15  C14 UNL     1      26.531  -1.382  52.969  1.00  0.00     0.163 C 
HETATM   16  N3  UNL     1      25.316  -0.786  52.696  1.00  0.00    -0.291 NA
HETATM   17  C15 UNL     1      24.459  -0.540  53.612  1.00  0.00     0.125 C 
HETATM   18  C16 UNL     1      23.173   0.080  53.392  1.00  0.00     0.230 A 
HETATM   19  C17 UNL     1      21.970   0.626  53.433  1.00  0.00     0.086 A 
HETATM   20  F1  UNL     1      22.643   0.167  54.547  1.00  0.00    -0.358 F 
HETATM   21  C18 UNL     1      21.218   1.124  52.274  1.00  0.00     0.144 C 
HETATM   22 CL1  UNL     1      19.818   0.079  51.962  1.00  0.00    -0.118 Cl
HETATM   23  C19 UNL     1      20.856   2.586  52.347  1.00  0.00     0.066 C 
HETATM   24  H10 UNL     1      27.392   2.598  51.060  1.00  0.00     0.335 HD
ENDROOT
BRANCH   1  25
HETATM   25  C2  UNL     1      26.868   4.170  49.328  1.00  0.00     0.036 C 
HETATM   26  C1  UNL     1      27.010   5.533  48.723  1.00  0.00     0.010 C 
ENDBRANCH   1  25
TORSDOF 1
ENDMDL
MODEL 6
REMARK VINA RESULT:      -8.7      2.805      6.900
REMARK  1 active torsions:
REMARK  status: ('A' for Active; 'I' for Inactive)
REMARK    1  A    between atoms: C2_2  and  C3_3 
ROOT
HETATM    1  C3  UNL     1      21.327   3.225  51.591  1.00  0.00    -0.018 A 
HETATM    2  C4  UNL     1      21.921   4.230  50.810  1.00  0.00     0.042 A 
HETATM    3  C5  UNL     1      23.269   4.286  50.447  1.00  0.00     0.068 A 
HETATM    4  N1  UNL     1      23.650   5.360  49.706  1.00  0.00    -0.260 NA
HETATM    5  C6  UNL     1      24.958   5.420  49.379  1.00  0.00     0.118 A 
HETATM    6  C7  UNL     1      25.766   4.370  49.842  1.00  0.00     0.027 A 
HETATM    7  C8  UNL     1      25.439   3.226  50.611  1.00  0.00    -0.042 A 
HETATM    8  C9  UNL     1      24.109   3.284  50.866  1.00  0.00     0.001 A 
HETATM    9  C10 UNL     1      23.426   2.369  51.597  1.00  0.00     0.055 A 
HETATM   10  C11 UNL     1      22.143   2.206  52.017  1.00  0.00     0.182 A 
HETATM   11  N2  UNL     1      21.478   1.233  52.796  1.00  0.00     0.137 N 
HETATM   12  C12 UNL     1      21.755   0.237  53.702  1.00  0.00     0.311 A 
HETATM   13  O1  UNL     1      22.707   0.859  53.267  1.00  0.00    -0.120 OA
HETATM   14  C13 UNL     1      22.035  -0.815  54.657  1.00  0.00     0.072 C 
HETATM   15  C14 UNL     1      23.035  -1.454  55.332  1.00  0.00     0.163 C 
HETATM   16  N3  UNL     1      23.860  -0.576  54.660  1.00  0.00    -0.291 NA
HETATM   17  C15 UNL     1      24.795  -0.977  53.887  1.00  0.00     0.125 C 
HETATM   18  C16 UNL     1      25.691  -0.111  53.157  1.00  0.00     0.230 A 
HETATM   19  C17 UNL     1      26.606   0.474  52.404  1.00  0.00     0.086 A 
HETATM   20  F1  UNL     1      26.447  -0.893  52.496  1.00  0.00    -0.358 F 
HETATM   21  C18 UNL     1      26.811   1.924  52.279  1.00  0.00     0.144 C 
HETATM   22 CL1  UNL     1      28.345   2.389  53.041  1.00  0.00    -0.118 Cl
HETATM   23  C19 UNL     1      26.666   2.455  50.876  1.00  0.00     0.066 C 
HETATM   24  H10 UNL     1      20.414   1.144  52.762  1.00  0.00     0.335 HD
ENDROOT
BRANCH   1  25
HETATM   25  C2  UNL     1      19.900   3.346  51.967  1.00  0.00     0.036 C 
HETATM   26  C1  UNL     1      19.099   4.029  50.901  1.00  0.00     0.010 C 
ENDBRANCH   1  25
TORSDOF 1
ENDMDL
MODEL 7
REMARK VINA RESULT:      -8.6      2.832      5.287
REMARK  1 active torsions:
REMARK  status: ('A' for Active; 'I' for Inactive)
REMARK    1  A    between atoms: C2_2  and  C3_3 
ROOT
HETATM    1  C3  UNL     1      19.615   0.194  52.169  1.00  0.00    -0.018 A 
HETATM    2  C4  UNL     1      19.972  -0.652  53.232  1.00  0.00     0.042 A 
HETATM    3  C5  UNL     1      21.242  -0.738  53.809  1.00  0.00     0.068 A 
HETATM    4  N1  UNL     1      21.387  -1.643  54.813  1.00  0.00    -0.260 NA
HETATM    5  C6  UNL     1      22.621  -1.738  55.351  1.00  0.00     0.118 A 
HETATM    6  C7  UNL     1      23.604  -0.896  54.809  1.00  0.00     0.027 A 
HETATM    7  C8  UNL     1      23.524   0.066  53.771  1.00  0.00    -0.042 A 
HETATM    8  C9  UNL     1      22.244   0.065  53.325  1.00  0.00     0.001 A 
HETATM    9  C10 UNL     1      21.782   0.843  52.316  1.00  0.00     0.055 A 
HETATM   10  C11 UNL     1      20.597   1.015  51.671  1.00  0.00     0.182 A 
HETATM   11  N2  UNL     1      20.165   1.837  50.606  1.00  0.00     0.137 N 
HETATM   12  C12 UNL     1      20.681   2.571  49.564  1.00  0.00     0.311 A 
HETATM   13  O1  UNL     1      21.483   1.986  50.269  1.00  0.00    -0.120 OA
HETATM   14  C13 UNL     1      21.213   3.348  48.465  1.00  0.00     0.072 C 
HETATM   15  C14 UNL     1      22.364   3.727  47.837  1.00  0.00     0.163 C 
HETATM   16  N3  UNL     1      22.979   2.958  48.804  1.00  0.00    -0.291 NA
HETATM   17  C15 UNL     1      23.841   3.445  49.613  1.00  0.00     0.125 C 
HETATM   18  C16 UNL     1      24.519   2.695  50.644  1.00  0.00     0.230 A 
HETATM   19  C17 UNL     1      25.245   2.222  51.641  1.00  0.00     0.086 A 
HETATM   20  F1  UNL     1      25.265   3.541  51.235  1.00  0.00    -0.358 F 
HETATM   21  C18 UNL     1      25.257   0.828  52.104  1.00  0.00     0.144 C 
HETATM   22 CL1  UNL     1      26.814   0.071  51.715  1.00  0.00    -0.118 Cl
HETATM   23  C19 UNL     1      24.859   0.647  53.547  1.00  0.00     0.066 C 
HETATM   24  H10 UNL     1      19.125   2.023  50.450  1.00  0.00     0.335 HD
ENDROOT
BRANCH   1  25
HETATM   25  C2  UNL     1      18.248   0.113  51.604  1.00  0.00     0.036 C 
HETATM   26  C1  UNL     1      17.419  -0.922  52.300  1.00  0.00     0.010 C 
ENDBRANCH   1  25
TORSDOF 1
ENDMDL
MODEL 8
REMARK VINA RESULT:      -8.4      2.524      4.893
REMARK  1 active torsions:
REMARK  status: ('A' for Active; 'I' for Inactive)
REMARK    1  A    between atoms: C2_2  and  C3_3 
ROOT
HETATM    1  C3  UNL     1      24.529   4.049  50.242  1.00  0.00    -0.018 A 
HETATM    2  C4  UNL     1      25.658   3.348  50.694  1.00  0.00     0.042 A 
HETATM    3  C5  UNL     1      25.635   2.146  51.406  1.00  0.00     0.068 A 
HETATM    4  N1  UNL     1      26.842   1.641  51.775  1.00  0.00    -0.260 NA
HETATM    5  C6  UNL     1      26.813   0.492  52.483  1.00  0.00     0.118 A 
HETATM    6  C7  UNL     1      25.543  -0.041  52.753  1.00  0.00     0.027 A 
HETATM    7  C8  UNL     1      24.253   0.426  52.401  1.00  0.00    -0.042 A 
HETATM    8  C9  UNL     1      24.423   1.572  51.697  1.00  0.00     0.001 A 
HETATM    9  C10 UNL     1      23.412   2.327  51.203  1.00  0.00     0.055 A 
HETATM   10  C11 UNL     1      23.302   3.494  50.512  1.00  0.00     0.182 A 
HETATM   11  N2  UNL     1      22.214   4.253  50.028  1.00  0.00     0.137 N 
HETATM   12  C12 UNL     1      20.862   4.404  50.225  1.00  0.00     0.311 A 
HETATM   13  O1  UNL     1      21.426   3.576  50.917  1.00  0.00    -0.120 OA
HETATM   14  C13 UNL     1      19.438   4.571  50.423  1.00  0.00     0.072 C 
HETATM   15  C14 UNL     1      18.365   4.131  51.144  1.00  0.00     0.163 C 
HETATM   16  N3  UNL     1      19.289   3.302  51.747  1.00  0.00    -0.291 NA
HETATM   17  C15 UNL     1      19.175   2.028  51.728  1.00  0.00     0.125 C 
HETATM   18  C16 UNL     1      20.105   1.108  52.339  1.00  0.00     0.230 A 
HETATM   19  C17 UNL     1      20.808   0.093  52.810  1.00  0.00     0.086 A 
HETATM   20  F1  UNL     1      19.648  -0.051  52.075  1.00  0.00    -0.358 F 
HETATM   21  C18 UNL     1      22.044   0.201  53.596  1.00  0.00     0.144 C 
HETATM   22 CL1  UNL     1      21.748  -0.315  55.268  1.00  0.00    -0.118 Cl
HETATM   23  C19 UNL     1      23.239  -0.476  52.975  1.00  0.00     0.066 C 
HETATM   24  H10 UNL     1      22.359   4.984  49.263  1.00  0.00     0.335 HD
ENDROOT
BRANCH   1  25
HETATM   25  C2  UNL     1      24.707   5.359  49.574  1.00  0.00     0.036 C 
HETATM   26  C1  UNL     1      26.043   5.465  48.904  1.00  0.00     0.010 C 
ENDBRANCH   1  25
TORSDOF 1
ENDMDL
MODEL 9
REMARK VINA RESULT:      -8.1      3.231      7.088
REMARK  1 active torsions:
REMARK  status: ('A' for Active; 'I' for Inactive)
REMARK    1  A    between atoms: C2_2  and  C3_3 
ROOT
HETATM    1  C3  UNL     1      27.131   5.777  48.716  1.00  0.00    -0.018 A 
HETATM    2  C4  UNL     1      26.728   6.972  48.098  1.00  0.00     0.042 A 
HETATM    3  C5  UNL     1      25.522   7.640  48.331  1.00  0.00     0.068 A 
HETATM    4  N1  UNL     1      25.312   8.772  47.609  1.00  0.00    -0.260 NA
HETATM    5  C6  UNL     1      24.136   9.400  47.821  1.00  0.00     0.118 A 
HETATM    6  C7  UNL     1      23.274   8.810  48.758  1.00  0.00     0.027 A 
HETATM    7  C8  UNL     1      23.428   7.641  49.544  1.00  0.00    -0.042 A 
HETATM    8  C9  UNL     1      24.640   7.114  49.241  1.00  0.00     0.001 A 
HETATM    9  C10 UNL     1      25.138   5.975  49.779  1.00  0.00     0.055 A 
HETATM   10  C11 UNL     1      26.270   5.232  49.638  1.00  0.00     0.182 A 
HETATM   11  N2  UNL     1      26.741   4.034  50.217  1.00  0.00     0.137 N 
HETATM   12  C12 UNL     1      26.270   2.933  50.895  1.00  0.00     0.311 A 
HETATM   13  O1  UNL     1      25.445   3.768  50.569  1.00  0.00    -0.120 OA
HETATM   14  C13 UNL     1      25.787   1.772  51.610  1.00  0.00     0.072 C 
HETATM   15  C14 UNL     1      24.669   1.175  52.117  1.00  0.00     0.163 C 
HETATM   16  N3  UNL     1      24.019   2.282  51.612  1.00  0.00    -0.291 NA
HETATM   17  C15 UNL     1      23.338   3.069  52.355  1.00  0.00     0.125 C 
HETATM   18  C16 UNL     1      22.635   4.241  51.888  1.00  0.00     0.230 A 
HETATM   19  C17 UNL     1      21.932   5.343  51.695  1.00  0.00     0.086 A 
HETATM   20  F1  UNL     1      22.111   4.753  52.930  1.00  0.00    -0.358 F 
HETATM   21  C18 UNL     1      21.713   6.002  50.401  1.00  0.00     0.144 C 
HETATM   22 CL1  UNL     1      20.016   5.832  49.911  1.00  0.00    -0.118 Cl
HETATM   23  C19 UNL     1      22.204   7.426  50.336  1.00  0.00     0.066 C 
HETATM   24  H10 UNL     1      27.778   3.782  50.179  1.00  0.00     0.335 HD
ENDROOT
BRANCH   1  25
HETATM   25  C2  UNL     1      28.401   5.138  48.303  1.00  0.00     0.036 C 
HETATM   26  C1  UNL     1      29.520   6.131  48.214  1.00  0.00     0.010 C 
ENDBRANCH   1  25
TORSDOF 1
ENDMDL
