MODEL 1
REMARK VINA RESULT:      -7.4      0.000      0.000
REMARK  6 active torsions:
REMARK  status: ('A' for Active; 'I' for Inactive)
REMARK    1  A    between atoms: C2_2  and  C3_3 
REMARK    2  A    between atoms: C3_3  and  C4_4 
REMARK    3  A    between atoms: C6_7  and  N2_8 
REMARK    4  A    between atoms: N2_8  and  C7_9 
REMARK    5  A    between atoms: C11_15  and  O1_16 
REMARK    6  A    between atoms: C13_18  and  O2_19 
ROOT
HETATM    1  C7  UNL     1      23.144   1.656  52.036  1.00  0.00     0.157 A 
HETATM    2  N3  UNL     1      22.675   2.895  51.925  1.00  0.00    -0.223 NA
HETATM    3  C8  UNL     1      23.247   3.967  52.474  1.00  0.00     0.236 A 
HETATM    4  N4  UNL     1      24.380   3.781  53.193  1.00  0.00    -0.241 NA
HETATM    5  C9  UNL     1      24.894   2.551  53.334  1.00  0.00     0.075 A 
HETATM    6  C10 UNL     1      26.049   2.270  54.051  1.00  0.00     0.072 A 
HETATM    7  C11 UNL     1      26.570   1.002  54.192  1.00  0.00     0.103 A 
HETATM    8  C13 UNL     1      25.901  -0.047  53.581  1.00  0.00     0.102 A 
HETATM    9  C15 UNL     1      24.737   0.147  52.845  1.00  0.00     0.057 A 
HETATM   10  C16 UNL     1      24.292   1.441  52.759  1.00  0.00     0.042 A 
ENDROOT
BRANCH   1  11
HETATM   11  N2  UNL     1      22.371   0.667  51.367  1.00  0.00    -0.169 N 
HETATM   12  H5  UNL     1      22.584   0.115  50.506  1.00  0.00     0.186 HD
BRANCH  11  13
HETATM   13  C6  UNL     1      21.082   0.209  51.764  1.00  0.00     0.746 A 
HETATM   14  N1  UNL     1      21.148  -0.420  52.971  1.00  0.00    -0.071 NA
HETATM   15  C5  UNL     1      20.017  -0.936  53.532  1.00  0.00     0.170 A 
HETATM   16  C4  UNL     1      18.817  -0.801  52.843  1.00  0.00     0.105 A 
HETATM   17  N6  UNL     1      18.826  -0.173  51.663  1.00  0.00    -0.132 NA
HETATM   18  N5  UNL     1      19.909   0.332  51.105  1.00  0.00     0.044 NA
BRANCH  16  19
HETATM   19  C3  UNL     1      17.569  -1.324  53.378  1.00  0.00     0.085 C 
BRANCH  19  20
HETATM   20  C2  UNL     1      17.363  -2.633  53.398  1.00  0.00    -0.152 C 
HETATM   21  C1  UNL     1      16.994  -3.881  53.637  1.00  0.00     0.096 C 
ENDBRANCH  19  20
ENDBRANCH  16  19
ENDBRANCH  11  13
ENDBRANCH   1  11
BRANCH   8  22
HETATM   22  O2  UNL     1      26.411  -1.329  53.713  1.00  0.00    -0.353 OA
HETATM   23  C14 UNL     1      27.064  -1.908  52.575  1.00  0.00     0.210 C 
ENDBRANCH   8  22
BRANCH   7  24
HETATM   24  O1  UNL     1      27.716   0.741  54.906  1.00  0.00    -0.353 OA
HETATM   25  C12 UNL     1      28.974   1.029  54.309  1.00  0.00     0.210 C 
ENDBRANCH   7  24
TORSDOF 6
ENDMDL
MODEL 2
REMARK VINA RESULT:      -7.3      2.758      6.567
REMARK  6 active torsions:
REMARK  status: ('A' for Active; 'I' for Inactive)
REMARK    1  A    between atoms: C2_2  and  C3_3 
REMARK    2  A    between atoms: C3_3  and  C4_4 
REMARK    3  A    between atoms: C6_7  and  N2_8 
REMARK    4  A    between atoms: N2_8  and  C7_9 
REMARK    5  A    between atoms: C11_15  and  O1_16 
REMARK    6  A    between atoms: C13_18  and  O2_19 
ROOT
HETATM    1  C7  UNL     1      23.217   1.715  52.610  1.00  0.00     0.157 A 
HETATM    2  N3  UNL     1      22.190   0.904  52.380  1.00  0.00    -0.223 NA
HETATM    3  C8  UNL     1      22.174  -0.394  52.687  1.00  0.00     0.236 A 
HETATM    4  N4  UNL     1      23.279  -0.919  53.270  1.00  0.00    -0.241 NA
HETATM    5  C9  UNL     1      24.341  -0.142  53.523  1.00  0.00     0.075 A 
HETATM    6  C10 UNL     1      25.511  -0.596  54.118  1.00  0.00     0.072 A 
HETATM    7  C11 UNL     1      26.599   0.210  54.374  1.00  0.00     0.103 A 
HETATM    8  C13 UNL     1      26.516   1.547  54.018  1.00  0.00     0.102 A 
HETATM    9  C15 UNL     1      25.381   2.082  53.419  1.00  0.00     0.057 A 
HETATM   10  C16 UNL     1      24.348   1.207  53.201  1.00  0.00     0.042 A 
ENDROOT
BRANCH   1  11
HETATM   11  N2  UNL     1      23.011   3.062  52.202  1.00  0.00    -0.169 N 
HETATM   12  H5  UNL     1      22.306   3.762  52.520  1.00  0.00     0.186 HD
BRANCH  11  13
HETATM   13  C6  UNL     1      23.775   3.760  51.221  1.00  0.00     0.746 A 
HETATM   14  N1  UNL     1      23.825   5.091  51.512  1.00  0.00    -0.071 NA
HETATM   15  C5  UNL     1      24.509   5.940  50.694  1.00  0.00     0.170 A 
HETATM   16  C4  UNL     1      25.142   5.413  49.574  1.00  0.00     0.105 A 
HETATM   17  N6  UNL     1      25.050   4.098  49.350  1.00  0.00    -0.132 NA
HETATM   18  N5  UNL     1      24.393   3.260  50.130  1.00  0.00     0.044 NA
BRANCH  16  19
HETATM   19  C3  UNL     1      25.892   6.255  48.655  1.00  0.00     0.085 C 
BRANCH  19  20
HETATM   20  C2  UNL     1      27.200   6.087  48.532  1.00  0.00    -0.152 C 
HETATM   21  C1  UNL     1      28.436   5.675  48.295  1.00  0.00     0.096 C 
ENDBRANCH  19  20
ENDBRANCH  16  19
ENDBRANCH  11  13
ENDBRANCH   1  11
BRANCH   8  22
HETATM   22  O2  UNL     1      27.601   2.372  54.269  1.00  0.00    -0.353 OA
HETATM   23  C14 UNL     1      28.576   2.528  53.229  1.00  0.00     0.210 C 
ENDBRANCH   8  22
BRANCH   7  24
HETATM   24  O1  UNL     1      27.751  -0.256  54.964  1.00  0.00    -0.353 OA
HETATM   25  C12 UNL     1      28.760  -0.822  54.137  1.00  0.00     0.210 C 
ENDBRANCH   7  24
TORSDOF 6
ENDMDL
MODEL 3
REMARK VINA RESULT:      -7.2      3.313      8.019
REMARK  6 active torsions:
REMARK  status: ('A' for Active; 'I' for Inactive)
REMARK    1  A    between atoms: C2_2  and  C3_3 
REMARK    2  A    between atoms: C3_3  and  C4_4 
REMARK    3  A    between atoms: C6_7  and  N2_8 
REMARK    4  A    between atoms: N2_8  and  C7_9 
REMARK    5  A    between atoms: C11_15  and  O1_16 
REMARK    6  A    between atoms: C13_18  and  O2_19 
ROOT
HETATM    1  C7  UNL     1      22.825   0.247  53.587  1.00  0.00     0.157 A 
HETATM    2  N3  UNL     1      23.350  -0.562  54.501  1.00  0.00    -0.223 NA
HETATM    3  C8  UNL     1      22.678  -1.536  55.118  1.00  0.00     0.236 A 
HETATM    4  N4  UNL     1      21.376  -1.710  54.791  1.00  0.00    -0.241 NA
HETATM    5  C9  UNL     1      20.799  -0.920  53.875  1.00  0.00     0.075 A 
HETATM    6  C10 UNL     1      19.472  -1.029  53.480  1.00  0.00     0.072 A 
HETATM    7  C11 UNL     1      18.887  -0.213  52.537  1.00  0.00     0.103 A 
HETATM    8  C13 UNL     1      19.671   0.771  51.952  1.00  0.00     0.102 A 
HETATM    9  C15 UNL     1      21.008   0.947  52.291  1.00  0.00     0.057 A 
HETATM   10  C16 UNL     1      21.505   0.090  53.238  1.00  0.00     0.042 A 
ENDROOT
BRANCH   1  11
HETATM   11  N2  UNL     1      23.727   1.212  53.061  1.00  0.00    -0.169 N 
HETATM   12  H5  UNL     1      23.549   2.033  52.441  1.00  0.00     0.186 HD
BRANCH  11  13
HETATM   13  C6  UNL     1      25.132   1.251  53.292  1.00  0.00     0.746 A 
HETATM   14  N1  UNL     1      25.773   0.344  52.502  1.00  0.00    -0.071 NA
HETATM   15  C5  UNL     1      27.129   0.221  52.570  1.00  0.00     0.170 A 
HETATM   16  C4  UNL     1      27.824   1.036  53.456  1.00  0.00     0.105 A 
HETATM   17  N6  UNL     1      27.130   1.904  54.201  1.00  0.00    -0.132 NA
HETATM   18  N5  UNL     1      25.819   2.037  54.149  1.00  0.00     0.044 NA
BRANCH  16  19
HETATM   19  C3  UNL     1      29.271   0.964  53.584  1.00  0.00     0.085 C 
BRANCH  19  20
HETATM   20  C2  UNL     1      29.862  -0.219  53.668  1.00  0.00    -0.152 C 
HETATM   21  C1  UNL     1      30.193  -1.500  53.723  1.00  0.00     0.096 C 
ENDBRANCH  19  20
ENDBRANCH  16  19
ENDBRANCH  11  13
ENDBRANCH   1  11
BRANCH   8  22
HETATM   22  O2  UNL     1      19.099   1.601  51.002  1.00  0.00    -0.353 OA
HETATM   23  C14 UNL     1      18.804   2.951  51.384  1.00  0.00     0.210 C 
ENDBRANCH   8  22
BRANCH   7  24
HETATM   24  O1  UNL     1      17.571  -0.333  52.157  1.00  0.00    -0.353 OA
HETATM   25  C12 UNL     1      16.786  -1.368  52.736  1.00  0.00     0.210 C 
ENDBRANCH   7  24
TORSDOF 6
ENDMDL
MODEL 4
REMARK VINA RESULT:      -7.1      1.831      2.410
REMARK  6 active torsions:
REMARK  status: ('A' for Active; 'I' for Inactive)
REMARK    1  A    between atoms: C2_2  and  C3_3 
REMARK    2  A    between atoms: C3_3  and  C4_4 
REMARK    3  A    between atoms: C6_7  and  N2_8 
REMARK    4  A    between atoms: N2_8  and  C7_9 
REMARK    5  A    between atoms: C11_15  and  O1_16 
REMARK    6  A    between atoms: C13_18  and  O2_19 
ROOT
HETATM    1  C7  UNL     1      24.488   2.592  52.130  1.00  0.00     0.157 A 
HETATM    2  N3  UNL     1      24.785   3.323  51.061  1.00  0.00    -0.223 NA
HETATM    3  C8  UNL     1      25.962   3.295  50.434  1.00  0.00     0.236 A 
HETATM    4  N4  UNL     1      26.917   2.468  50.921  1.00  0.00    -0.241 NA
HETATM    5  C9  UNL     1      26.669   1.709  51.997  1.00  0.00     0.075 A 
HETATM    6  C10 UNL     1      27.588   0.834  52.560  1.00  0.00     0.072 A 
HETATM    7  C11 UNL     1      27.323   0.058  53.667  1.00  0.00     0.103 A 
HETATM    8  C13 UNL     1      26.068   0.159  54.246  1.00  0.00     0.102 A 
HETATM    9  C15 UNL     1      25.089   1.010  53.745  1.00  0.00     0.057 A 
HETATM   10  C16 UNL     1      25.441   1.744  52.642  1.00  0.00     0.042 A 
ENDROOT
BRANCH   1  11
HETATM   11  N2  UNL     1      23.172   2.782  52.633  1.00  0.00    -0.169 N 
HETATM   12  H5  UNL     1      22.797   3.506  53.284  1.00  0.00     0.186 HD
BRANCH  11  13
HETATM   13  C6  UNL     1      22.039   1.973  52.326  1.00  0.00     0.746 A 
HETATM   14  N1  UNL     1      20.897   2.716  52.361  1.00  0.00    -0.071 NA
HETATM   15  C5  UNL     1      19.695   2.128  52.095  1.00  0.00     0.170 A 
HETATM   16  C4  UNL     1      19.675   0.771  51.794  1.00  0.00     0.105 A 
HETATM   17  N6  UNL     1      20.834   0.105  51.778  1.00  0.00    -0.132 NA
HETATM   18  N5  UNL     1      22.005   0.655  52.032  1.00  0.00     0.044 NA
BRANCH  16  19
HETATM   19  C3  UNL     1      18.432   0.075  51.498  1.00  0.00     0.085 C 
BRANCH  19  20
HETATM   20  C2  UNL     1      17.965  -0.822  52.355  1.00  0.00    -0.152 C 
HETATM   21  C1  UNL     1      17.761  -1.721  53.304  1.00  0.00     0.096 C 
ENDBRANCH  19  20
ENDBRANCH  16  19
ENDBRANCH  11  13
ENDBRANCH   1  11
BRANCH   8  22
HETATM   22  O2  UNL     1      25.784  -0.615  55.361  1.00  0.00    -0.353 OA
HETATM   23  C14 UNL     1      24.504  -1.258  55.420  1.00  0.00     0.210 C 
ENDBRANCH   8  22
BRANCH   7  24
HETATM   24  O1  UNL     1      28.246  -0.804  54.213  1.00  0.00    -0.353 OA
HETATM   25  C12 UNL     1      29.608  -0.682  53.824  1.00  0.00     0.210 C 
ENDBRANCH   7  24
TORSDOF 6
ENDMDL
MODEL 5
REMARK VINA RESULT:      -6.9      2.870      3.972
REMARK  6 active torsions:
REMARK  status: ('A' for Active; 'I' for Inactive)
REMARK    1  A    between atoms: C2_2  and  C3_3 
REMARK    2  A    between atoms: C3_3  and  C4_4 
REMARK    3  A    between atoms: C6_7  and  N2_8 
REMARK    4  A    between atoms: N2_8  and  C7_9 
REMARK    5  A    between atoms: C11_15  and  O1_16 
REMARK    6  A    between atoms: C13_18  and  O2_19 
ROOT
HETATM    1  C7  UNL     1      21.977   0.394  52.742  1.00  0.00     0.157 A 
HETATM    2  N3  UNL     1      21.005  -0.067  53.523  1.00  0.00    -0.223 NA
HETATM    3  C8  UNL     1      21.206  -0.790  54.626  1.00  0.00     0.236 A 
HETATM    4  N4  UNL     1      22.484  -1.074  54.971  1.00  0.00    -0.241 NA
HETATM    5  C9  UNL     1      23.501  -0.633  54.217  1.00  0.00     0.075 A 
HETATM    6  C10 UNL     1      24.839  -0.876  54.497  1.00  0.00     0.072 A 
HETATM    7  C11 UNL     1      25.877  -0.418  53.716  1.00  0.00     0.103 A 
HETATM    8  C13 UNL     1      25.564   0.327  52.589  1.00  0.00     0.102 A 
HETATM    9  C15 UNL     1      24.250   0.616  52.236  1.00  0.00     0.057 A 
HETATM   10  C16 UNL     1      23.283   0.119  53.072  1.00  0.00     0.042 A 
ENDROOT
BRANCH   1  11
HETATM   11  N2  UNL     1      21.531   1.143  51.619  1.00  0.00    -0.169 N 
HETATM   12  H5  UNL     1      21.930   1.218  50.657  1.00  0.00     0.186 HD
BRANCH  11  13
HETATM   13  C6  UNL     1      20.383   1.987  51.584  1.00  0.00     0.746 A 
HETATM   14  N1  UNL     1      19.564   1.638  50.552  1.00  0.00    -0.071 NA
HETATM   15  C5  UNL     1      18.405   2.325  50.342  1.00  0.00     0.170 A 
HETATM   16  C4  UNL     1      18.093   3.374  51.200  1.00  0.00     0.105 A 
HETATM   17  N6  UNL     1      18.943   3.661  52.191  1.00  0.00    -0.132 NA
HETATM   18  N5  UNL     1      20.068   3.008  52.410  1.00  0.00     0.044 NA
BRANCH  16  19
HETATM   19  C3  UNL     1      16.874   4.152  51.041  1.00  0.00     0.085 C 
BRANCH  19  20
HETATM   20  C2  UNL     1      15.979   4.174  52.017  1.00  0.00    -0.152 C 
HETATM   21  C1  UNL     1      15.203   3.955  53.067  1.00  0.00     0.096 C 
ENDBRANCH  19  20
ENDBRANCH  16  19
ENDBRANCH  11  13
ENDBRANCH   1  11
BRANCH   8  22
HETATM   22  O2  UNL     1      26.596   0.795  51.792  1.00  0.00    -0.353 OA
HETATM   23  C14 UNL     1      26.822   2.211  51.754  1.00  0.00     0.210 C 
ENDBRANCH   8  22
BRANCH   7  24
HETATM   24  O1  UNL     1      27.198  -0.668  54.007  1.00  0.00    -0.353 OA
HETATM   25  C12 UNL     1      27.891   0.233  54.860  1.00  0.00     0.210 C 
ENDBRANCH   7  24
TORSDOF 6
ENDMDL
MODEL 6
REMARK VINA RESULT:      -6.8      5.686      7.763
REMARK  6 active torsions:
REMARK  status: ('A' for Active; 'I' for Inactive)
REMARK    1  A    between atoms: C2_2  and  C3_3 
REMARK    2  A    between atoms: C3_3  and  C4_4 
REMARK    3  A    between atoms: C6_7  and  N2_8 
REMARK    4  A    between atoms: N2_8  and  C7_9 
REMARK    5  A    between atoms: C11_15  and  O1_16 
REMARK    6  A    between atoms: C13_18  and  O2_19 
ROOT
HETATM    1  C7  UNL     1      25.072   4.580  50.356  1.00  0.00     0.157 A 
HETATM    2  N3  UNL     1      24.020   4.839  51.125  1.00  0.00    -0.223 NA
HETATM    3  C8  UNL     1      23.596   6.067  51.430  1.00  0.00     0.236 A 
HETATM    4  N4  UNL     1      24.285   7.117  50.924  1.00  0.00    -0.241 NA
HETATM    5  C9  UNL     1      25.354   6.909  50.143  1.00  0.00     0.075 A 
HETATM    6  C10 UNL     1      26.116   7.926  49.581  1.00  0.00     0.072 A 
HETATM    7  C11 UNL     1      27.213   7.703  48.779  1.00  0.00     0.103 A 
HETATM    8  C13 UNL     1      27.573   6.389  48.520  1.00  0.00     0.102 A 
HETATM    9  C15 UNL     1      26.864   5.312  49.042  1.00  0.00     0.057 A 
HETATM   10  C16 UNL     1      25.787   5.630  49.829  1.00  0.00     0.042 A 
ENDROOT
BRANCH   1  11
HETATM   11  N2  UNL     1      25.340   3.197  50.163  1.00  0.00    -0.169 N 
HETATM   12  H5  UNL     1      25.276   2.612  49.300  1.00  0.00     0.186 HD
BRANCH  11  13
HETATM   13  C6  UNL     1      25.774   2.285  51.168  1.00  0.00     0.746 A 
HETATM   14  N1  UNL     1      27.038   2.588  51.576  1.00  0.00    -0.071 NA
HETATM   15  C5  UNL     1      27.642   1.833  52.537  1.00  0.00     0.170 A 
HETATM   16  C4  UNL     1      26.938   0.763  53.077  1.00  0.00     0.105 A 
HETATM   17  N6  UNL     1      25.701   0.523  52.629  1.00  0.00    -0.132 NA
HETATM   18  N5  UNL     1      25.100   1.242  51.701  1.00  0.00     0.044 NA
BRANCH  16  19
HETATM   19  C3  UNL     1      27.516  -0.088  54.107  1.00  0.00     0.085 C 
BRANCH  19  20
HETATM   20  C2  UNL     1      28.776  -0.480  54.000  1.00  0.00    -0.152 C 
HETATM   21  C1  UNL     1      29.992  -0.840  53.620  1.00  0.00     0.096 C 
ENDBRANCH  19  20
ENDBRANCH  16  19
ENDBRANCH  11  13
ENDBRANCH   1  11
BRANCH   8  22
HETATM   22  O2  UNL     1      28.674   6.146  47.715  1.00  0.00    -0.353 OA
HETATM   23  C14 UNL     1      29.890   5.731  48.352  1.00  0.00     0.210 C 
ENDBRANCH   8  22
BRANCH   7  24
HETATM   24  O1  UNL     1      27.958   8.721  48.231  1.00  0.00    -0.353 OA
HETATM   25  C12 UNL     1      28.857   9.436  49.070  1.00  0.00     0.210 C 
ENDBRANCH   7  24
TORSDOF 6
ENDMDL
MODEL 7
REMARK VINA RESULT:      -6.8      2.838      3.469
REMARK  6 active torsions:
REMARK  status: ('A' for Active; 'I' for Inactive)
REMARK    1  A    between atoms: C2_2  and  C3_3 
REMARK    2  A    between atoms: C3_3  and  C4_4 
REMARK    3  A    between atoms: C6_7  and  N2_8 
REMARK    4  A    between atoms: N2_8  and  C7_9 
REMARK    5  A    between atoms: C11_15  and  O1_16 
REMARK    6  A    between atoms: C13_18  and  O2_19 
ROOT
HETATM    1  C7  UNL     1      23.372   1.493  51.689  1.00  0.00     0.157 A 
HETATM    2  N3  UNL     1      23.637   2.406  50.761  1.00  0.00    -0.223 NA
HETATM    3  C8  UNL     1      24.843   2.936  50.549  1.00  0.00     0.236 A 
HETATM    4  N4  UNL     1      25.864   2.515  51.333  1.00  0.00    -0.241 NA
HETATM    5  C9  UNL     1      25.649   1.595  52.284  1.00  0.00     0.075 A 
HETATM    6  C10 UNL     1      26.637   1.107  53.130  1.00  0.00     0.072 A 
HETATM    7  C11 UNL     1      26.407   0.162  54.105  1.00  0.00     0.103 A 
HETATM    8  C13 UNL     1      25.117  -0.328  54.245  1.00  0.00     0.102 A 
HETATM    9  C15 UNL     1      24.071   0.107  53.439  1.00  0.00     0.057 A 
HETATM   10  C16 UNL     1      24.392   1.049  52.497  1.00  0.00     0.042 A 
ENDROOT
BRANCH   1  11
HETATM   11  N2  UNL     1      22.015   1.069  51.735  1.00  0.00    -0.169 N 
HETATM   12  H5  UNL     1      21.612   0.111  51.828  1.00  0.00     0.186 HD
BRANCH  11  13
HETATM   13  C6  UNL     1      20.875   1.920  51.659  1.00  0.00     0.746 A 
HETATM   14  N1  UNL     1      20.271   1.803  50.443  1.00  0.00    -0.071 NA
HETATM   15  C5  UNL     1      19.155   2.537  50.165  1.00  0.00     0.170 A 
HETATM   16  C4  UNL     1      18.665   3.392  51.145  1.00  0.00     0.105 A 
HETATM   17  N6  UNL     1      19.309   3.456  52.315  1.00  0.00    -0.132 NA
HETATM   18  N5  UNL     1      20.388   2.755  52.603  1.00  0.00     0.044 NA
BRANCH  16  19
HETATM   19  C3  UNL     1      17.479   4.206  50.923  1.00  0.00     0.085 C 
BRANCH  19  20
HETATM   20  C2  UNL     1      16.436   4.076  51.728  1.00  0.00    -0.152 C 
HETATM   21  C1  UNL     1      15.543   4.107  52.705  1.00  0.00     0.096 C 
ENDBRANCH  19  20
ENDBRANCH  16  19
ENDBRANCH  11  13
ENDBRANCH   1  11
BRANCH   8  22
HETATM   22  O2  UNL     1      24.868  -1.280  55.221  1.00  0.00    -0.353 OA
HETATM   23  C14 UNL     1      23.508  -1.479  55.629  1.00  0.00     0.210 C 
ENDBRANCH   8  22
BRANCH   7  24
HETATM   24  O1  UNL     1      27.396  -0.311  54.936  1.00  0.00    -0.353 OA
HETATM   25  C12 UNL     1      28.739   0.090  54.694  1.00  0.00     0.210 C 
ENDBRANCH   7  24
TORSDOF 6
ENDMDL
MODEL 8
REMARK VINA RESULT:      -6.7      4.057      7.352
REMARK  6 active torsions:
REMARK  status: ('A' for Active; 'I' for Inactive)
REMARK    1  A    between atoms: C2_2  and  C3_3 
REMARK    2  A    between atoms: C3_3  and  C4_4 
REMARK    3  A    between atoms: C6_7  and  N2_8 
REMARK    4  A    between atoms: N2_8  and  C7_9 
REMARK    5  A    between atoms: C11_15  and  O1_16 
REMARK    6  A    between atoms: C13_18  and  O2_19 
ROOT
HETATM    1  C7  UNL     1      24.837   3.863  50.595  1.00  0.00     0.157 A 
HETATM    2  N3  UNL     1      25.360   5.055  50.327  1.00  0.00    -0.223 NA
HETATM    3  C8  UNL     1      24.708   6.210  50.465  1.00  0.00     0.236 A 
HETATM    4  N4  UNL     1      23.429   6.164  50.906  1.00  0.00    -0.241 NA
HETATM    5  C9  UNL     1      22.855   4.987  51.190  1.00  0.00     0.075 A 
HETATM    6  C10 UNL     1      21.551   4.849  51.648  1.00  0.00     0.072 A 
HETATM    7  C11 UNL     1      20.969   3.634  51.938  1.00  0.00     0.103 A 
HETATM    8  C13 UNL     1      21.732   2.489  51.762  1.00  0.00     0.102 A 
HETATM    9  C15 UNL     1      23.045   2.540  51.308  1.00  0.00     0.057 A 
HETATM   10  C16 UNL     1      23.541   3.791  51.045  1.00  0.00     0.042 A 
ENDROOT
BRANCH   1  11
HETATM   11  N2  UNL     1      25.717   2.767  50.377  1.00  0.00    -0.169 N 
HETATM   12  H5  UNL     1      25.876   2.191  49.521  1.00  0.00     0.186 HD
BRANCH  11  13
HETATM   13  C6  UNL     1      26.605   2.207  51.341  1.00  0.00     0.746 A 
HETATM   14  N1  UNL     1      26.238   0.931  51.646  1.00  0.00    -0.071 NA
HETATM   15  C5  UNL     1      26.962   0.214  52.552  1.00  0.00     0.170 A 
HETATM   16  C4  UNL     1      28.065   0.818  53.145  1.00  0.00     0.105 A 
HETATM   17  N6  UNL     1      28.366   2.074  52.799  1.00  0.00    -0.132 NA
HETATM   18  N5  UNL     1      27.678   2.783  51.924  1.00  0.00     0.044 NA
BRANCH  16  19
HETATM   19  C3  UNL     1      28.885   0.117  54.121  1.00  0.00     0.085 C 
BRANCH  19  20
HETATM   20  C2  UNL     1      29.412  -1.058  53.809  1.00  0.00    -0.152 C 
HETATM   21  C1  UNL     1      29.681  -2.291  53.411  1.00  0.00     0.096 C 
ENDBRANCH  19  20
ENDBRANCH  16  19
ENDBRANCH  11  13
ENDBRANCH   1  11
BRANCH   8  22
HETATM   22  O2  UNL     1      21.163   1.259  52.050  1.00  0.00    -0.353 OA
HETATM   23  C14 UNL     1      20.750   0.440  50.947  1.00  0.00     0.210 C 
ENDBRANCH   8  22
BRANCH   7  24
HETATM   24  O1  UNL     1      19.676   3.514  52.390  1.00  0.00    -0.353 OA
HETATM   25  C12 UNL     1      18.611   3.667  51.461  1.00  0.00     0.210 C 
ENDBRANCH   7  24
TORSDOF 6
ENDMDL
MODEL 9
REMARK VINA RESULT:      -6.6      3.655      7.722
REMARK  6 active torsions:
REMARK  status: ('A' for Active; 'I' for Inactive)
REMARK    1  A    between atoms: C2_2  and  C3_3 
REMARK    2  A    between atoms: C3_3  and  C4_4 
REMARK    3  A    between atoms: C6_7  and  N2_8 
REMARK    4  A    between atoms: N2_8  and  C7_9 
REMARK    5  A    between atoms: C11_15  and  O1_16 
REMARK    6  A    between atoms: C13_18  and  O2_19 
ROOT
HETATM    1  C7  UNL     1      22.624   4.529  51.985  1.00  0.00     0.157 A 
HETATM    2  N3  UNL     1      21.530   5.092  51.482  1.00  0.00    -0.223 NA
HETATM    3  C8  UNL     1      20.401   4.433  51.216  1.00  0.00     0.236 A 
HETATM    4  N4  UNL     1      20.369   3.104  51.475  1.00  0.00    -0.241 NA
HETATM    5  C9  UNL     1      21.446   2.489  51.983  1.00  0.00     0.075 A 
HETATM    6  C10 UNL     1      21.500   1.134  52.279  1.00  0.00     0.072 A 
HETATM    7  C11 UNL     1      22.612   0.510  52.801  1.00  0.00     0.103 A 
HETATM    8  C13 UNL     1      23.737   1.284  53.043  1.00  0.00     0.102 A 
HETATM    9  C15 UNL     1      23.767   2.648  52.775  1.00  0.00     0.057 A 
HETATM   10  C16 UNL     1      22.616   3.182  52.257  1.00  0.00     0.042 A 
ENDROOT
BRANCH   1  11
HETATM   11  N2  UNL     1      23.710   5.424  52.189  1.00  0.00    -0.169 N 
HETATM   12  H5  UNL     1      24.066   5.862  53.067  1.00  0.00     0.186 HD
BRANCH  11  13
HETATM   13  C6  UNL     1      24.577   5.926  51.176  1.00  0.00     0.746 A 
HETATM   14  N1  UNL     1      25.073   4.905  50.421  1.00  0.00    -0.071 NA
HETATM   15  C5  UNL     1      25.927   5.171  49.393  1.00  0.00     0.170 A 
HETATM   16  C4  UNL     1      26.270   6.496  49.144  1.00  0.00     0.105 A 
HETATM   17  N6  UNL     1      25.746   7.447  49.925  1.00  0.00    -0.132 NA
HETATM   18  N5  UNL     1      24.919   7.208  50.924  1.00  0.00     0.044 NA
BRANCH  16  19
HETATM   19  C3  UNL     1      27.174   6.859  48.064  1.00  0.00     0.085 C 
BRANCH  19  20
HETATM   20  C2  UNL     1      28.396   6.347  48.033  1.00  0.00    -0.152 C 
HETATM   21  C1  UNL     1      29.492   5.610  48.111  1.00  0.00     0.096 C 
ENDBRANCH  19  20
ENDBRANCH  16  19
ENDBRANCH  11  13
ENDBRANCH   1  11
BRANCH   8  22
HETATM   22  O2  UNL     1      24.865   0.673  53.568  1.00  0.00    -0.353 OA
HETATM   23  C14 UNL     1      25.949   0.389  52.674  1.00  0.00     0.210 C 
ENDBRANCH   8  22
BRANCH   7  24
HETATM   24  O1  UNL     1      22.649  -0.834  53.089  1.00  0.00    -0.353 OA
HETATM   25  C12 UNL     1      21.850  -1.326  54.157  1.00  0.00     0.210 C 
ENDBRANCH   7  24
TORSDOF 6
ENDMDL
