MODEL 1
REMARK VINA RESULT:      -9.2      0.000      0.000
REMARK  3 active torsions:
REMARK  status: ('A' for Active; 'I' for Inactive)
REMARK       I    between atoms: C3_3  and  N1_5 
REMARK    1  A    between atoms: N1_5  and  C4_6 
REMARK    2  A    between atoms: C11_15  and  N4_16 
REMARK    3  A    between atoms: N4_16  and  C12_17 
ROOT
HETATM    1  C1  UNL     1      29.966  -0.158  53.490  1.00  0.00     0.022 C 
HETATM    2  C2  UNL     1      28.830  -0.579  53.517  1.00  0.00    -0.016 C 
HETATM    3  C3  UNL     1      27.485  -1.084  53.531  1.00  0.00     0.300 C 
HETATM    4  O1  UNL     1      27.144  -2.165  52.951  1.00  0.00    -0.258 OA
HETATM    5  N1  UNL     1      26.516  -0.327  54.227  1.00  0.00    -0.316 N 
HETATM    6  H2  UNL     1      26.690   0.581  54.741  1.00  0.00     0.170 HD
ENDROOT
BRANCH   5   7
HETATM    7  C4  UNL     1      25.109  -0.588  54.405  1.00  0.00     0.036 A 
HETATM    8  C5  UNL     1      24.537  -1.281  55.453  1.00  0.00     0.032 A 
HETATM    9  C6  UNL     1      23.167  -1.435  55.462  1.00  0.00     0.035 A 
HETATM   10  C7  UNL     1      22.372  -0.913  54.455  1.00  0.00     0.069 A 
HETATM   11  N2  UNL     1      21.032  -1.078  54.488  1.00  0.00    -0.259 NA
HETATM   12  C18 UNL     1      22.957  -0.210  53.397  1.00  0.00     0.023 A 
HETATM   13  C8  UNL     1      20.267  -0.570  53.511  1.00  0.00     0.142 A 
HETATM   14  C9  UNL     1      20.820   0.134  52.443  1.00  0.00     0.089 A 
HETATM   15  C10 UNL     1      19.978   0.668  51.408  1.00  0.00     0.103 C 
HETATM   16  C11 UNL     1      22.193   0.335  52.356  1.00  0.00     0.067 A 
HETATM   17  N3  UNL     1      19.289   1.084  50.582  1.00  0.00    -0.191 NA
HETATM   18  C19 UNL     1      24.343  -0.045  53.369  1.00  0.00     0.045 A 
BRANCH  16  19
HETATM   19  N4  UNL     1      22.804   1.046  51.288  1.00  0.00    -0.354 N 
HETATM   20  H6  UNL     1      22.931   0.416  50.466  1.00  0.00     0.166 HD
BRANCH  19  21
HETATM   21  C12 UNL     1      23.186   2.408  51.328  1.00  0.00     0.033 A 
HETATM   22  C13 UNL     1      22.496   3.238  52.187  1.00  0.00     0.029 A 
HETATM   23  C14 UNL     1      22.883   4.581  52.215  1.00  0.00     0.004 A 
HETATM   24  C15 UNL     1      23.917   4.992  51.398  1.00  0.00     0.019 A 
HETATM   25  C16 UNL     1      24.583   4.126  50.550  1.00  0.00     0.013 A 
HETATM   26 BR1  UNL     1      26.006   4.721  49.430  1.00  0.00    -0.051 Br
HETATM   27  C17 UNL     1      24.222   2.778  50.495  1.00  0.00     0.048 A 
ENDBRANCH  19  21
ENDBRANCH  16  19
ENDBRANCH   5   7
TORSDOF 3
ENDMDL
MODEL 2
REMARK VINA RESULT:      -8.7      2.193      5.354
REMARK  3 active torsions:
REMARK  status: ('A' for Active; 'I' for Inactive)
REMARK       I    between atoms: C3_3  and  N1_5 
REMARK    1  A    between atoms: N1_5  and  C4_6 
REMARK    2  A    between atoms: C11_15  and  N4_16 
REMARK    3  A    between atoms: N4_16  and  C12_17 
ROOT
HETATM    1  C1  UNL     1      17.830  -0.147  51.195  1.00  0.00     0.022 C 
HETATM    2  C2  UNL     1      18.820   0.065  51.862  1.00  0.00    -0.016 C 
HETATM    3  C3  UNL     1      19.995   0.333  52.644  1.00  0.00     0.300 C 
HETATM    4  O1  UNL     1      20.274   1.488  53.101  1.00  0.00    -0.258 OA
HETATM    5  N1  UNL     1      20.862  -0.751  52.903  1.00  0.00    -0.316 N 
HETATM    6  H2  UNL     1      20.726  -1.747  52.573  1.00  0.00     0.170 HD
ENDROOT
BRANCH   5   7
HETATM    7  C4  UNL     1      22.096  -0.776  53.648  1.00  0.00     0.036 A 
HETATM    8  C5  UNL     1      22.324  -1.469  54.820  1.00  0.00     0.032 A 
HETATM    9  C6  UNL     1      23.573  -1.378  55.398  1.00  0.00     0.035 A 
HETATM   10  C7  UNL     1      24.581  -0.617  54.831  1.00  0.00     0.069 A 
HETATM   11  N2  UNL     1      25.795  -0.545  55.418  1.00  0.00    -0.259 NA
HETATM   12  C18 UNL     1      24.345   0.082  53.643  1.00  0.00     0.023 A 
HETATM   13  C8  UNL     1      26.768   0.193  54.864  1.00  0.00     0.142 A 
HETATM   14  C9  UNL     1      26.563   0.902  53.682  1.00  0.00     0.089 A 
HETATM   15  C10 UNL     1      27.622   1.686  53.109  1.00  0.00     0.103 C 
HETATM   16  C11 UNL     1      25.334   0.865  53.033  1.00  0.00     0.067 A 
HETATM   17  N3  UNL     1      28.481   2.316  52.666  1.00  0.00    -0.191 NA
HETATM   18  C19 UNL     1      23.087   0.004  53.042  1.00  0.00     0.045 A 
BRANCH  16  19
HETATM   19  N4  UNL     1      25.076   1.569  51.825  1.00  0.00    -0.354 N 
HETATM   20  H6  UNL     1      25.242   0.945  51.006  1.00  0.00     0.166 HD
BRANCH  19  21
HETATM   21  C12 UNL     1      24.655   2.917  51.741  1.00  0.00     0.033 A 
HETATM   22  C13 UNL     1      23.917   3.421  52.793  1.00  0.00     0.029 A 
HETATM   23  C14 UNL     1      23.508   4.754  52.697  1.00  0.00     0.004 A 
HETATM   24  C15 UNL     1      23.860   5.478  51.575  1.00  0.00     0.019 A 
HETATM   25  C16 UNL     1      24.601   4.933  50.542  1.00  0.00     0.013 A 
HETATM   26 BR1  UNL     1      25.072   5.955  49.003  1.00  0.00    -0.051 Br
HETATM   27  C17 UNL     1      25.026   3.605  50.605  1.00  0.00     0.048 A 
ENDBRANCH  19  21
ENDBRANCH  16  19
ENDBRANCH   5   7
TORSDOF 3
ENDMDL
MODEL 3
REMARK VINA RESULT:      -8.7      3.012      5.853
REMARK  3 active torsions:
REMARK  status: ('A' for Active; 'I' for Inactive)
REMARK       I    between atoms: C3_3  and  N1_5 
REMARK    1  A    between atoms: N1_5  and  C4_6 
REMARK    2  A    between atoms: C11_15  and  N4_16 
REMARK    3  A    between atoms: N4_16  and  C12_17 
ROOT
HETATM    1  C1  UNL     1      27.045   6.483  48.570  1.00  0.00     0.022 C 
HETATM    2  C2  UNL     1      26.008   5.907  48.821  1.00  0.00    -0.016 C 
HETATM    3  C3  UNL     1      24.774   5.240  49.130  1.00  0.00     0.300 C 
HETATM    4  O1  UNL     1      23.659   5.849  49.217  1.00  0.00    -0.258 OA
HETATM    5  N1  UNL     1      24.828   3.845  49.343  1.00  0.00    -0.316 N 
HETATM    6  H2  UNL     1      25.697   3.243  49.296  1.00  0.00     0.170 HD
ENDROOT
BRANCH   5   7
HETATM    7  C4  UNL     1      23.763   2.927  49.664  1.00  0.00     0.036 A 
HETATM    8  C5  UNL     1      22.678   2.630  48.865  1.00  0.00     0.032 A 
HETATM    9  C6  UNL     1      21.751   1.724  49.334  1.00  0.00     0.035 A 
HETATM   10  C7  UNL     1      21.890   1.119  50.572  1.00  0.00     0.069 A 
HETATM   11  N2  UNL     1      20.967   0.235  51.008  1.00  0.00    -0.259 NA
HETATM   12  C18 UNL     1      22.992   1.423  51.378  1.00  0.00     0.023 A 
HETATM   13  C8  UNL     1      21.108  -0.348  52.208  1.00  0.00     0.142 A 
HETATM   14  C9  UNL     1      22.194  -0.065  53.034  1.00  0.00     0.089 A 
HETATM   15  C10 UNL     1      22.322  -0.703  54.315  1.00  0.00     0.103 C 
HETATM   16  C11 UNL     1      23.175   0.837  52.637  1.00  0.00     0.067 A 
HETATM   17  N3  UNL     1      22.405  -1.218  55.344  1.00  0.00    -0.191 NA
HETATM   18  C19 UNL     1      23.941   2.339  50.921  1.00  0.00     0.045 A 
BRANCH  16  19
HETATM   19  N4  UNL     1      24.302   1.158  53.443  1.00  0.00    -0.354 N 
HETATM   20  H6  UNL     1      24.055   1.919  54.113  1.00  0.00     0.166 HD
BRANCH  19  21
HETATM   21  C12 UNL     1      25.571   0.541  53.354  1.00  0.00     0.033 A 
HETATM   22  C13 UNL     1      25.626  -0.725  52.808  1.00  0.00     0.029 A 
HETATM   23  C14 UNL     1      26.887  -1.324  52.726  1.00  0.00     0.004 A 
HETATM   24  C15 UNL     1      27.985  -0.625  53.187  1.00  0.00     0.019 A 
HETATM   25  C16 UNL     1      27.885   0.643  53.728  1.00  0.00     0.013 A 
HETATM   26 BR1  UNL     1      29.418   1.585  54.359  1.00  0.00    -0.051 Br
HETATM   27  C17 UNL     1      26.642   1.271  53.826  1.00  0.00     0.048 A 
ENDBRANCH  19  21
ENDBRANCH  16  19
ENDBRANCH   5   7
TORSDOF 3
ENDMDL
MODEL 4
REMARK VINA RESULT:      -8.3      2.708      4.263
REMARK  3 active torsions:
REMARK  status: ('A' for Active; 'I' for Inactive)
REMARK       I    between atoms: C3_3  and  N1_5 
REMARK    1  A    between atoms: N1_5  and  C4_6 
REMARK    2  A    between atoms: C11_15  and  N4_16 
REMARK    3  A    between atoms: N4_16  and  C12_17 
ROOT
HETATM    1  C1  UNL     1      27.550   5.774  48.534  1.00  0.00     0.022 C 
HETATM    2  C2  UNL     1      27.054   4.800  49.059  1.00  0.00    -0.016 C 
HETATM    3  C3  UNL     1      26.449   3.651  49.674  1.00  0.00     0.300 C 
HETATM    4  O1  UNL     1      25.563   2.942  49.098  1.00  0.00    -0.258 OA
HETATM    5  N1  UNL     1      26.876   3.315  50.978  1.00  0.00    -0.316 N 
HETATM    6  H2  UNL     1      27.602   3.833  51.546  1.00  0.00     0.170 HD
ENDROOT
BRANCH   5   7
HETATM    7  C4  UNL     1      26.450   2.230  51.828  1.00  0.00     0.036 A 
HETATM    8  C5  UNL     1      27.274   1.333  52.476  1.00  0.00     0.032 A 
HETATM    9  C6  UNL     1      26.690   0.355  53.252  1.00  0.00     0.035 A 
HETATM   10  C7  UNL     1      25.315   0.261  53.389  1.00  0.00     0.069 A 
HETATM   11  N2  UNL     1      24.769  -0.707  54.155  1.00  0.00    -0.259 NA
HETATM   12  C18 UNL     1      24.484   1.173  52.730  1.00  0.00     0.023 A 
HETATM   13  C8  UNL     1      23.437  -0.792  54.284  1.00  0.00     0.142 A 
HETATM   14  C9  UNL     1      22.583   0.101  53.640  1.00  0.00     0.089 A 
HETATM   15  C10 UNL     1      21.159  -0.012  53.794  1.00  0.00     0.103 C 
HETATM   16  C11 UNL     1      23.089   1.118  52.838  1.00  0.00     0.067 A 
HETATM   17  N3  UNL     1      20.018  -0.121  53.922  1.00  0.00    -0.191 NA
HETATM   18  C19 UNL     1      25.056   2.171  51.939  1.00  0.00     0.045 A 
BRANCH  16  19
HETATM   19  N4  UNL     1      22.259   2.054  52.161  1.00  0.00    -0.354 N 
HETATM   20  H6  UNL     1      21.843   2.722  52.846  1.00  0.00     0.166 HD
BRANCH  19  21
HETATM   21  C12 UNL     1      22.030   2.080  50.766  1.00  0.00     0.033 A 
HETATM   22  C13 UNL     1      21.576   0.920  50.173  1.00  0.00     0.029 A 
HETATM   23  C14 UNL     1      21.354   0.960  48.794  1.00  0.00     0.004 A 
HETATM   24  C15 UNL     1      21.597   2.138  48.115  1.00  0.00     0.019 A 
HETATM   25  C16 UNL     1      22.053   3.279  48.749  1.00  0.00     0.013 A 
HETATM   26 BR1  UNL     1      22.382   4.892  47.787  1.00  0.00    -0.051 Br
HETATM   27  C17 UNL     1      22.285   3.275  50.125  1.00  0.00     0.048 A 
ENDBRANCH  19  21
ENDBRANCH  16  19
ENDBRANCH   5   7
TORSDOF 3
ENDMDL
MODEL 5
REMARK VINA RESULT:      -8.2      2.390      5.619
REMARK  3 active torsions:
REMARK  status: ('A' for Active; 'I' for Inactive)
REMARK       I    between atoms: C3_3  and  N1_5 
REMARK    1  A    between atoms: N1_5  and  C4_6 
REMARK    2  A    between atoms: C11_15  and  N4_16 
REMARK    3  A    between atoms: N4_16  and  C12_17 
ROOT
HETATM    1  C1  UNL     1      17.995   2.573  48.901  1.00  0.00     0.022 C 
HETATM    2  C2  UNL     1      18.511   2.260  49.953  1.00  0.00    -0.016 C 
HETATM    3  C3  UNL     1      19.129   1.908  51.201  1.00  0.00     0.300 C 
HETATM    4  O1  UNL     1      19.175   2.698  52.199  1.00  0.00    -0.258 OA
HETATM    5  N1  UNL     1      19.705   0.622  51.298  1.00  0.00    -0.316 N 
HETATM    6  H2  UNL     1      19.723  -0.109  50.534  1.00  0.00     0.170 HD
ENDROOT
BRANCH   5   7
HETATM    7  C4  UNL     1      20.383   0.007  52.412  1.00  0.00     0.036 A 
HETATM    8  C5  UNL     1      19.794  -0.752  53.404  1.00  0.00     0.032 A 
HETATM    9  C6  UNL     1      20.600  -1.265  54.397  1.00  0.00     0.035 A 
HETATM   10  C7  UNL     1      21.966  -1.036  54.413  1.00  0.00     0.069 A 
HETATM   11  N2  UNL     1      22.734  -1.551  55.398  1.00  0.00    -0.259 NA
HETATM   12  C18 UNL     1      22.558  -0.268  53.406  1.00  0.00     0.023 A 
HETATM   13  C8  UNL     1      24.056  -1.326  55.409  1.00  0.00     0.142 A 
HETATM   14  C9  UNL     1      24.674  -0.564  54.419  1.00  0.00     0.089 A 
HETATM   15  C10 UNL     1      26.093  -0.338  54.453  1.00  0.00     0.103 C 
HETATM   16  C11 UNL     1      23.935  -0.009  53.381  1.00  0.00     0.067 A 
HETATM   17  N3  UNL     1      27.231  -0.160  54.500  1.00  0.00    -0.191 NA
HETATM   18  C19 UNL     1      21.758   0.262  52.391  1.00  0.00     0.045 A 
BRANCH  16  19
HETATM   19  N4  UNL     1      24.519   0.774  52.348  1.00  0.00    -0.354 N 
HETATM   20  H6  UNL     1      25.176   0.191  51.787  1.00  0.00     0.166 HD
BRANCH  19  21
HETATM   21  C12 UNL     1      24.252   2.144  52.114  1.00  0.00     0.033 A 
HETATM   22  C13 UNL     1      24.206   2.981  53.210  1.00  0.00     0.029 A 
HETATM   23  C14 UNL     1      23.941   4.331  52.963  1.00  0.00     0.004 A 
HETATM   24  C15 UNL     1      23.743   4.742  51.660  1.00  0.00     0.019 A 
HETATM   25  C16 UNL     1      23.797   3.869  50.589  1.00  0.00     0.013 A 
HETATM   26 BR1  UNL     1      23.519   4.463  48.799  1.00  0.00    -0.051 Br
HETATM   27  C17 UNL     1      24.059   2.514  50.798  1.00  0.00     0.048 A 
ENDBRANCH  19  21
ENDBRANCH  16  19
ENDBRANCH   5   7
TORSDOF 3
ENDMDL
MODEL 6
REMARK VINA RESULT:      -7.8      3.464      6.475
REMARK  3 active torsions:
REMARK  status: ('A' for Active; 'I' for Inactive)
REMARK       I    between atoms: C3_3  and  N1_5 
REMARK    1  A    between atoms: N1_5  and  C4_6 
REMARK    2  A    between atoms: C11_15  and  N4_16 
REMARK    3  A    between atoms: N4_16  and  C12_17 
ROOT
HETATM    1  C1  UNL     1      22.333   7.916  49.319  1.00  0.00     0.022 C 
HETATM    2  C2  UNL     1      22.942   7.088  49.962  1.00  0.00    -0.016 C 
HETATM    3  C3  UNL     1      23.678   6.120  50.727  1.00  0.00     0.300 C 
HETATM    4  O1  UNL     1      24.295   6.411  51.802  1.00  0.00    -0.258 OA
HETATM    5  N1  UNL     1      23.702   4.794  50.242  1.00  0.00    -0.316 N 
HETATM    6  H2  UNL     1      23.226   4.446  49.364  1.00  0.00     0.170 HD
ENDROOT
BRANCH   5   7
HETATM    7  C4  UNL     1      24.351   3.631  50.794  1.00  0.00     0.036 A 
HETATM    8  C5  UNL     1      25.666   3.263  50.596  1.00  0.00     0.032 A 
HETATM    9  C6  UNL     1      26.120   2.112  51.206  1.00  0.00     0.035 A 
HETATM   10  C7  UNL     1      25.291   1.337  52.000  1.00  0.00     0.069 A 
HETATM   11  N2  UNL     1      25.761   0.214  52.585  1.00  0.00    -0.259 NA
HETATM   12  C18 UNL     1      23.959   1.714  52.197  1.00  0.00     0.023 A 
HETATM   13  C8  UNL     1      24.954  -0.533  53.352  1.00  0.00     0.142 A 
HETATM   14  C9  UNL     1      23.623  -0.183  53.568  1.00  0.00     0.089 A 
HETATM   15  C10 UNL     1      22.778  -1.001  54.395  1.00  0.00     0.103 C 
HETATM   16  C11 UNL     1      23.084   0.961  52.991  1.00  0.00     0.067 A 
HETATM   17  N3  UNL     1      22.112  -1.673  55.055  1.00  0.00    -0.191 NA
HETATM   18  C19 UNL     1      23.480   2.875  51.588  1.00  0.00     0.045 A 
BRANCH  16  19
HETATM   19  N4  UNL     1      21.733   1.361  53.181  1.00  0.00    -0.354 N 
HETATM   20  H6  UNL     1      21.669   2.035  53.973  1.00  0.00     0.166 HD
BRANCH  19  21
HETATM   21  C12 UNL     1      20.634   0.912  52.412  1.00  0.00     0.033 A 
HETATM   22  C13 UNL     1      20.535   1.370  51.114  1.00  0.00     0.029 A 
HETATM   23  C14 UNL     1      19.444   0.919  50.365  1.00  0.00     0.004 A 
HETATM   24  C15 UNL     1      18.544   0.055  50.957  1.00  0.00     0.019 A 
HETATM   25  C16 UNL     1      18.680  -0.379  52.263  1.00  0.00     0.013 A 
HETATM   26 BR1  UNL     1      17.421  -1.571  53.056  1.00  0.00    -0.051 Br
HETATM   27  C17 UNL     1      19.757   0.051  53.039  1.00  0.00     0.048 A 
ENDBRANCH  19  21
ENDBRANCH  16  19
ENDBRANCH   5   7
TORSDOF 3
ENDMDL
MODEL 7
REMARK VINA RESULT:      -7.5      2.573      4.882
REMARK  3 active torsions:
REMARK  status: ('A' for Active; 'I' for Inactive)
REMARK       I    between atoms: C3_3  and  N1_5 
REMARK    1  A    between atoms: N1_5  and  C4_6 
REMARK    2  A    between atoms: C11_15  and  N4_16 
REMARK    3  A    between atoms: N4_16  and  C12_17 
ROOT
HETATM    1  C1  UNL     1      29.034  -0.315  53.843  1.00  0.00     0.022 C 
HETATM    2  C2  UNL     1      28.189   0.494  53.523  1.00  0.00    -0.016 C 
HETATM    3  C3  UNL     1      27.177   1.447  53.161  1.00  0.00     0.300 C 
HETATM    4  O1  UNL     1      26.590   2.193  54.010  1.00  0.00    -0.258 OA
HETATM    5  N1  UNL     1      26.837   1.542  51.793  1.00  0.00    -0.316 N 
HETATM    6  H2  UNL     1      27.260   0.973  51.008  1.00  0.00     0.170 HD
ENDROOT
BRANCH   5   7
HETATM    7  C4  UNL     1      25.871   2.398  51.149  1.00  0.00     0.036 A 
HETATM    8  C5  UNL     1      26.111   3.662  50.650  1.00  0.00     0.032 A 
HETATM    9  C6  UNL     1      25.064   4.341  50.062  1.00  0.00     0.035 A 
HETATM   10  C7  UNL     1      23.801   3.782  49.967  1.00  0.00     0.069 A 
HETATM   11  N2  UNL     1      22.792   4.468  49.386  1.00  0.00    -0.259 NA
HETATM   12  C18 UNL     1      23.563   2.500  50.473  1.00  0.00     0.023 A 
HETATM   13  C8  UNL     1      21.571   3.922  49.297  1.00  0.00     0.142 A 
HETATM   14  C9  UNL     1      21.304   2.647  49.792  1.00  0.00     0.089 A 
HETATM   15  C10 UNL     1      19.986   2.084  49.684  1.00  0.00     0.103 C 
HETATM   16  C11 UNL     1      22.302   1.894  50.400  1.00  0.00     0.067 A 
HETATM   17  N3  UNL     1      18.921   1.650  49.595  1.00  0.00    -0.191 NA
HETATM   18  C19 UNL     1      24.610   1.797  51.073  1.00  0.00     0.045 A 
BRANCH  16  19
HETATM   19  N4  UNL     1      22.079   0.590  50.920  1.00  0.00    -0.354 N 
HETATM   20  H6  UNL     1      22.096  -0.110  50.147  1.00  0.00     0.166 HD
BRANCH  19  21
HETATM   21  C12 UNL     1      21.866   0.282  52.284  1.00  0.00     0.033 A 
HETATM   22  C13 UNL     1      20.621   0.559  52.812  1.00  0.00     0.029 A 
HETATM   23  C14 UNL     1      20.424   0.250  54.161  1.00  0.00     0.004 A 
HETATM   24  C15 UNL     1      21.468  -0.306  54.875  1.00  0.00     0.019 A 
HETATM   25  C16 UNL     1      22.701  -0.566  54.306  1.00  0.00     0.013 A 
HETATM   26 BR1  UNL     1      24.125  -1.333  55.315  1.00  0.00    -0.051 Br
HETATM   27  C17 UNL     1      22.933  -0.270  52.962  1.00  0.00     0.048 A 
ENDBRANCH  19  21
ENDBRANCH  16  19
ENDBRANCH   5   7
TORSDOF 3
ENDMDL
MODEL 8
REMARK VINA RESULT:      -7.4      2.495      3.623
REMARK  3 active torsions:
REMARK  status: ('A' for Active; 'I' for Inactive)
REMARK       I    between atoms: C3_3  and  N1_5 
REMARK    1  A    between atoms: N1_5  and  C4_6 
REMARK    2  A    between atoms: C11_15  and  N4_16 
REMARK    3  A    between atoms: N4_16  and  C12_17 
ROOT
HETATM    1  C1  UNL     1      27.120   3.890  49.242  1.00  0.00     0.022 C 
HETATM    2  C2  UNL     1      26.430   3.438  50.131  1.00  0.00    -0.016 C 
HETATM    3  C3  UNL     1      25.615   2.919  51.194  1.00  0.00     0.300 C 
HETATM    4  O1  UNL     1      24.785   3.633  51.843  1.00  0.00    -0.258 OA
HETATM    5  N1  UNL     1      25.761   1.551  51.513  1.00  0.00    -0.316 N 
HETATM    6  H2  UNL     1      26.418   0.870  51.040  1.00  0.00     0.170 HD
ENDROOT
BRANCH   5   7
HETATM    7  C4  UNL     1      25.084   0.770  52.519  1.00  0.00     0.036 A 
HETATM    8  C5  UNL     1      25.659   0.224  53.648  1.00  0.00     0.032 A 
HETATM    9  C6  UNL     1      24.856  -0.497  54.506  1.00  0.00     0.035 A 
HETATM   10  C7  UNL     1      23.506  -0.678  54.254  1.00  0.00     0.069 A 
HETATM   11  N2  UNL     1      22.741  -1.390  55.111  1.00  0.00    -0.259 NA
HETATM   12  C18 UNL     1      22.928  -0.123  53.109  1.00  0.00     0.023 A 
HETATM   13  C8  UNL     1      21.435  -1.562  54.862  1.00  0.00     0.142 A 
HETATM   14  C9  UNL     1      20.830  -1.022  53.729  1.00  0.00     0.089 A 
HETATM   15  C10 UNL     1      19.428  -1.221  53.485  1.00  0.00     0.103 C 
HETATM   16  C11 UNL     1      21.568  -0.280  52.812  1.00  0.00     0.067 A 
HETATM   17  N3  UNL     1      18.303  -1.396  53.301  1.00  0.00    -0.191 NA
HETATM   18  C19 UNL     1      23.725   0.610  52.227  1.00  0.00     0.045 A 
BRANCH  16  19
HETATM   19  N4  UNL     1      20.997   0.291  51.643  1.00  0.00    -0.354 N 
HETATM   20  H6  UNL     1      21.075  -0.376  50.845  1.00  0.00     0.166 HD
BRANCH  19  21
HETATM   21  C12 UNL     1      20.409   1.576  51.566  1.00  0.00     0.033 A 
HETATM   22  C13 UNL     1      19.032   1.643  51.512  1.00  0.00     0.029 A 
HETATM   23  C14 UNL     1      18.464   2.918  51.436  1.00  0.00     0.004 A 
HETATM   24  C15 UNL     1      19.299   4.018  51.420  1.00  0.00     0.019 A 
HETATM   25  C16 UNL     1      20.676   3.905  51.476  1.00  0.00     0.013 A 
HETATM   26 BR1  UNL     1      21.807   5.440  51.451  1.00  0.00    -0.051 Br
HETATM   27  C17 UNL     1      21.277   2.647  51.552  1.00  0.00     0.048 A 
ENDBRANCH  19  21
ENDBRANCH  16  19
ENDBRANCH   5   7
TORSDOF 3
ENDMDL
MODEL 9
REMARK VINA RESULT:      -7.4      2.858      6.027
REMARK  3 active torsions:
REMARK  status: ('A' for Active; 'I' for Inactive)
REMARK       I    between atoms: C3_3  and  N1_5 
REMARK    1  A    between atoms: N1_5  and  C4_6 
REMARK    2  A    between atoms: C11_15  and  N4_16 
REMARK    3  A    between atoms: N4_16  and  C12_17 
ROOT
HETATM    1  C1  UNL     1      18.188   4.607  49.202  1.00  0.00     0.022 C 
HETATM    2  C2  UNL     1      19.049   3.806  49.498  1.00  0.00    -0.016 C 
HETATM    3  C3  UNL     1      20.065   2.847  49.832  1.00  0.00     0.300 C 
HETATM    4  O1  UNL     1      20.809   2.293  48.960  1.00  0.00    -0.258 OA
HETATM    5  N1  UNL     1      20.224   2.521  51.197  1.00  0.00    -0.316 N 
HETATM    6  H2  UNL     1      19.661   2.919  52.000  1.00  0.00     0.170 HD
ENDROOT
BRANCH   5   7
HETATM    7  C4  UNL     1      21.149   1.604  51.816  1.00  0.00     0.036 A 
HETATM    8  C5  UNL     1      20.896   0.286  52.136  1.00  0.00     0.032 A 
HETATM    9  C6  UNL     1      21.904  -0.447  52.727  1.00  0.00     0.035 A 
HETATM   10  C7  UNL     1      23.143   0.111  52.998  1.00  0.00     0.069 A 
HETATM   11  N2  UNL     1      24.113  -0.629  53.577  1.00  0.00    -0.259 NA
HETATM   12  C18 UNL     1      23.394   1.447  52.671  1.00  0.00     0.023 A 
HETATM   13  C8  UNL     1      25.310  -0.083  53.837  1.00  0.00     0.142 A 
HETATM   14  C9  UNL     1      25.590   1.245  53.524  1.00  0.00     0.089 A 
HETATM   15  C10 UNL     1      26.882   1.806  53.813  1.00  0.00     0.103 C 
HETATM   16  C11 UNL     1      24.630   2.054  52.926  1.00  0.00     0.067 A 
HETATM   17  N3  UNL     1      27.921   2.242  54.058  1.00  0.00    -0.191 NA
HETATM   18  C19 UNL     1      22.386   2.206  52.073  1.00  0.00     0.045 A 
BRANCH  16  19
HETATM   19  N4  UNL     1      24.868   3.415  52.587  1.00  0.00    -0.354 N 
HETATM   20  H6  UNL     1      24.709   4.023  53.420  1.00  0.00     0.166 HD
BRANCH  19  21
HETATM   21  C12 UNL     1      25.263   3.880  51.311  1.00  0.00     0.033 A 
HETATM   22  C13 UNL     1      26.304   3.223  50.688  1.00  0.00     0.029 A 
HETATM   23  C14 UNL     1      26.684   3.694  49.428  1.00  0.00     0.004 A 
HETATM   24  C15 UNL     1      26.007   4.769  48.888  1.00  0.00     0.019 A 
HETATM   25  C16 UNL     1      24.968   5.400  49.548  1.00  0.00     0.013 A 
HETATM   26 BR1  UNL     1      24.050   6.885  48.780  1.00  0.00    -0.051 Br
HETATM   27  C17 UNL     1      24.562   4.957  50.808  1.00  0.00     0.048 A 
ENDBRANCH  19  21
ENDBRANCH  16  19
ENDBRANCH   5   7
TORSDOF 3
ENDMDL
