MODEL 1
REMARK VINA RESULT:      -8.9      0.000      0.000
REMARK  5 active torsions:
REMARK  status: ('A' for Active; 'I' for Inactive)
REMARK    1  A    between atoms: C4_4  and  C5_5 
REMARK    2  A    between atoms: C6_6  and  C7_7 
REMARK    3  A    between atoms: N2_18  and  C16_19 
REMARK    4  A    between atoms: C17_21  and  O1_22 
REMARK    5  A    between atoms: C18_23  and  S1_24 
ROOT
HETATM    1  C1  UNL     1      29.824  -0.512  53.788  1.00  0.00     0.017 C 
HETATM    2  C2  UNL     1      29.275  -1.534  53.407  1.00  0.00    -0.090 C 
HETATM    3  C3  UNL     1      28.631  -2.681  52.962  1.00  0.00     0.060 C 
HETATM    4  C4  UNL     1      27.374  -2.341  52.597  1.00  0.00    -0.012 C 
ENDROOT
BRANCH   4   5
HETATM    5  C5  UNL     1      27.415  -0.894  52.915  1.00  0.00     0.023 C 
HETATM    6  C6  UNL     1      26.938   0.318  52.691  1.00  0.00     0.026 C 
BRANCH   6   7
HETATM    7  C7  UNL     1      25.900   0.868  51.787  1.00  0.00     0.123 C 
HETATM    8  C8  UNL     1      26.036   2.449  51.836  1.00  0.00     0.089 C 
HETATM    9  C9  UNL     1      24.844   2.733  51.046  1.00  0.00     0.067 C 
HETATM   10  C10 UNL     1      24.251   3.646  50.120  1.00  0.00    -0.010 A 
HETATM   11  N1  UNL     1      24.065   1.708  51.272  1.00  0.00    -0.174 NA
HETATM   12  C11 UNL     1      23.436   3.857  49.068  1.00  0.00     0.015 A 
HETATM   13  C15 UNL     1      24.264   4.794  50.968  1.00  0.00     0.015 A 
HETATM   14  C12 UNL     1      22.672   4.890  48.696  1.00  0.00     0.020 A 
HETATM   15  C13 UNL     1      22.694   6.012  49.554  1.00  0.00     0.011 A 
HETATM   16 BR1  UNL     1      21.511   7.360  48.864  1.00  0.00    -0.051 Br
HETATM   17  C14 UNL     1      23.498   5.931  50.669  1.00  0.00     0.020 A 
HETATM   18  N2  UNL     1      24.568   0.771  52.137  1.00  0.00    -0.234 N 
BRANCH  18  19
HETATM   19  C16 UNL     1      23.784   0.067  53.116  1.00  0.00     0.301 A 
HETATM   20  N3  UNL     1      23.190  -0.457  53.844  1.00  0.00     0.097 N 
HETATM   21  C17 UNL     1      23.077  -1.140  54.902  1.00  0.00     0.354 A 
HETATM   22  S1  UNL     1      21.881   0.029  52.871  1.00  0.00     0.106 SA
HETATM   23  C18 UNL     1      21.670  -0.952  54.383  1.00  0.00     0.372 A 
BRANCH  21  24
HETATM   24  O1  UNL     1      23.116  -1.869  56.058  1.00  0.00    -0.357 OA
HETATM   25  H13 UNL     1      23.362  -1.562  56.957  1.00  0.00     0.213 HD
ENDBRANCH  21  24
ENDBRANCH  18  19
ENDBRANCH   6   7
ENDBRANCH   4   5
TORSDOF 5
ENDMDL
MODEL 2
REMARK VINA RESULT:      -8.1      2.366      4.471
REMARK  5 active torsions:
REMARK  status: ('A' for Active; 'I' for Inactive)
REMARK    1  A    between atoms: C4_4  and  C5_5 
REMARK    2  A    between atoms: C6_6  and  C7_7 
REMARK    3  A    between atoms: N2_18  and  C16_19 
REMARK    4  A    between atoms: C17_21  and  O1_22 
REMARK    5  A    between atoms: C18_23  and  S1_24 
ROOT
HETATM    1  C1  UNL     1      20.516  -1.279  53.825  1.00  0.00     0.017 C 
HETATM    2  C2  UNL     1      21.511  -1.443  54.514  1.00  0.00    -0.090 C 
HETATM    3  C3  UNL     1      22.653  -1.608  55.285  1.00  0.00     0.060 C 
HETATM    4  C4  UNL     1      23.644  -0.875  54.728  1.00  0.00    -0.012 C 
ENDROOT
BRANCH   4   5
HETATM    5  C5  UNL     1      22.908  -0.319  53.568  1.00  0.00     0.023 C 
HETATM    6  C6  UNL     1      22.683   0.710  52.770  1.00  0.00     0.026 C 
BRANCH   6   7
HETATM    7  C7  UNL     1      23.208   2.095  52.698  1.00  0.00     0.123 C 
HETATM    8  C8  UNL     1      23.014   2.583  51.200  1.00  0.00     0.089 C 
HETATM    9  C9  UNL     1      23.742   3.838  51.350  1.00  0.00     0.067 C 
HETATM   10  C10 UNL     1      23.834   5.192  50.901  1.00  0.00    -0.010 A 
HETATM   11  N1  UNL     1      24.601   3.591  52.303  1.00  0.00    -0.174 NA
HETATM   12  C11 UNL     1      24.114   6.482  51.172  1.00  0.00     0.015 A 
HETATM   13  C15 UNL     1      24.113   4.907  49.531  1.00  0.00     0.015 A 
HETATM   14  C12 UNL     1      24.588   7.490  50.431  1.00  0.00     0.020 A 
HETATM   15  C13 UNL     1      24.865   7.183  49.080  1.00  0.00     0.011 A 
HETATM   16 BR1  UNL     1      25.565   8.744  48.207  1.00  0.00    -0.051 Br
HETATM   17  C14 UNL     1      24.614   5.893  48.668  1.00  0.00     0.020 A 
HETATM   18  N2  UNL     1      24.567   2.316  52.806  1.00  0.00    -0.234 N 
BRANCH  18  19
HETATM   19  C16 UNL     1      25.731   1.564  53.192  1.00  0.00     0.301 A 
HETATM   20  N3  UNL     1      26.601   0.997  53.472  1.00  0.00     0.097 N 
HETATM   21  C17 UNL     1      27.515   0.697  54.292  1.00  0.00     0.354 A 
HETATM   22  S1  UNL     1      26.413   0.281  51.939  1.00  0.00     0.106 SA
HETATM   23  C18 UNL     1      27.743  -0.182  53.084  1.00  0.00     0.372 A 
BRANCH  21  24
HETATM   24  O1  UNL     1      28.437   0.484  55.278  1.00  0.00    -0.357 OA
HETATM   25  H13 UNL     1      28.328  -0.031  56.106  1.00  0.00     0.213 HD
ENDBRANCH  21  24
ENDBRANCH  18  19
ENDBRANCH   6   7
ENDBRANCH   4   5
TORSDOF 5
ENDMDL
MODEL 3
REMARK VINA RESULT:      -7.8      4.133      5.380
REMARK  5 active torsions:
REMARK  status: ('A' for Active; 'I' for Inactive)
REMARK    1  A    between atoms: C4_4  and  C5_5 
REMARK    2  A    between atoms: C6_6  and  C7_7 
REMARK    3  A    between atoms: N2_18  and  C16_19 
REMARK    4  A    between atoms: C17_21  and  O1_22 
REMARK    5  A    between atoms: C18_23  and  S1_24 
ROOT
HETATM    1  C1  UNL     1      28.865   0.587  54.044  1.00  0.00     0.017 C 
HETATM    2  C2  UNL     1      28.283  -0.307  53.451  1.00  0.00    -0.090 C 
HETATM    3  C3  UNL     1      27.607  -1.305  52.763  1.00  0.00     0.060 C 
HETATM    4  C4  UNL     1      26.510  -0.754  52.196  1.00  0.00    -0.012 C 
ENDROOT
BRANCH   4   5
HETATM    5  C5  UNL     1      26.667   0.640  52.673  1.00  0.00     0.023 C 
HETATM    6  C6  UNL     1      26.108   1.811  52.920  1.00  0.00     0.026 C 
BRANCH   6   7
HETATM    7  C7  UNL     1      24.735   2.352  52.773  1.00  0.00     0.123 C 
HETATM    8  C8  UNL     1      23.822   1.157  52.265  1.00  0.00     0.089 C 
HETATM    9  C9  UNL     1      22.627   1.961  52.037  1.00  0.00     0.067 C 
HETATM   10  C10 UNL     1      21.197   1.950  52.043  1.00  0.00    -0.010 A 
HETATM   11  N1  UNL     1      23.095   3.152  51.772  1.00  0.00    -0.174 NA
HETATM   12  C11 UNL     1      20.038   2.604  52.254  1.00  0.00     0.015 A 
HETATM   13  C15 UNL     1      21.023   0.957  51.032  1.00  0.00     0.015 A 
HETATM   14  C12 UNL     1      18.819   2.501  51.713  1.00  0.00     0.020 A 
HETATM   15  C13 UNL     1      18.672   1.518  50.709  1.00  0.00     0.011 A 
HETATM   16 BR1  UNL     1      16.870   1.559  50.042  1.00  0.00    -0.051 Br
HETATM   17  C14 UNL     1      19.784   0.768  50.400  1.00  0.00     0.020 A 
HETATM   18  N2  UNL     1      24.461   3.256  51.766  1.00  0.00    -0.234 N 
BRANCH  18  19
HETATM   19  C16 UNL     1      25.210   4.059  50.836  1.00  0.00     0.301 A 
HETATM   20  N3  UNL     1      25.775   4.651  50.138  1.00  0.00     0.097 N 
HETATM   21  C17 UNL     1      26.100   5.764  49.634  1.00  0.00     0.354 A 
HETATM   22  S1  UNL     1      26.409   3.150  49.645  1.00  0.00     0.106 SA
HETATM   23  C18 UNL     1      26.907   4.725  48.891  1.00  0.00     0.372 A 
BRANCH  21  24
HETATM   24  O1  UNL     1      26.350   7.034  49.195  1.00  0.00    -0.357 OA
HETATM   25  H13 UNL     1      26.085   7.441  48.342  1.00  0.00     0.213 HD
ENDBRANCH  21  24
ENDBRANCH  18  19
ENDBRANCH   6   7
ENDBRANCH   4   5
TORSDOF 5
ENDMDL
MODEL 4
REMARK VINA RESULT:      -7.7      5.019      6.677
REMARK  5 active torsions:
REMARK  status: ('A' for Active; 'I' for Inactive)
REMARK    1  A    between atoms: C4_4  and  C5_5 
REMARK    2  A    between atoms: C6_6  and  C7_7 
REMARK    3  A    between atoms: N2_18  and  C16_19 
REMARK    4  A    between atoms: C17_21  and  O1_22 
REMARK    5  A    between atoms: C18_23  and  S1_24 
ROOT
HETATM    1  C1  UNL     1      24.463  -0.282  53.632  1.00  0.00     0.017 C 
HETATM    2  C2  UNL     1      23.616  -0.780  54.358  1.00  0.00    -0.090 C 
HETATM    3  C3  UNL     1      22.636  -1.337  55.166  1.00  0.00     0.060 C 
HETATM    4  C4  UNL     1      21.444  -0.812  54.803  1.00  0.00    -0.012 C 
ENDROOT
BRANCH   4   5
HETATM    5  C5  UNL     1      21.902   0.099  53.727  1.00  0.00     0.023 C 
HETATM    6  C6  UNL     1      21.652   1.148  52.962  1.00  0.00     0.026 C 
BRANCH   6   7
HETATM    7  C7  UNL     1      20.507   2.080  52.831  1.00  0.00     0.123 C 
HETATM    8  C8  UNL     1      19.540   1.469  51.730  1.00  0.00     0.089 C 
HETATM    9  C9  UNL     1      18.637   2.612  51.664  1.00  0.00     0.067 C 
HETATM   10  C10 UNL     1      17.286   3.018  51.430  1.00  0.00    -0.010 A 
HETATM   11  N1  UNL     1      19.390   3.627  51.999  1.00  0.00    -0.174 NA
HETATM   12  C11 UNL     1      16.270   3.860  51.701  1.00  0.00     0.015 A 
HETATM   13  C15 UNL     1      17.191   2.551  50.085  1.00  0.00     0.015 A 
HETATM   14  C12 UNL     1      15.245   4.319  50.975  1.00  0.00     0.020 A 
HETATM   15  C13 UNL     1      15.175   3.850  49.644  1.00  0.00     0.011 A 
HETATM   16 BR1  UNL     1      13.663   4.651  48.769  1.00  0.00    -0.051 Br
HETATM   17  C14 UNL     1      16.154   2.972  49.238  1.00  0.00     0.020 A 
HETATM   18  N2  UNL     1      20.700   3.323  52.261  1.00  0.00    -0.234 N 
BRANCH  18  19
HETATM   19  C16 UNL     1      21.816   4.149  51.886  1.00  0.00     0.301 A 
HETATM   20  N3  UNL     1      22.651   4.763  51.598  1.00  0.00     0.097 N 
HETATM   21  C17 UNL     1      23.493   5.676  51.834  1.00  0.00     0.354 A 
HETATM   22  S1  UNL     1      22.579   3.875  50.147  1.00  0.00     0.106 SA
HETATM   23  C18 UNL     1      23.806   5.180  50.442  1.00  0.00     0.372 A 
BRANCH  21  24
HETATM   24  O1  UNL     1      24.331   6.678  52.235  1.00  0.00    -0.357 OA
HETATM   25  H13 UNL     1      25.183   6.951  51.830  1.00  0.00     0.213 HD
ENDBRANCH  21  24
ENDBRANCH  18  19
ENDBRANCH   6   7
ENDBRANCH   4   5
TORSDOF 5
ENDMDL
MODEL 5
REMARK VINA RESULT:      -7.4      3.862      7.532
REMARK  5 active torsions:
REMARK  status: ('A' for Active; 'I' for Inactive)
REMARK    1  A    between atoms: C4_4  and  C5_5 
REMARK    2  A    between atoms: C6_6  and  C7_7 
REMARK    3  A    between atoms: N2_18  and  C16_19 
REMARK    4  A    between atoms: C17_21  and  O1_22 
REMARK    5  A    between atoms: C18_23  and  S1_24 
ROOT
HETATM    1  C1  UNL     1      19.873   7.230  49.718  1.00  0.00     0.017 C 
HETATM    2  C2  UNL     1      20.990   7.706  49.851  1.00  0.00    -0.090 C 
HETATM    3  C3  UNL     1      22.268   8.223  50.009  1.00  0.00     0.060 C 
HETATM    4  C4  UNL     1      23.006   7.317  50.690  1.00  0.00    -0.012 C 
ENDROOT
BRANCH   4   5
HETATM    5  C5  UNL     1      21.974   6.271  50.893  1.00  0.00     0.023 C 
HETATM    6  C6  UNL     1      21.645   5.109  51.426  1.00  0.00     0.026 C 
BRANCH   6   7
HETATM    7  C7  UNL     1      22.367   4.109  52.251  1.00  0.00     0.123 C 
HETATM    8  C8  UNL     1      23.821   3.965  51.631  1.00  0.00     0.089 C 
HETATM    9  C9  UNL     1      24.237   2.847  52.470  1.00  0.00     0.067 C 
HETATM   10  C10 UNL     1      25.353   2.224  53.110  1.00  0.00    -0.010 A 
HETATM   11  N1  UNL     1      23.118   2.235  52.756  1.00  0.00    -0.174 NA
HETATM   12  C11 UNL     1      25.843   1.519  54.149  1.00  0.00     0.015 A 
HETATM   13  C15 UNL     1      26.098   1.935  51.928  1.00  0.00     0.015 A 
HETATM   14  C12 UNL     1      26.844   0.640  54.267  1.00  0.00     0.020 A 
HETATM   15  C13 UNL     1      27.563   0.364  53.082  1.00  0.00     0.011 A 
HETATM   16 BR1  UNL     1      28.923  -0.940  53.458  1.00  0.00    -0.051 Br
HETATM   17  C14 UNL     1      27.168   1.027  51.942  1.00  0.00     0.020 A 
HETATM   18  N2  UNL     1      21.992   2.781  52.197  1.00  0.00    -0.234 N 
BRANCH  18  19
HETATM   19  C16 UNL     1      20.890   2.016  51.679  1.00  0.00     0.301 A 
HETATM   20  N3  UNL     1      20.065   1.440  51.299  1.00  0.00     0.097 N 
HETATM   21  C17 UNL     1      19.225   1.164  50.396  1.00  0.00     0.354 A 
HETATM   22  S1  UNL     1      20.171   0.628  52.792  1.00  0.00     0.106 SA
HETATM   23  C18 UNL     1      18.946   0.198  51.524  1.00  0.00     0.372 A 
BRANCH  21  24
HETATM   24  O1  UNL     1      18.385   0.986  49.333  1.00  0.00    -0.357 OA
HETATM   25  H13 UNL     1      18.556   0.488  48.505  1.00  0.00     0.213 HD
ENDBRANCH  21  24
ENDBRANCH  18  19
ENDBRANCH   6   7
ENDBRANCH   4   5
TORSDOF 5
ENDMDL
MODEL 6
REMARK VINA RESULT:      -7.4      3.886      5.971
REMARK  5 active torsions:
REMARK  status: ('A' for Active; 'I' for Inactive)
REMARK    1  A    between atoms: C4_4  and  C5_5 
REMARK    2  A    between atoms: C6_6  and  C7_7 
REMARK    3  A    between atoms: N2_18  and  C16_19 
REMARK    4  A    between atoms: C17_21  and  O1_22 
REMARK    5  A    between atoms: C18_23  and  S1_24 
ROOT
HETATM    1  C1  UNL     1      26.400   7.404  48.739  1.00  0.00     0.017 C 
HETATM    2  C2  UNL     1      27.158   6.459  48.582  1.00  0.00    -0.090 C 
HETATM    3  C3  UNL     1      27.998   5.369  48.408  1.00  0.00     0.060 C 
HETATM    4  C4  UNL     1      27.392   4.283  48.940  1.00  0.00    -0.012 C 
ENDROOT
BRANCH   4   5
HETATM    5  C5  UNL     1      26.147   4.920  49.431  1.00  0.00     0.023 C 
HETATM    6  C6  UNL     1      24.880   4.786  49.780  1.00  0.00     0.026 C 
BRANCH   6   7
HETATM    7  C7  UNL     1      23.938   3.642  49.827  1.00  0.00     0.123 C 
HETATM    8  C8  UNL     1      22.511   4.234  50.192  1.00  0.00     0.089 C 
HETATM    9  C9  UNL     1      21.844   2.948  50.348  1.00  0.00     0.067 C 
HETATM   10  C10 UNL     1      20.599   2.257  50.212  1.00  0.00    -0.010 A 
HETATM   11  N1  UNL     1      22.803   2.137  50.711  1.00  0.00    -0.174 NA
HETATM   12  C11 UNL     1      19.934   1.120  49.928  1.00  0.00     0.015 A 
HETATM   13  C15 UNL     1      19.860   3.034  51.155  1.00  0.00     0.015 A 
HETATM   14  C12 UNL     1      18.772   0.611  50.350  1.00  0.00     0.020 A 
HETATM   15  C13 UNL     1      18.062   1.393  51.289  1.00  0.00     0.011 A 
HETATM   16 BR1  UNL     1      16.452   0.472  51.790  1.00  0.00    -0.051 Br
HETATM   17  C14 UNL     1      18.630   2.590  51.662  1.00  0.00     0.020 A 
HETATM   18  N2  UNL     1      24.038   2.716  50.846  1.00  0.00    -0.234 N 
BRANCH  18  19
HETATM   19  C16 UNL     1      24.983   2.380  51.877  1.00  0.00     0.301 A 
HETATM   20  N3  UNL     1      25.686   2.121  52.649  1.00  0.00     0.097 N 
HETATM   21  C17 UNL     1      26.693   2.381  53.368  1.00  0.00     0.354 A 
HETATM   22  S1  UNL     1      24.782   0.682  52.747  1.00  0.00     0.106 SA
HETATM   23  C18 UNL     1      26.222   1.013  53.802  1.00  0.00     0.372 A 
BRANCH  21  24
HETATM   24  O1  UNL     1      27.789   2.805  54.066  1.00  0.00    -0.357 OA
HETATM   25  H13 UNL     1      28.265   3.659  53.983  1.00  0.00     0.213 HD
ENDBRANCH  21  24
ENDBRANCH  18  19
ENDBRANCH   6   7
ENDBRANCH   4   5
TORSDOF 5
ENDMDL
MODEL 7
REMARK VINA RESULT:      -7.3      5.186      9.173
REMARK  5 active torsions:
REMARK  status: ('A' for Active; 'I' for Inactive)
REMARK    1  A    between atoms: C4_4  and  C5_5 
REMARK    2  A    between atoms: C6_6  and  C7_7 
REMARK    3  A    between atoms: N2_18  and  C16_19 
REMARK    4  A    between atoms: C17_21  and  O1_22 
REMARK    5  A    between atoms: C18_23  and  S1_24 
ROOT
HETATM    1  C1  UNL     1      21.298   6.894  46.141  1.00  0.00     0.017 C 
HETATM    2  C2  UNL     1      22.327   7.460  45.805  1.00  0.00    -0.090 C 
HETATM    3  C3  UNL     1      23.509   8.089  45.442  1.00  0.00     0.060 C 
HETATM    4  C4  UNL     1      24.420   7.864  46.416  1.00  0.00    -0.012 C 
ENDROOT
BRANCH   4   5
HETATM    5  C5  UNL     1      23.587   7.064  47.344  1.00  0.00     0.023 C 
HETATM    6  C6  UNL     1      23.514   6.078  48.221  1.00  0.00     0.026 C 
BRANCH   6   7
HETATM    7  C7  UNL     1      24.495   5.113  48.773  1.00  0.00     0.123 C 
HETATM    8  C8  UNL     1      23.817   4.440  50.040  1.00  0.00     0.089 C 
HETATM    9  C9  UNL     1      24.999   3.709  50.479  1.00  0.00     0.067 C 
HETATM   10  C10 UNL     1      25.459   2.524  51.136  1.00  0.00    -0.010 A 
HETATM   11  N1  UNL     1      25.997   4.432  50.044  1.00  0.00    -0.174 NA
HETATM   12  C11 UNL     1      26.392   1.560  51.258  1.00  0.00     0.015 A 
HETATM   13  C15 UNL     1      24.836   2.766  52.397  1.00  0.00     0.015 A 
HETATM   14  C12 UNL     1      26.823   0.831  52.294  1.00  0.00     0.020 A 
HETATM   15  C13 UNL     1      26.198   1.093  53.533  1.00  0.00     0.011 A 
HETATM   16 BR1  UNL     1      26.981  -0.025  54.885  1.00  0.00    -0.051 Br
HETATM   17  C14 UNL     1      25.215   2.056  53.546  1.00  0.00     0.020 A 
HETATM   18  N2  UNL     1      25.643   5.579  49.383  1.00  0.00    -0.234 N 
BRANCH  18  19
HETATM   19  C16 UNL     1      26.342   6.831  49.498  1.00  0.00     0.301 A 
HETATM   20  N3  UNL     1      26.870   7.765  49.576  1.00  0.00     0.097 N 
HETATM   21  C17 UNL     1      27.136   8.843  50.180  1.00  0.00     0.354 A 
HETATM   22  S1  UNL     1      27.569   7.294  48.097  1.00  0.00     0.106 SA
HETATM   23  C18 UNL     1      27.983   8.854  48.928  1.00  0.00     0.372 A 
BRANCH  21  24
HETATM   24  O1  UNL     1      27.320   9.959  50.946  1.00  0.00    -0.357 OA
HETATM   25  H13 UNL     1      27.937  10.706  50.788  1.00  0.00     0.213 HD
ENDBRANCH  21  24
ENDBRANCH  18  19
ENDBRANCH   6   7
ENDBRANCH   4   5
TORSDOF 5
ENDMDL
MODEL 8
REMARK VINA RESULT:      -7.3      4.161      5.702
REMARK  5 active torsions:
REMARK  status: ('A' for Active; 'I' for Inactive)
REMARK    1  A    between atoms: C4_4  and  C5_5 
REMARK    2  A    between atoms: C6_6  and  C7_7 
REMARK    3  A    between atoms: N2_18  and  C16_19 
REMARK    4  A    between atoms: C17_21  and  O1_22 
REMARK    5  A    between atoms: C18_23  and  S1_24 
ROOT
HETATM    1  C1  UNL     1      20.936   0.307  53.599  1.00  0.00     0.017 C 
HETATM    2  C2  UNL     1      22.078  -0.095  53.765  1.00  0.00    -0.090 C 
HETATM    3  C3  UNL     1      23.384  -0.528  53.944  1.00  0.00     0.060 C 
HETATM    4  C4  UNL     1      24.193   0.263  53.202  1.00  0.00    -0.012 C 
ENDROOT
BRANCH   4   5
HETATM    5  C5  UNL     1      23.171   1.150  52.596  1.00  0.00     0.023 C 
HETATM    6  C6  UNL     1      22.877   2.072  51.697  1.00  0.00     0.026 C 
BRANCH   6   7
HETATM    7  C7  UNL     1      23.657   2.788  50.659  1.00  0.00     0.123 C 
HETATM    8  C8  UNL     1      24.276   4.074  51.353  1.00  0.00     0.089 C 
HETATM    9  C9  UNL     1      24.813   4.666  50.133  1.00  0.00     0.067 C 
HETATM   10  C10 UNL     1      25.861   5.475  49.595  1.00  0.00    -0.010 A 
HETATM   11  N1  UNL     1      24.022   4.220  49.193  1.00  0.00    -0.174 NA
HETATM   12  C11 UNL     1      26.689   5.762  48.571  1.00  0.00     0.015 A 
HETATM   13  C15 UNL     1      25.571   6.660  50.336  1.00  0.00     0.015 A 
HETATM   14  C12 UNL     1      27.254   6.896  48.141  1.00  0.00     0.020 A 
HETATM   15  C13 UNL     1      26.946   8.057  48.885  1.00  0.00     0.011 A 
HETATM   16 BR1  UNL     1      27.821   9.570  48.088  1.00  0.00    -0.051 Br
HETATM   17  C14 UNL     1      26.111   7.902  49.969  1.00  0.00     0.020 A 
HETATM   18  N2  UNL     1      22.998   3.417  49.622  1.00  0.00    -0.234 N 
BRANCH  18  19
HETATM   19  C16 UNL     1      21.666   3.440  49.079  1.00  0.00     0.301 A 
HETATM   20  N3  UNL     1      20.667   3.464  48.679  1.00  0.00     0.097 N 
HETATM   21  C17 UNL     1      19.803   3.109  47.827  1.00  0.00     0.354 A 
HETATM   22  S1  UNL     1      20.358   4.517  49.980  1.00  0.00     0.106 SA
HETATM   23  C18 UNL     1      19.084   4.036  48.780  1.00  0.00     0.372 A 
BRANCH  21  24
HETATM   24  O1  UNL     1      18.986   2.637  46.839  1.00  0.00    -0.357 OA
HETATM   25  H13 UNL     1      19.242   2.308  45.950  1.00  0.00     0.213 HD
ENDBRANCH  21  24
ENDBRANCH  18  19
ENDBRANCH   6   7
ENDBRANCH   4   5
TORSDOF 5
ENDMDL
MODEL 9
REMARK VINA RESULT:      -7.3      4.333      7.714
REMARK  5 active torsions:
REMARK  status: ('A' for Active; 'I' for Inactive)
REMARK    1  A    between atoms: C4_4  and  C5_5 
REMARK    2  A    between atoms: C6_6  and  C7_7 
REMARK    3  A    between atoms: N2_18  and  C16_19 
REMARK    4  A    between atoms: C17_21  and  O1_22 
REMARK    5  A    between atoms: C18_23  and  S1_24 
ROOT
HETATM    1  C1  UNL     1      18.779   3.266  51.678  1.00  0.00     0.017 C 
HETATM    2  C2  UNL     1      18.424   2.156  51.311  1.00  0.00    -0.090 C 
HETATM    3  C3  UNL     1      18.033   0.885  50.916  1.00  0.00     0.060 C 
HETATM    4  C4  UNL     1      18.786  -0.014  51.590  1.00  0.00    -0.012 C 
ENDROOT
BRANCH   4   5
HETATM    5  C5  UNL     1      19.631   0.920  52.372  1.00  0.00     0.023 C 
HETATM    6  C6  UNL     1      20.842   1.357  52.667  1.00  0.00     0.026 C 
BRANCH   6   7
HETATM    7  C7  UNL     1      22.209   0.991  52.225  1.00  0.00     0.123 C 
HETATM    8  C8  UNL     1      23.019   0.576  53.526  1.00  0.00     0.089 C 
HETATM    9  C9  UNL     1      24.313   0.447  52.868  1.00  0.00     0.067 C 
HETATM   10  C10 UNL     1      25.562  -0.251  52.881  1.00  0.00    -0.010 A 
HETATM   11  N1  UNL     1      24.239   1.274  51.860  1.00  0.00    -0.174 NA
HETATM   12  C11 UNL     1      26.602  -0.769  52.200  1.00  0.00     0.015 A 
HETATM   13  C15 UNL     1      25.985   0.166  54.179  1.00  0.00     0.015 A 
HETATM   14  C12 UNL     1      27.893  -0.949  52.500  1.00  0.00     0.020 A 
HETATM   15  C13 UNL     1      28.291  -0.522  53.787  1.00  0.00     0.011 A 
HETATM   16 BR1  UNL     1      30.175  -0.834  54.002  1.00  0.00    -0.051 Br
HETATM   17  C14 UNL     1      27.318   0.023  54.594  1.00  0.00     0.020 A 
HETATM   18  N2  UNL     1      23.063   1.971  51.761  1.00  0.00    -0.234 N 
BRANCH  18  19
HETATM   19  C16 UNL     1      22.967   3.349  51.359  1.00  0.00     0.301 A 
HETATM   20  N3  UNL     1      22.901   4.378  51.051  1.00  0.00     0.097 N 
HETATM   21  C17 UNL     1      22.459   5.554  51.193  1.00  0.00     0.354 A 
HETATM   22  S1  UNL     1      23.966   3.895  49.814  1.00  0.00     0.106 SA
HETATM   23  C18 UNL     1      23.357   5.597  49.979  1.00  0.00     0.372 A 
BRANCH  21  24
HETATM   24  O1  UNL     1      21.901   6.769  51.477  1.00  0.00    -0.357 OA
HETATM   25  H13 UNL     1      22.187   7.422  52.151  1.00  0.00     0.213 HD
ENDBRANCH  21  24
ENDBRANCH  18  19
ENDBRANCH   6   7
ENDBRANCH   4   5
TORSDOF 5
ENDMDL
