MODEL 1
REMARK VINA RESULT:      -7.6      0.000      0.000
REMARK  6 active torsions:
REMARK  status: ('A' for Active; 'I' for Inactive)
REMARK    1  A    between atoms: C1_2  and  C2_3 
REMARK    2  A    between atoms: C2_3  and  C3_4 
REMARK    3  A    between atoms: C4_5  and  N1_6 
REMARK    4  A    between atoms: N1_6  and  C5_7 
REMARK    5  A    between atoms: C10_13  and  C11_14 
REMARK    6  A    between atoms: C11_14  and  C12_15 
ROOT
HETATM    1  C5  UNL     1      27.291  -0.229  54.071  1.00  0.00     0.132 C 
HETATM    2  C6  UNL     1      28.293   0.118  55.233  1.00  0.00     0.180 C 
HETATM    3  N2  UNL     1      29.118   1.399  54.943  1.00  0.00    -0.274 NA
HETATM    4  C7  UNL     1      28.653   2.050  53.926  1.00  0.00     0.102 C 
HETATM    5  C8  UNL     1      28.979   0.858  53.006  1.00  0.00     0.116 C 
HETATM    6  C9  UNL     1      27.412   0.850  53.080  1.00  0.00    -0.026 C 
HETATM    7  C10 UNL     1      27.134   1.871  52.244  1.00  0.00     0.019 C 
HETATM    8  N3  UNL     1      28.095   2.876  52.846  1.00  0.00    -0.347 N 
HETATM    9  H16 UNL     1      28.280   3.837  52.625  1.00  0.00     0.167 HD
ENDROOT
BRANCH   7  10
HETATM   10  C11 UNL     1      26.080   1.768  51.242  1.00  0.00     0.097 C 
BRANCH  10  11
HETATM   11  C12 UNL     1      25.867   3.095  50.618  1.00  0.00    -0.031 A 
HETATM   12  C13 UNL     1      26.717   3.548  49.614  1.00  0.00     0.011 A 
HETATM   13  C14 UNL     1      26.552   4.784  49.026  1.00  0.00     0.024 A 
HETATM   14  C15 UNL     1      25.546   5.632  49.395  1.00  0.00     0.035 A 
HETATM   15 CL2  UNL     1      25.352   7.192  48.642  1.00  0.00    -0.084 Cl
HETATM   16  C16 UNL     1      24.685   5.206  50.391  1.00  0.00     0.048 A 
HETATM   17  C17 UNL     1      24.871   3.979  50.955  1.00  0.00     0.042 A 
HETATM   18 CL3  UNL     1      23.716   3.534  52.189  1.00  0.00    -0.084 Cl
ENDBRANCH  10  11
ENDBRANCH   7  10
BRANCH   1  19
HETATM   19  N1  UNL     1      25.980  -0.424  54.593  1.00  0.00    -0.389 N 
HETATM   20  H5  UNL     1      25.883  -0.229  55.612  1.00  0.00     0.159 HD
BRANCH  19  21
HETATM   21  C4  UNL     1      24.638  -0.792  54.342  1.00  0.00     0.083 C 
HETATM   22  C3  UNL     1      23.921  -0.047  53.484  1.00  0.00     0.017 C 
BRANCH  22  23
HETATM   23  C2  UNL     1      22.536  -0.367  53.182  1.00  0.00     0.013 C 
BRANCH  23  24
HETATM   24  C1  UNL     1      21.932   0.144  52.139  1.00  0.00     0.084 C 
HETATM   25 CL1  UNL     1      21.492   0.665  50.530  1.00  0.00    -0.097 Cl
ENDBRANCH  23  24
ENDBRANCH  22  23
ENDBRANCH  19  21
ENDBRANCH   1  19
TORSDOF 6
ENDMDL
MODEL 2
REMARK VINA RESULT:      -7.5      2.038      3.129
REMARK  6 active torsions:
REMARK  status: ('A' for Active; 'I' for Inactive)
REMARK    1  A    between atoms: C1_2  and  C2_3 
REMARK    2  A    between atoms: C2_3  and  C3_4 
REMARK    3  A    between atoms: C4_5  and  N1_6 
REMARK    4  A    between atoms: N1_6  and  C5_7 
REMARK    5  A    between atoms: C10_13  and  C11_14 
REMARK    6  A    between atoms: C11_14  and  C12_15 
ROOT
HETATM    1  C5  UNL     1      25.609  -0.419  53.048  1.00  0.00     0.132 C 
HETATM    2  C6  UNL     1      27.013  -1.050  53.372  1.00  0.00     0.180 C 
HETATM    3  N2  UNL     1      28.127   0.020  53.509  1.00  0.00    -0.274 NA
HETATM    4  C7  UNL     1      27.641   1.217  53.564  1.00  0.00     0.102 C 
HETATM    5  C8  UNL     1      27.076   1.060  52.140  1.00  0.00     0.116 C 
HETATM    6  C9  UNL     1      25.797   1.038  53.048  1.00  0.00    -0.026 C 
HETATM    7  C10 UNL     1      25.686   2.354  53.326  1.00  0.00     0.019 C 
HETATM    8  N3  UNL     1      27.125   2.582  53.739  1.00  0.00    -0.347 N 
HETATM    9  H16 UNL     1      27.600   3.397  54.082  1.00  0.00     0.167 HD
ENDROOT
BRANCH   7  10
HETATM   10  C11 UNL     1      24.400   3.037  53.269  1.00  0.00     0.097 C 
BRANCH  10  11
HETATM   11  C12 UNL     1      23.707   2.671  52.012  1.00  0.00    -0.031 A 
HETATM   12  C13 UNL     1      22.625   1.795  52.031  1.00  0.00     0.011 A 
HETATM   13  C14 UNL     1      21.971   1.425  50.875  1.00  0.00     0.024 A 
HETATM   14  C15 UNL     1      22.346   1.895  49.649  1.00  0.00     0.035 A 
HETATM   15 CL2  UNL     1      21.508   1.416  48.197  1.00  0.00    -0.084 Cl
HETATM   16  C16 UNL     1      23.419   2.769  49.601  1.00  0.00     0.048 A 
HETATM   17  C17 UNL     1      24.047   3.119  50.759  1.00  0.00     0.042 A 
HETATM   18 CL3  UNL     1      25.375   4.241  50.586  1.00  0.00    -0.084 Cl
ENDBRANCH  10  11
ENDBRANCH   7  10
BRANCH   1  19
HETATM   19  N1  UNL     1      24.629  -0.901  53.962  1.00  0.00    -0.389 N 
HETATM   20  H5  UNL     1      24.942  -1.698  54.558  1.00  0.00     0.159 HD
BRANCH  19  21
HETATM   21  C4  UNL     1      23.317  -0.786  54.476  1.00  0.00     0.083 C 
HETATM   22  C3  UNL     1      22.301  -1.289  53.754  1.00  0.00     0.017 C 
BRANCH  22  23
HETATM   23  C2  UNL     1      20.928  -1.204  54.223  1.00  0.00     0.013 C 
BRANCH  23  24
HETATM   24  C1  UNL     1      19.993  -0.656  53.489  1.00  0.00     0.084 C 
HETATM   25 CL1  UNL     1      18.725  -0.339  52.329  1.00  0.00    -0.097 Cl
ENDBRANCH  23  24
ENDBRANCH  22  23
ENDBRANCH  19  21
ENDBRANCH   1  19
TORSDOF 6
ENDMDL
MODEL 3
REMARK VINA RESULT:      -7.4      1.694      2.225
REMARK  6 active torsions:
REMARK  status: ('A' for Active; 'I' for Inactive)
REMARK    1  A    between atoms: C1_2  and  C2_3 
REMARK    2  A    between atoms: C2_3  and  C3_4 
REMARK    3  A    between atoms: C4_5  and  N1_6 
REMARK    4  A    between atoms: N1_6  and  C5_7 
REMARK    5  A    between atoms: C10_13  and  C11_14 
REMARK    6  A    between atoms: C11_14  and  C12_15 
ROOT
HETATM    1  C5  UNL     1      24.807  -0.331  53.486  1.00  0.00     0.132 C 
HETATM    2  C6  UNL     1      25.592  -0.484  54.840  1.00  0.00     0.180 C 
HETATM    3  N2  UNL     1      26.719   0.571  54.995  1.00  0.00    -0.274 NA
HETATM    4  C7  UNL     1      26.633   1.502  54.101  1.00  0.00     0.102 C 
HETATM    5  C8  UNL     1      26.876   0.464  52.989  1.00  0.00     0.116 C 
HETATM    6  C9  UNL     1      25.366   0.848  52.810  1.00  0.00    -0.026 C 
HETATM    7  C10 UNL     1      25.500   2.047  52.206  1.00  0.00     0.019 C 
HETATM    8  N3  UNL     1      26.508   2.634  53.172  1.00  0.00    -0.347 N 
HETATM    9  H16 UNL     1      26.941   3.539  53.218  1.00  0.00     0.167 HD
ENDROOT
BRANCH   7  10
HETATM   10  C11 UNL     1      24.684   2.414  51.055  1.00  0.00     0.097 C 
BRANCH  10  11
HETATM   11  C12 UNL     1      25.346   3.514  50.317  1.00  0.00    -0.031 A 
HETATM   12  C13 UNL     1      26.530   3.287  49.622  1.00  0.00     0.011 A 
HETATM   13  C14 UNL     1      27.176   4.296  48.939  1.00  0.00     0.024 A 
HETATM   14  C15 UNL     1      26.692   5.573  48.906  1.00  0.00     0.035 A 
HETATM   15 CL2  UNL     1      27.521   6.836  48.038  1.00  0.00    -0.084 Cl
HETATM   16  C16 UNL     1      25.514   5.827  49.588  1.00  0.00     0.048 A 
HETATM   17  C17 UNL     1      24.896   4.811  50.255  1.00  0.00     0.042 A 
HETATM   18 CL3  UNL     1      23.408   5.237  51.066  1.00  0.00    -0.084 Cl
ENDBRANCH  10  11
ENDBRANCH   7  10
BRANCH   1  19
HETATM   19  N1  UNL     1      23.405  -0.276  53.733  1.00  0.00    -0.389 N 
HETATM   20  H5  UNL     1      23.078  -0.870  54.525  1.00  0.00     0.159 HD
BRANCH  19  21
HETATM   21  C4  UNL     1      22.148   0.259  53.368  1.00  0.00     0.083 C 
HETATM   22  C3  UNL     1      21.685   0.015  52.130  1.00  0.00     0.017 C 
BRANCH  22  23
HETATM   23  C2  UNL     1      20.402   0.535  51.689  1.00  0.00     0.013 C 
BRANCH  23  24
HETATM   24  C1  UNL     1      19.278  -0.024  52.061  1.00  0.00     0.084 C 
HETATM   25 CL1  UNL     1      18.059  -1.081  52.732  1.00  0.00    -0.097 Cl
ENDBRANCH  23  24
ENDBRANCH  22  23
ENDBRANCH  19  21
ENDBRANCH   1  19
TORSDOF 6
ENDMDL
MODEL 4
REMARK VINA RESULT:      -7.3      1.806      2.359
REMARK  6 active torsions:
REMARK  status: ('A' for Active; 'I' for Inactive)
REMARK    1  A    between atoms: C1_2  and  C2_3 
REMARK    2  A    between atoms: C2_3  and  C3_4 
REMARK    3  A    between atoms: C4_5  and  N1_6 
REMARK    4  A    between atoms: N1_6  and  C5_7 
REMARK    5  A    between atoms: C10_13  and  C11_14 
REMARK    6  A    between atoms: C11_14  and  C12_15 
ROOT
HETATM    1  C5  UNL     1      25.600  -0.005  52.909  1.00  0.00     0.132 C 
HETATM    2  C6  UNL     1      26.018  -0.099  54.422  1.00  0.00     0.180 C 
HETATM    3  N2  UNL     1      27.202   0.841  54.770  1.00  0.00    -0.274 NA
HETATM    4  C7  UNL     1      27.449   1.677  53.815  1.00  0.00     0.102 C 
HETATM    5  C8  UNL     1      27.813   0.510  52.878  1.00  0.00     0.116 C 
HETATM    6  C9  UNL     1      26.448   1.031  52.305  1.00  0.00    -0.026 C 
HETATM    7  C10 UNL     1      26.873   2.140  51.664  1.00  0.00     0.019 C 
HETATM    8  N3  UNL     1      27.692   2.714  52.802  1.00  0.00    -0.347 N 
HETATM    9  H16 UNL     1      28.214   3.568  52.885  1.00  0.00     0.167 HD
ENDROOT
BRANCH   7  10
HETATM   10  C11 UNL     1      26.405   2.470  50.324  1.00  0.00     0.097 C 
BRANCH  10  11
HETATM   11  C12 UNL     1      25.732   3.789  50.351  1.00  0.00    -0.031 A 
HETATM   12  C13 UNL     1      24.585   3.981  51.117  1.00  0.00     0.011 A 
HETATM   13  C14 UNL     1      23.930   5.194  51.149  1.00  0.00     0.024 A 
HETATM   14  C15 UNL     1      24.367   6.272  50.434  1.00  0.00     0.035 A 
HETATM   15 CL2  UNL     1      23.525   7.798  50.486  1.00  0.00    -0.084 Cl
HETATM   16  C16 UNL     1      25.507   6.109  49.665  1.00  0.00     0.048 A 
HETATM   17  C17 UNL     1      26.135   4.900  49.651  1.00  0.00     0.042 A 
HETATM   18 CL3  UNL     1      27.573   4.810  48.663  1.00  0.00    -0.084 Cl
ENDBRANCH  10  11
ENDBRANCH   7  10
BRANCH   1  19
HETATM   19  N1  UNL     1      24.198   0.223  52.799  1.00  0.00    -0.389 N 
HETATM   20  H5  UNL     1      23.892   0.625  51.887  1.00  0.00     0.159 HD
BRANCH  19  21
HETATM   21  C4  UNL     1      22.925   0.148  53.408  1.00  0.00     0.083 C 
HETATM   22  C3  UNL     1      22.424  -1.065  53.697  1.00  0.00     0.017 C 
BRANCH  22  23
HETATM   23  C2  UNL     1      21.121  -1.214  54.323  1.00  0.00     0.013 C 
BRANCH  23  24
HETATM   24  C1  UNL     1      20.028  -0.832  53.713  1.00  0.00     0.084 C 
HETATM   25 CL1  UNL     1      18.467  -0.763  52.930  1.00  0.00    -0.097 Cl
ENDBRANCH  23  24
ENDBRANCH  22  23
ENDBRANCH  19  21
ENDBRANCH   1  19
TORSDOF 6
ENDMDL
MODEL 5
REMARK VINA RESULT:      -7.3      3.107      5.685
REMARK  6 active torsions:
REMARK  status: ('A' for Active; 'I' for Inactive)
REMARK    1  A    between atoms: C1_2  and  C2_3 
REMARK    2  A    between atoms: C2_3  and  C3_4 
REMARK    3  A    between atoms: C4_5  and  N1_6 
REMARK    4  A    between atoms: N1_6  and  C5_7 
REMARK    5  A    between atoms: C10_13  and  C11_14 
REMARK    6  A    between atoms: C11_14  and  C12_15 
ROOT
HETATM    1  C5  UNL     1      22.863   2.598  50.989  1.00  0.00     0.132 C 
HETATM    2  C6  UNL     1      22.859   3.005  49.470  1.00  0.00     0.180 C 
HETATM    3  N2  UNL     1      24.187   3.673  49.031  1.00  0.00    -0.274 NA
HETATM    4  C7  UNL     1      25.109   3.548  49.930  1.00  0.00     0.102 C 
HETATM    5  C8  UNL     1      24.268   4.381  50.916  1.00  0.00     0.116 C 
HETATM    6  C9  UNL     1      24.197   2.929  51.506  1.00  0.00    -0.026 C 
HETATM    7  C10 UNL     1      25.420   2.847  52.071  1.00  0.00     0.019 C 
HETATM    8  N3  UNL     1      26.213   3.335  50.876  1.00  0.00    -0.347 N 
HETATM    9  H16 UNL     1      27.200   3.443  50.729  1.00  0.00     0.167 HD
ENDROOT
BRANCH   7  10
HETATM   10  C11 UNL     1      25.605   2.294  53.406  1.00  0.00     0.097 C 
BRANCH  10  11
HETATM   11  C12 UNL     1      26.471   1.095  53.323  1.00  0.00    -0.031 A 
HETATM   12  C13 UNL     1      25.918  -0.162  53.093  1.00  0.00     0.011 A 
HETATM   13  C14 UNL     1      26.699  -1.296  53.027  1.00  0.00     0.024 A 
HETATM   14  C15 UNL     1      28.055  -1.252  53.182  1.00  0.00     0.035 A 
HETATM   15 CL2  UNL     1      29.027  -2.697  53.096  1.00  0.00    -0.084 Cl
HETATM   16  C16 UNL     1      28.632  -0.014  53.411  1.00  0.00     0.048 A 
HETATM   17  C17 UNL     1      27.837   1.091  53.472  1.00  0.00     0.042 A 
HETATM   18 CL3  UNL     1      28.669   2.603  53.746  1.00  0.00    -0.084 Cl
ENDBRANCH  10  11
ENDBRANCH   7  10
BRANCH   1  19
HETATM   19  N1  UNL     1      22.481   1.233  51.134  1.00  0.00    -0.389 N 
HETATM   20  H5  UNL     1      22.700   0.629  50.313  1.00  0.00     0.159 HD
BRANCH  19  21
HETATM   21  C4  UNL     1      21.894   0.238  51.948  1.00  0.00     0.083 C 
HETATM   22  C3  UNL     1      22.314   0.123  53.221  1.00  0.00     0.017 C 
BRANCH  22  23
HETATM   23  C2  UNL     1      21.754  -0.880  54.112  1.00  0.00     0.013 C 
BRANCH  23  24
HETATM   24  C1  UNL     1      20.513  -1.277  53.992  1.00  0.00     0.084 C 
HETATM   25 CL1  UNL     1      18.853  -1.504  53.494  1.00  0.00    -0.097 Cl
ENDBRANCH  23  24
ENDBRANCH  22  23
ENDBRANCH  19  21
ENDBRANCH   1  19
TORSDOF 6
ENDMDL
MODEL 6
REMARK VINA RESULT:      -7.2      3.298      6.620
REMARK  6 active torsions:
REMARK  status: ('A' for Active; 'I' for Inactive)
REMARK    1  A    between atoms: C1_2  and  C2_3 
REMARK    2  A    between atoms: C2_3  and  C3_4 
REMARK    3  A    between atoms: C4_5  and  N1_6 
REMARK    4  A    between atoms: N1_6  and  C5_7 
REMARK    5  A    between atoms: C10_13  and  C11_14 
REMARK    6  A    between atoms: C11_14  and  C12_15 
ROOT
HETATM    1  C5  UNL     1      25.365   2.879  50.488  1.00  0.00     0.132 C 
HETATM    2  C6  UNL     1      25.493   4.434  50.288  1.00  0.00     0.180 C 
HETATM    3  N2  UNL     1      24.225   5.198  50.748  1.00  0.00    -0.274 NA
HETATM    4  C7  UNL     1      23.420   4.437  51.415  1.00  0.00     0.102 C 
HETATM    5  C8  UNL     1      23.217   3.550  50.172  1.00  0.00     0.116 C 
HETATM    6  C9  UNL     1      24.066   2.648  51.134  1.00  0.00    -0.026 C 
HETATM    7  C10 UNL     1      23.105   2.262  52.000  1.00  0.00     0.019 C 
HETATM    8  N3  UNL     1      22.531   3.637  52.270  1.00  0.00    -0.347 N 
HETATM    9  H16 UNL     1      21.796   3.946  52.880  1.00  0.00     0.167 HD
ENDROOT
BRANCH   7  10
HETATM   10  C11 UNL     1      22.991   0.878  52.442  1.00  0.00     0.097 C 
BRANCH  10  11
HETATM   11  C12 UNL     1      21.572   0.460  52.379  1.00  0.00    -0.031 A 
HETATM   12  C13 UNL     1      20.815   0.699  51.236  1.00  0.00     0.011 A 
HETATM   13  C14 UNL     1      19.487   0.334  51.156  1.00  0.00     0.024 A 
HETATM   14  C15 UNL     1      18.842  -0.282  52.190  1.00  0.00     0.035 A 
HETATM   15 CL2  UNL     1      17.163  -0.735  52.071  1.00  0.00    -0.084 Cl
HETATM   16  C16 UNL     1      19.572  -0.533  53.339  1.00  0.00     0.048 A 
HETATM   17  C17 UNL     1      20.883  -0.162  53.392  1.00  0.00     0.042 A 
HETATM   18 CL3  UNL     1      21.714  -0.543  54.881  1.00  0.00    -0.084 Cl
ENDBRANCH  10  11
ENDBRANCH   7  10
BRANCH   1  19
HETATM   19  N1  UNL     1      26.492   2.379  51.202  1.00  0.00    -0.389 N 
HETATM   20  H5  UNL     1      27.392   2.861  50.989  1.00  0.00     0.159 HD
BRANCH  19  21
HETATM   21  C4  UNL     1      26.992   1.453  52.145  1.00  0.00     0.083 C 
HETATM   22  C3  UNL     1      26.669   0.156  52.002  1.00  0.00     0.017 C 
BRANCH  22  23
HETATM   23  C2  UNL     1      27.148  -0.848  52.937  1.00  0.00     0.013 C 
BRANCH  23  24
HETATM   24  C1  UNL     1      28.369  -0.811  53.407  1.00  0.00     0.084 C 
HETATM   25 CL1  UNL     1      30.098  -0.929  53.625  1.00  0.00    -0.097 Cl
ENDBRANCH  23  24
ENDBRANCH  22  23
ENDBRANCH  19  21
ENDBRANCH   1  19
TORSDOF 6
ENDMDL
MODEL 7
REMARK VINA RESULT:      -7.1      1.765      2.545
REMARK  6 active torsions:
REMARK  status: ('A' for Active; 'I' for Inactive)
REMARK    1  A    between atoms: C1_2  and  C2_3 
REMARK    2  A    between atoms: C2_3  and  C3_4 
REMARK    3  A    between atoms: C4_5  and  N1_6 
REMARK    4  A    between atoms: N1_6  and  C5_7 
REMARK    5  A    between atoms: C10_13  and  C11_14 
REMARK    6  A    between atoms: C11_14  and  C12_15 
ROOT
HETATM    1  C5  UNL     1      25.390   0.131  53.059  1.00  0.00     0.132 C 
HETATM    2  C6  UNL     1      25.941   0.037  54.530  1.00  0.00     0.180 C 
HETATM    3  N2  UNL     1      27.220   0.889  54.740  1.00  0.00    -0.274 NA
HETATM    4  C7  UNL     1      27.438   1.683  53.743  1.00  0.00     0.102 C 
HETATM    5  C8  UNL     1      27.623   0.472  52.810  1.00  0.00     0.116 C 
HETATM    6  C9  UNL     1      26.254   1.085  52.351  1.00  0.00    -0.026 C 
HETATM    7  C10 UNL     1      26.699   2.144  51.642  1.00  0.00     0.019 C 
HETATM    8  N3  UNL     1      27.663   2.676  52.683  1.00  0.00    -0.347 N 
HETATM    9  H16 UNL     1      28.253   3.488  52.693  1.00  0.00     0.167 HD
ENDROOT
BRANCH   7  10
HETATM   10  C11 UNL     1      26.134   2.480  50.342  1.00  0.00     0.097 C 
BRANCH  10  11
HETATM   11  C12 UNL     1      25.613   3.866  50.379  1.00  0.00    -0.031 A 
HETATM   12  C13 UNL     1      24.500   4.182  51.153  1.00  0.00     0.011 A 
HETATM   13  C14 UNL     1      23.984   5.460  51.195  1.00  0.00     0.024 A 
HETATM   14  C15 UNL     1      24.534   6.486  50.480  1.00  0.00     0.035 A 
HETATM   15 CL2  UNL     1      23.868   8.096  50.544  1.00  0.00    -0.084 Cl
HETATM   16  C16 UNL     1      25.643   6.200  49.702  1.00  0.00     0.048 A 
HETATM   17  C17 UNL     1      26.132   4.928  49.680  1.00  0.00     0.042 A 
HETATM   18 CL3  UNL     1      27.544   4.682  48.680  1.00  0.00    -0.084 Cl
ENDBRANCH  10  11
ENDBRANCH   7  10
BRANCH   1  19
HETATM   19  N1  UNL     1      24.006   0.465  53.072  1.00  0.00    -0.389 N 
HETATM   20  H5  UNL     1      23.446  -0.020  53.806  1.00  0.00     0.159 HD
BRANCH  19  21
HETATM   21  C4  UNL     1      22.954   1.216  52.500  1.00  0.00     0.083 C 
HETATM   22  C3  UNL     1      22.636   0.993  51.213  1.00  0.00     0.017 C 
BRANCH  22  23
HETATM   23  C2  UNL     1      21.566   1.730  50.561  1.00  0.00     0.013 C 
BRANCH  23  24
HETATM   24  C1  UNL     1      21.003   2.762  51.138  1.00  0.00     0.084 C 
HETATM   25 CL1  UNL     1      20.434   4.360  51.555  1.00  0.00    -0.097 Cl
ENDBRANCH  23  24
ENDBRANCH  22  23
ENDBRANCH  19  21
ENDBRANCH   1  19
TORSDOF 6
ENDMDL
MODEL 8
REMARK VINA RESULT:      -7.0      1.889      5.644
REMARK  6 active torsions:
REMARK  status: ('A' for Active; 'I' for Inactive)
REMARK    1  A    between atoms: C1_2  and  C2_3 
REMARK    2  A    between atoms: C2_3  and  C3_4 
REMARK    3  A    between atoms: C4_5  and  N1_6 
REMARK    4  A    between atoms: N1_6  and  C5_7 
REMARK    5  A    between atoms: C10_13  and  C11_14 
REMARK    6  A    between atoms: C11_14  and  C12_15 
ROOT
HETATM    1  C5  UNL     1      26.974   1.731  53.371  1.00  0.00     0.132 C 
HETATM    2  C6  UNL     1      28.029   0.567  53.447  1.00  0.00     0.180 C 
HETATM    3  N2  UNL     1      27.371  -0.816  53.687  1.00  0.00    -0.274 NA
HETATM    4  C7  UNL     1      26.087  -0.770  53.541  1.00  0.00     0.102 C 
HETATM    5  C8  UNL     1      25.981   0.205  54.730  1.00  0.00     0.116 C 
HETATM    6  C9  UNL     1      25.651   1.103  53.487  1.00  0.00    -0.026 C 
HETATM    7  C10 UNL     1      24.384   0.708  53.243  1.00  0.00     0.019 C 
HETATM    8  N3  UNL     1      24.640  -0.784  53.280  1.00  0.00    -0.347 N 
HETATM    9  H16 UNL     1      24.034  -1.569  53.126  1.00  0.00     0.167 HD
ENDROOT
BRANCH   7  10
HETATM   10  C11 UNL     1      23.331   1.672  52.949  1.00  0.00     0.097 C 
BRANCH  10  11
HETATM   11  C12 UNL     1      22.026   0.972  52.905  1.00  0.00    -0.031 A 
HETATM   12  C13 UNL     1      21.494   0.396  54.054  1.00  0.00     0.011 A 
HETATM   13  C14 UNL     1      20.289  -0.275  54.038  1.00  0.00     0.024 A 
HETATM   14  C15 UNL     1      19.551  -0.411  52.897  1.00  0.00     0.035 A 
HETATM   15 CL2  UNL     1      18.030  -1.262  52.894  1.00  0.00    -0.084 Cl
HETATM   16  C16 UNL     1      20.057   0.155  51.738  1.00  0.00     0.048 A 
HETATM   17  C17 UNL     1      21.250   0.812  51.782  1.00  0.00     0.042 A 
HETATM   18 CL3  UNL     1      21.786   1.503  50.269  1.00  0.00    -0.084 Cl
ENDBRANCH  10  11
ENDBRANCH   7  10
BRANCH   1  19
HETATM   19  N1  UNL     1      27.175   2.502  52.190  1.00  0.00    -0.389 N 
HETATM   20  H5  UNL     1      28.001   3.138  52.220  1.00  0.00     0.159 HD
BRANCH  19  21
HETATM   21  C4  UNL     1      26.733   2.828  50.888  1.00  0.00     0.083 C 
HETATM   22  C3  UNL     1      25.510   3.370  50.745  1.00  0.00     0.017 C 
BRANCH  22  23
HETATM   23  C2  UNL     1      24.993   3.728  49.435  1.00  0.00     0.013 C 
BRANCH  23  24
HETATM   24  C1  UNL     1      23.871   4.389  49.306  1.00  0.00     0.084 C 
HETATM   25 CL1  UNL     1      22.341   5.188  49.579  1.00  0.00    -0.097 Cl
ENDBRANCH  23  24
ENDBRANCH  22  23
ENDBRANCH  19  21
ENDBRANCH   1  19
TORSDOF 6
ENDMDL
MODEL 9
REMARK VINA RESULT:      -6.9      3.878      7.763
REMARK  6 active torsions:
REMARK  status: ('A' for Active; 'I' for Inactive)
REMARK    1  A    between atoms: C1_2  and  C2_3 
REMARK    2  A    between atoms: C2_3  and  C3_4 
REMARK    3  A    between atoms: C4_5  and  N1_6 
REMARK    4  A    between atoms: N1_6  and  C5_7 
REMARK    5  A    between atoms: C10_13  and  C11_14 
REMARK    6  A    between atoms: C11_14  and  C12_15 
ROOT
HETATM    1  C5  UNL     1      27.811   6.920  48.517  1.00  0.00     0.132 C 
HETATM    2  C6  UNL     1      27.511   8.352  49.092  1.00  0.00     0.180 C 
HETATM    3  N2  UNL     1      26.213   8.391  49.940  1.00  0.00    -0.274 NA
HETATM    4  C7  UNL     1      25.771   7.204  50.198  1.00  0.00     0.102 C 
HETATM    5  C8  UNL     1      25.547   6.954  48.694  1.00  0.00     0.116 C 
HETATM    6  C9  UNL     1      26.766   6.031  49.043  1.00  0.00    -0.026 C 
HETATM    7  C10 UNL     1      26.124   5.021  49.666  1.00  0.00     0.019 C 
HETATM    8  N3  UNL     1      25.295   5.874  50.604  1.00  0.00    -0.347 N 
HETATM    9  H16 UNL     1      24.646   5.630  51.330  1.00  0.00     0.167 HD
ENDROOT
BRANCH   7  10
HETATM   10  C11 UNL     1      26.444   3.628  49.383  1.00  0.00     0.097 C 
BRANCH  10  11
HETATM   11  C12 UNL     1      25.871   2.769  50.444  1.00  0.00    -0.031 A 
HETATM   12  C13 UNL     1      26.686   2.231  51.436  1.00  0.00     0.011 A 
HETATM   13  C14 UNL     1      26.181   1.416  52.427  1.00  0.00     0.024 A 
HETATM   14  C15 UNL     1      24.856   1.091  52.493  1.00  0.00     0.035 A 
HETATM   15 CL2  UNL     1      24.236   0.058  53.752  1.00  0.00    -0.084 Cl
HETATM   16  C16 UNL     1      24.022   1.613  51.519  1.00  0.00     0.048 A 
HETATM   17  C17 UNL     1      24.547   2.416  50.550  1.00  0.00     0.042 A 
HETATM   18 CL3  UNL     1      23.403   3.035  49.383  1.00  0.00    -0.084 Cl
ENDBRANCH  10  11
ENDBRANCH   7  10
BRANCH   1  19
HETATM   19  N1  UNL     1      29.146   6.532  48.830  1.00  0.00    -0.389 N 
HETATM   20  H5  UNL     1      29.332   6.390  49.846  1.00  0.00     0.159 HD
BRANCH  19  21
HETATM   21  C4  UNL     1      30.442   6.226  48.356  1.00  0.00     0.083 C 
HETATM   22  C3  UNL     1      30.624   5.072  47.691  1.00  0.00     0.017 C 
BRANCH  22  23
HETATM   23  C2  UNL     1      31.931   4.695  47.178  1.00  0.00     0.013 C 
BRANCH  23  24
HETATM   24  C1  UNL     1      32.209   3.452  46.878  1.00  0.00     0.084 C 
HETATM   25 CL1  UNL     1      32.578   1.745  46.929  1.00  0.00    -0.097 Cl
ENDBRANCH  23  24
ENDBRANCH  22  23
ENDBRANCH  19  21
ENDBRANCH   1  19
TORSDOF 6
ENDMDL
