MODEL 1
REMARK VINA RESULT:      -9.3      0.000      0.000
REMARK  4 active torsions:
REMARK  status: ('A' for Active; 'I' for Inactive)
REMARK    1  A    between atoms: N1_5  and  C5_6 
REMARK    2  A    between atoms: C13_17  and  O2_18 
REMARK    3  A    between atoms: O2_18  and  C14_19 
REMARK    4  A    between atoms: C14_19  and  C15_20 
ROOT
HETATM    1  C1  UNL     1      21.538   0.686  50.290  1.00  0.00     0.043 C 
HETATM    2  C2  UNL     1      22.284   1.866  50.801  1.00  0.00    -0.082 C 
HETATM    3  C3  UNL     1      21.993   3.080  50.417  1.00  0.00    -0.005 C 
HETATM    4  C4  UNL     1      22.690   4.325  50.879  1.00  0.00     0.154 C 
HETATM    5  N1  UNL     1      24.034   3.888  51.298  1.00  0.00    -0.335 N 
HETATM    6  C13 UNL     1      23.888   2.927  52.409  1.00  0.00     0.228 C 
HETATM    7  C21 UNL     1      23.372   1.634  51.760  1.00  0.00     0.087 C 
ENDROOT
BRANCH   5   8
HETATM    8  C5  UNL     1      25.033   4.464  50.557  1.00  0.00     0.132 A 
HETATM    9  N2  UNL     1      25.193   5.734  50.388  1.00  0.00    -0.222 NA
HETATM   10  C6  UNL     1      24.436   6.785  50.885  1.00  0.00     0.264 A 
HETATM   11  N3  UNL     1      25.242   7.640  50.319  1.00  0.00    -0.127 NA
HETATM   12  O1  UNL     1      26.297   7.337  49.601  1.00  0.00    -0.252 OA
HETATM   13  C7  UNL     1      27.308   7.768  48.868  1.00  0.00     0.231 A 
HETATM   14  C8  UNL     1      28.219   6.794  48.244  1.00  0.00    -0.002 A 
HETATM   15  C9  UNL     1      27.957   5.480  48.464  1.00  0.00    -0.019 A 
HETATM   16  C10 UNL     1      27.222   4.309  49.015  1.00  0.00     0.052 A 
HETATM   17  C11 UNL     1      26.186   3.937  49.759  1.00  0.00    -0.029 A 
HETATM   18  C12 UNL     1      26.293   2.510  49.757  1.00  0.00     0.048 C 
ENDBRANCH   5   8
BRANCH   6  19
HETATM   19  O2  UNL     1      25.054   2.635  53.047  1.00  0.00    -0.362 OA
BRANCH  19  20
HETATM   20  C14 UNL     1      25.232   1.344  53.401  1.00  0.00     0.209 C 
BRANCH  20  21
HETATM   21  C15 UNL     1      26.648   0.973  53.457  1.00  0.00    -0.032 A 
HETATM   22  C16 UNL     1      27.481   2.081  53.609  1.00  0.00     0.009 A 
HETATM   23  C17 UNL     1      28.856   1.977  53.706  1.00  0.00     0.004 A 
HETATM   24  C18 UNL     1      29.462   0.741  53.655  1.00  0.00     0.042 A 
HETATM   25  C19 UNL     1      28.652  -0.351  53.507  1.00  0.00     0.117 A 
HETATM   26  F1  UNL     1      29.093  -1.631  53.440  1.00  0.00    -0.206 F 
HETATM   27  C20 UNL     1      27.272  -0.268  53.408  1.00  0.00     0.051 A 
ENDBRANCH  20  21
ENDBRANCH  19  20
ENDBRANCH   6  19
TORSDOF 4
ENDMDL
MODEL 2
REMARK VINA RESULT:      -8.8      2.820      3.832
REMARK  4 active torsions:
REMARK  status: ('A' for Active; 'I' for Inactive)
REMARK    1  A    between atoms: N1_5  and  C5_6 
REMARK    2  A    between atoms: C13_17  and  O2_18 
REMARK    3  A    between atoms: O2_18  and  C14_19 
REMARK    4  A    between atoms: C14_19  and  C15_20 
ROOT
HETATM    1  C1  UNL     1      21.417  -1.718  53.886  1.00  0.00     0.043 C 
HETATM    2  C2  UNL     1      21.774  -0.333  53.479  1.00  0.00    -0.082 C 
HETATM    3  C3  UNL     1      20.866   0.596  53.339  1.00  0.00    -0.005 C 
HETATM    4  C4  UNL     1      21.135   2.015  52.934  1.00  0.00     0.154 C 
HETATM    5  N1  UNL     1      22.403   1.974  52.183  1.00  0.00    -0.335 N 
HETATM    6  C13 UNL     1      23.463   1.476  53.081  1.00  0.00     0.228 C 
HETATM    7  C21 UNL     1      23.189  -0.028  53.236  1.00  0.00     0.087 C 
ENDROOT
BRANCH   5   8
HETATM    8  C5  UNL     1      22.261   2.384  50.883  1.00  0.00     0.132 A 
HETATM    9  N2  UNL     1      22.601   3.545  50.431  1.00  0.00    -0.222 NA
HETATM   10  C6  UNL     1      23.166   4.617  51.107  1.00  0.00     0.264 A 
HETATM   11  N3  UNL     1      23.214   5.299  49.996  1.00  0.00    -0.127 NA
HETATM   12  O1  UNL     1      22.808   4.879  48.823  1.00  0.00    -0.252 OA
HETATM   13  C7  UNL     1      22.627   5.150  47.542  1.00  0.00     0.231 A 
HETATM   14  C8  UNL     1      22.027   4.134  46.663  1.00  0.00    -0.002 A 
HETATM   15  C9  UNL     1      21.685   2.951  47.235  1.00  0.00    -0.019 A 
HETATM   16  C10 UNL     1      21.535   1.961  48.335  1.00  0.00     0.052 A 
HETATM   17  C11 UNL     1      21.738   1.749  49.632  1.00  0.00    -0.029 A 
HETATM   18  C12 UNL     1      21.276   0.405  49.806  1.00  0.00     0.048 C 
ENDBRANCH   5   8
BRANCH   6  19
HETATM   19  O2  UNL     1      24.722   1.621  52.588  1.00  0.00    -0.362 OA
BRANCH  19  20
HETATM   20  C14 UNL     1      25.422   0.482  52.397  1.00  0.00     0.209 C 
BRANCH  20  21
HETATM   21  C15 UNL     1      26.788   0.573  52.917  1.00  0.00    -0.032 A 
HETATM   22  C16 UNL     1      27.441  -0.660  52.913  1.00  0.00     0.009 A 
HETATM   23  C17 UNL     1      28.746  -0.818  53.341  1.00  0.00     0.004 A 
HETATM   24  C18 UNL     1      29.462   0.267  53.795  1.00  0.00     0.042 A 
HETATM   25  C19 UNL     1      28.829   1.480  53.802  1.00  0.00     0.117 A 
HETATM   26  F1  UNL     1      29.395   2.639  54.218  1.00  0.00    -0.206 F 
HETATM   27  C20 UNL     1      27.522   1.660  53.377  1.00  0.00     0.051 A 
ENDBRANCH  20  21
ENDBRANCH  19  20
ENDBRANCH   6  19
TORSDOF 4
ENDMDL
MODEL 3
REMARK VINA RESULT:      -8.7      2.997      6.544
REMARK  4 active torsions:
REMARK  status: ('A' for Active; 'I' for Inactive)
REMARK    1  A    between atoms: N1_5  and  C5_6 
REMARK    2  A    between atoms: C13_17  and  O2_18 
REMARK    3  A    between atoms: O2_18  and  C14_19 
REMARK    4  A    between atoms: C14_19  and  C15_20 
ROOT
HETATM    1  C1  UNL     1      27.743  -0.552  53.130  1.00  0.00     0.043 C 
HETATM    2  C2  UNL     1      26.878   0.646  52.960  1.00  0.00    -0.082 C 
HETATM    3  C3  UNL     1      26.254   1.189  53.971  1.00  0.00    -0.005 C 
HETATM    4  C4  UNL     1      25.365   2.395  53.893  1.00  0.00     0.154 C 
HETATM    5  N1  UNL     1      24.881   2.433  52.501  1.00  0.00    -0.335 N 
HETATM    6  C13 UNL     1      26.044   2.582  51.604  1.00  0.00     0.228 C 
HETATM    7  C21 UNL     1      26.739   1.212  51.613  1.00  0.00     0.087 C 
ENDROOT
BRANCH   5   8
HETATM    8  C5  UNL     1      23.519   2.311  52.410  1.00  0.00     0.132 A 
HETATM    9  N2  UNL     1      22.706   3.271  52.119  1.00  0.00    -0.222 NA
HETATM   10  C6  UNL     1      22.986   4.600  51.838  1.00  0.00     0.264 A 
HETATM   11  N3  UNL     1      21.718   4.830  51.634  1.00  0.00    -0.127 NA
HETATM   12  O1  UNL     1      20.755   3.945  51.733  1.00  0.00    -0.252 OA
HETATM   13  C7  UNL     1      19.459   3.696  51.668  1.00  0.00     0.231 A 
HETATM   14  C8  UNL     1      18.967   2.337  51.948  1.00  0.00    -0.002 A 
HETATM   15  C9  UNL     1      19.898   1.399  52.264  1.00  0.00    -0.019 A 
HETATM   16  C10 UNL     1      21.262   0.866  52.528  1.00  0.00     0.052 A 
HETATM   17  C11 UNL     1      22.552   1.180  52.581  1.00  0.00    -0.029 A 
HETATM   18  C12 UNL     1      23.166  -0.071  52.911  1.00  0.00     0.048 C 
ENDBRANCH   5   8
BRANCH   6  19
HETATM   19  O2  UNL     1      25.719   2.876  50.317  1.00  0.00    -0.362 OA
BRANCH  19  20
HETATM   20  C14 UNL     1      26.750   3.155  49.491  1.00  0.00     0.209 C 
BRANCH  20  21
HETATM   21  C15 UNL     1      26.744   4.550  49.044  1.00  0.00    -0.032 A 
HETATM   22  C16 UNL     1      27.998   4.970  48.598  1.00  0.00     0.009 A 
HETATM   23  C17 UNL     1      28.232   6.242  48.110  1.00  0.00     0.004 A 
HETATM   24  C18 UNL     1      27.206   7.159  48.048  1.00  0.00     0.042 A 
HETATM   25  C19 UNL     1      25.974   6.755  48.483  1.00  0.00     0.117 A 
HETATM   26  F1  UNL     1      24.867   7.536  48.485  1.00  0.00    -0.206 F 
HETATM   27  C20 UNL     1      25.718   5.485  48.974  1.00  0.00     0.051 A 
ENDBRANCH  20  21
ENDBRANCH  19  20
ENDBRANCH   6  19
TORSDOF 4
ENDMDL
MODEL 4
REMARK VINA RESULT:      -8.5      2.600      5.784
REMARK  4 active torsions:
REMARK  status: ('A' for Active; 'I' for Inactive)
REMARK    1  A    between atoms: N1_5  and  C5_6 
REMARK    2  A    between atoms: C13_17  and  O2_18 
REMARK    3  A    between atoms: O2_18  and  C14_19 
REMARK    4  A    between atoms: C14_19  and  C15_20 
ROOT
HETATM    1  C1  UNL     1      25.770   7.676  50.191  1.00  0.00     0.043 C 
HETATM    2  C2  UNL     1      25.141   6.420  49.702  1.00  0.00    -0.082 C 
HETATM    3  C3  UNL     1      24.013   6.430  49.043  1.00  0.00    -0.005 C 
HETATM    4  C4  UNL     1      23.309   5.216  48.514  1.00  0.00     0.154 C 
HETATM    5  N1  UNL     1      23.765   4.099  49.362  1.00  0.00    -0.335 N 
HETATM    6  C13 UNL     1      25.227   3.964  49.211  1.00  0.00     0.228 C 
HETATM    7  C21 UNL     1      25.825   5.152  49.980  1.00  0.00     0.087 C 
ENDROOT
BRANCH   5   8
HETATM    8  C5  UNL     1      22.741   3.509  50.055  1.00  0.00     0.132 A 
HETATM    9  N2  UNL     1      22.033   2.517  49.630  1.00  0.00    -0.222 NA
HETATM   10  C6  UNL     1      22.121   1.831  48.427  1.00  0.00     0.264 A 
HETATM   11  N3  UNL     1      21.157   1.037  48.804  1.00  0.00    -0.127 NA
HETATM   12  O1  UNL     1      20.520   1.096  49.948  1.00  0.00    -0.252 OA
HETATM   13  C7  UNL     1      19.563   0.610  50.718  1.00  0.00     0.231 A 
HETATM   14  C8  UNL     1      19.311   1.219  52.035  1.00  0.00    -0.002 A 
HETATM   15  C9  UNL     1      20.096   2.270  52.386  1.00  0.00    -0.019 A 
HETATM   16  C10 UNL     1      21.171   3.285  52.219  1.00  0.00     0.052 A 
HETATM   17  C11 UNL     1      22.116   3.732  51.398  1.00  0.00    -0.029 A 
HETATM   18  C12 UNL     1      22.706   4.798  52.149  1.00  0.00     0.048 C 
ENDBRANCH   5   8
BRANCH   6  19
HETATM   19  O2  UNL     1      25.737   2.822  49.746  1.00  0.00    -0.362 OA
BRANCH  19  20
HETATM   20  C14 UNL     1      26.138   2.895  51.033  1.00  0.00     0.209 C 
BRANCH  20  21
HETATM   21  C15 UNL     1      25.738   1.718  51.809  1.00  0.00    -0.032 A 
HETATM   22  C16 UNL     1      26.701   0.709  51.775  1.00  0.00     0.009 A 
HETATM   23  C17 UNL     1      26.554  -0.489  52.448  1.00  0.00     0.004 A 
HETATM   24  C18 UNL     1      25.423  -0.730  53.195  1.00  0.00     0.042 A 
HETATM   25  C19 UNL     1      24.473   0.255  53.234  1.00  0.00     0.117 A 
HETATM   26  F1  UNL     1      23.309   0.172  53.920  1.00  0.00    -0.206 F 
HETATM   27  C20 UNL     1      24.601   1.463  52.566  1.00  0.00     0.051 A 
ENDBRANCH  20  21
ENDBRANCH  19  20
ENDBRANCH   6  19
TORSDOF 4
ENDMDL
MODEL 5
REMARK VINA RESULT:      -8.2      2.270      3.092
REMARK  4 active torsions:
REMARK  status: ('A' for Active; 'I' for Inactive)
REMARK    1  A    between atoms: N1_5  and  C5_6 
REMARK    2  A    between atoms: C13_17  and  O2_18 
REMARK    3  A    between atoms: O2_18  and  C14_19 
REMARK    4  A    between atoms: C14_19  and  C15_20 
ROOT
HETATM    1  C1  UNL     1      18.314  -0.073  51.181  1.00  0.00     0.043 C 
HETATM    2  C2  UNL     1      19.436   0.785  51.646  1.00  0.00    -0.082 C 
HETATM    3  C3  UNL     1      19.252   2.039  51.967  1.00  0.00    -0.005 C 
HETATM    4  C4  UNL     1      20.322   2.975  52.445  1.00  0.00     0.154 C 
HETATM    5  N1  UNL     1      21.585   2.431  51.913  1.00  0.00    -0.335 N 
HETATM    6  C13 UNL     1      21.784   1.079  52.473  1.00  0.00     0.228 C 
HETATM    7  C21 UNL     1      20.772   0.185  51.740  1.00  0.00     0.087 C 
ENDROOT
BRANCH   5   8
HETATM    8  C5  UNL     1      22.213   3.294  51.055  1.00  0.00     0.132 A 
HETATM    9  N2  UNL     1      22.934   4.303  51.414  1.00  0.00    -0.222 NA
HETATM   10  C6  UNL     1      23.241   4.749  52.692  1.00  0.00     0.264 A 
HETATM   11  N3  UNL     1      23.978   5.700  52.188  1.00  0.00    -0.127 NA
HETATM   12  O1  UNL     1      24.175   5.921  50.911  1.00  0.00    -0.252 OA
HETATM   13  C7  UNL     1      24.737   6.675  49.983  1.00  0.00     0.231 A 
HETATM   14  C8  UNL     1      24.515   6.363  48.562  1.00  0.00    -0.002 A 
HETATM   15  C9  UNL     1      23.725   5.293  48.283  1.00  0.00    -0.019 A 
HETATM   16  C10 UNL     1      22.856   4.124  48.586  1.00  0.00     0.052 A 
HETATM   17  C11 UNL     1      22.315   3.406  49.564  1.00  0.00    -0.029 A 
HETATM   18  C12 UNL     1      21.605   2.388  48.851  1.00  0.00     0.048 C 
ENDBRANCH   5   8
BRANCH   6  19
HETATM   19  O2  UNL     1      23.025   0.567  52.257  1.00  0.00    -0.362 OA
BRANCH  19  20
HETATM   20  C14 UNL     1      23.577  -0.111  53.286  1.00  0.00     0.209 C 
BRANCH  20  21
HETATM   21  C15 UNL     1      25.023   0.108  53.386  1.00  0.00    -0.032 A 
HETATM   22  C16 UNL     1      25.551   0.693  52.235  1.00  0.00     0.009 A 
HETATM   23  C17 UNL     1      26.890   1.012  52.104  1.00  0.00     0.004 A 
HETATM   24  C18 UNL     1      27.766   0.757  53.135  1.00  0.00     0.042 A 
HETATM   25  C19 UNL     1      27.256   0.184  54.268  1.00  0.00     0.117 A 
HETATM   26  F1  UNL     1      27.986  -0.128  55.366  1.00  0.00    -0.206 F 
HETATM   27  C20 UNL     1      25.918  -0.143  54.419  1.00  0.00     0.051 A 
ENDBRANCH  20  21
ENDBRANCH  19  20
ENDBRANCH   6  19
TORSDOF 4
ENDMDL
MODEL 6
REMARK VINA RESULT:      -8.0      2.643      6.792
REMARK  4 active torsions:
REMARK  status: ('A' for Active; 'I' for Inactive)
REMARK    1  A    between atoms: N1_5  and  C5_6 
REMARK    2  A    between atoms: C13_17  and  O2_18 
REMARK    3  A    between atoms: O2_18  and  C14_19 
REMARK    4  A    between atoms: C14_19  and  C15_20 
ROOT
HETATM    1  C1  UNL     1      26.748   8.047  49.316  1.00  0.00     0.043 C 
HETATM    2  C2  UNL     1      25.583   7.188  49.654  1.00  0.00    -0.082 C 
HETATM    3  C3  UNL     1      25.070   7.169  50.856  1.00  0.00    -0.005 C 
HETATM    4  C4  UNL     1      23.899   6.336  51.284  1.00  0.00     0.154 C 
HETATM    5  N1  UNL     1      23.868   5.195  50.352  1.00  0.00    -0.335 N 
HETATM    6  C13 UNL     1      23.669   5.714  48.984  1.00  0.00     0.228 C 
HETATM    7  C21 UNL     1      25.012   6.349  48.593  1.00  0.00     0.087 C 
ENDROOT
BRANCH   5   8
HETATM    8  C5  UNL     1      24.041   3.991  50.982  1.00  0.00     0.132 A 
HETATM    9  N2  UNL     1      25.128   3.294  50.964  1.00  0.00    -0.222 NA
HETATM   10  C6  UNL     1      26.334   3.569  50.335  1.00  0.00     0.264 A 
HETATM   11  N3  UNL     1      26.844   2.471  50.821  1.00  0.00    -0.127 NA
HETATM   12  O1  UNL     1      26.218   1.611  51.588  1.00  0.00    -0.252 OA
HETATM   13  C7  UNL     1      26.261   0.466  52.246  1.00  0.00     0.231 A 
HETATM   14  C8  UNL     1      25.067  -0.001  52.969  1.00  0.00    -0.002 A 
HETATM   15  C9  UNL     1      23.966   0.793  52.913  1.00  0.00    -0.019 A 
HETATM   16  C10 UNL     1      23.155   1.976  52.516  1.00  0.00     0.052 A 
HETATM   17  C11 UNL     1      23.173   3.116  51.833  1.00  0.00    -0.029 A 
HETATM   18  C12 UNL     1      21.858   3.636  52.057  1.00  0.00     0.048 C 
ENDBRANCH   5   8
BRANCH   6  19
HETATM   19  O2  UNL     1      23.379   4.755  48.063  1.00  0.00    -0.362 OA
BRANCH  19  20
HETATM   20  C14 UNL     1      22.084   4.659  47.692  1.00  0.00     0.209 C 
BRANCH  20  21
HETATM   21  C15 UNL     1      21.402   3.533  48.337  1.00  0.00    -0.032 A 
HETATM   22  C16 UNL     1      20.117   3.867  48.765  1.00  0.00     0.009 A 
HETATM   23  C17 UNL     1      19.275   2.961  49.384  1.00  0.00     0.004 A 
HETATM   24  C18 UNL     1      19.691   1.667  49.602  1.00  0.00     0.042 A 
HETATM   25  C19 UNL     1      20.950   1.332  49.185  1.00  0.00     0.117 A 
HETATM   26  F1  UNL     1      21.504   0.103  49.326  1.00  0.00    -0.206 F 
HETATM   27  C20 UNL     1      21.809   2.223  48.562  1.00  0.00     0.051 A 
ENDBRANCH  20  21
ENDBRANCH  19  20
ENDBRANCH   6  19
TORSDOF 4
ENDMDL
MODEL 7
REMARK VINA RESULT:      -8.0      2.367      5.437
REMARK  4 active torsions:
REMARK  status: ('A' for Active; 'I' for Inactive)
REMARK    1  A    between atoms: N1_5  and  C5_6 
REMARK    2  A    between atoms: C13_17  and  O2_18 
REMARK    3  A    between atoms: O2_18  and  C14_19 
REMARK    4  A    between atoms: C14_19  and  C15_20 
ROOT
HETATM    1  C1  UNL     1      24.728   7.807  50.716  1.00  0.00     0.043 C 
HETATM    2  C2  UNL     1      24.410   6.569  49.957  1.00  0.00    -0.082 C 
HETATM    3  C3  UNL     1      23.411   6.518  49.116  1.00  0.00    -0.005 C 
HETATM    4  C4  UNL     1      23.020   5.316  48.309  1.00  0.00     0.154 C 
HETATM    5  N1  UNL     1      23.530   4.155  49.062  1.00  0.00    -0.335 N 
HETATM    6  C13 UNL     1      24.999   4.267  49.156  1.00  0.00     0.228 C 
HETATM    7  C21 UNL     1      25.255   5.388  50.175  1.00  0.00     0.087 C 
ENDROOT
BRANCH   5   8
HETATM    8  C5  UNL     1      22.532   3.313  49.476  1.00  0.00     0.132 A 
HETATM    9  N2  UNL     1      21.901   3.405  50.599  1.00  0.00    -0.222 NA
HETATM   10  C6  UNL     1      22.062   4.331  51.619  1.00  0.00     0.264 A 
HETATM   11  N3  UNL     1      21.092   3.771  52.288  1.00  0.00    -0.127 NA
HETATM   12  O1  UNL     1      20.398   2.729  51.899  1.00  0.00    -0.252 OA
HETATM   13  C7  UNL     1      19.446   1.856  52.179  1.00  0.00     0.231 A 
HETATM   14  C8  UNL     1      19.137   0.786  51.216  1.00  0.00    -0.002 A 
HETATM   15  C9  UNL     1      19.868   0.760  50.071  1.00  0.00    -0.019 A 
HETATM   16  C10 UNL     1      20.906   1.211  49.105  1.00  0.00     0.052 A 
HETATM   17  C11 UNL     1      21.855   2.116  48.883  1.00  0.00    -0.029 A 
HETATM   18  C12 UNL     1      22.341   1.749  47.587  1.00  0.00     0.048 C 
ENDBRANCH   5   8
BRANCH   6  19
HETATM   19  O2  UNL     1      25.613   3.143  49.611  1.00  0.00    -0.362 OA
BRANCH  19  20
HETATM   20  C14 UNL     1      26.158   3.219  50.844  1.00  0.00     0.209 C 
BRANCH  20  21
HETATM   21  C15 UNL     1      26.004   1.973  51.600  1.00  0.00    -0.032 A 
HETATM   22  C16 UNL     1      24.684   1.749  51.990  1.00  0.00     0.009 A 
HETATM   23  C17 UNL     1      24.291   0.628  52.697  1.00  0.00     0.004 A 
HETATM   24  C18 UNL     1      25.218  -0.329  53.047  1.00  0.00     0.042 A 
HETATM   25  C19 UNL     1      26.515  -0.117  52.668  1.00  0.00     0.117 A 
HETATM   26  F1  UNL     1      27.540  -0.961  52.935  1.00  0.00    -0.206 F 
HETATM   27  C20 UNL     1      26.929   0.999  51.959  1.00  0.00     0.051 A 
ENDBRANCH  20  21
ENDBRANCH  19  20
ENDBRANCH   6  19
TORSDOF 4
ENDMDL
MODEL 8
REMARK VINA RESULT:      -7.9      3.177      6.782
REMARK  4 active torsions:
REMARK  status: ('A' for Active; 'I' for Inactive)
REMARK    1  A    between atoms: N1_5  and  C5_6 
REMARK    2  A    between atoms: C13_17  and  O2_18 
REMARK    3  A    between atoms: O2_18  and  C14_19 
REMARK    4  A    between atoms: C14_19  and  C15_20 
ROOT
HETATM    1  C1  UNL     1      24.044   6.654  49.581  1.00  0.00     0.043 C 
HETATM    2  C2  UNL     1      23.556   5.414  50.241  1.00  0.00    -0.082 C 
HETATM    3  C3  UNL     1      23.384   5.348  51.535  1.00  0.00    -0.005 C 
HETATM    4  C4  UNL     1      22.896   4.143  52.283  1.00  0.00     0.154 C 
HETATM    5  N1  UNL     1      23.238   2.989  51.431  1.00  0.00    -0.335 N 
HETATM    6  C13 UNL     1      22.528   3.130  50.145  1.00  0.00     0.228 C 
HETATM    7  C21 UNL     1      23.266   4.250  49.396  1.00  0.00     0.087 C 
ENDROOT
BRANCH   5   8
HETATM    8  C5  UNL     1      24.111   2.124  52.037  1.00  0.00     0.132 A 
HETATM    9  N2  UNL     1      25.394   2.145  51.896  1.00  0.00    -0.222 NA
HETATM   10  C6  UNL     1      26.177   3.002  51.136  1.00  0.00     0.264 A 
HETATM   11  N3  UNL     1      27.255   2.402  51.561  1.00  0.00    -0.127 NA
HETATM   12  O1  UNL     1      27.289   1.389  52.393  1.00  0.00    -0.252 OA
HETATM   13  C7  UNL     1      28.024   0.503  53.041  1.00  0.00     0.231 A 
HETATM   14  C8  UNL     1      27.366  -0.501  53.893  1.00  0.00    -0.002 A 
HETATM   15  C9  UNL     1      26.011  -0.455  53.963  1.00  0.00    -0.019 A 
HETATM   16  C10 UNL     1      24.646   0.055  53.660  1.00  0.00     0.052 A 
HETATM   17  C11 UNL     1      23.961   0.970  52.980  1.00  0.00    -0.029 A 
HETATM   18  C12 UNL     1      22.607   0.687  53.351  1.00  0.00     0.048 C 
ENDBRANCH   5   8
BRANCH   6  19
HETATM   19  O2  UNL     1      22.563   2.015  49.366  1.00  0.00    -0.362 OA
BRANCH  19  20
HETATM   20  C14 UNL     1      21.412   1.690  48.738  1.00  0.00     0.209 C 
BRANCH  20  21
HETATM   21  C15 UNL     1      20.363   1.280  49.675  1.00  0.00    -0.032 A 
HETATM   22  C16 UNL     1      19.121   1.829  49.353  1.00  0.00     0.009 A 
HETATM   23  C17 UNL     1      17.976   1.568  50.083  1.00  0.00     0.004 A 
HETATM   24  C18 UNL     1      18.027   0.736  51.178  1.00  0.00     0.042 A 
HETATM   25  C19 UNL     1      19.241   0.193  51.500  1.00  0.00     0.117 A 
HETATM   26  F1  UNL     1      19.456  -0.643  52.544  1.00  0.00    -0.206 F 
HETATM   27  C20 UNL     1      20.400   0.440  50.782  1.00  0.00     0.051 A 
ENDBRANCH  20  21
ENDBRANCH  19  20
ENDBRANCH   6  19
TORSDOF 4
ENDMDL
MODEL 9
REMARK VINA RESULT:      -7.9      2.530      6.588
REMARK  4 active torsions:
REMARK  status: ('A' for Active; 'I' for Inactive)
REMARK    1  A    between atoms: N1_5  and  C5_6 
REMARK    2  A    between atoms: C13_17  and  O2_18 
REMARK    3  A    between atoms: O2_18  and  C14_19 
REMARK    4  A    between atoms: C14_19  and  C15_20 
ROOT
HETATM    1  C1  UNL     1      26.927   8.376  46.436  1.00  0.00     0.043 C 
HETATM    2  C2  UNL     1      26.170   7.935  47.638  1.00  0.00    -0.082 C 
HETATM    3  C3  UNL     1      26.690   7.996  48.836  1.00  0.00    -0.005 C 
HETATM    4  C4  UNL     1      26.002   7.574  50.100  1.00  0.00     0.154 C 
HETATM    5  N1  UNL     1      24.990   6.586  49.684  1.00  0.00    -0.335 N 
HETATM    6  C13 UNL     1      24.040   7.247  48.767  1.00  0.00     0.228 C 
HETATM    7  C21 UNL     1      24.808   7.422  47.448  1.00  0.00     0.087 C 
ENDROOT
BRANCH   5   8
HETATM    8  C5  UNL     1      25.201   5.349  50.233  1.00  0.00     0.132 A 
HETATM    9  N2  UNL     1      24.520   4.843  51.207  1.00  0.00    -0.222 NA
HETATM   10  C6  UNL     1      23.458   5.393  51.909  1.00  0.00     0.264 A 
HETATM   11  N3  UNL     1      23.354   4.302  52.617  1.00  0.00    -0.127 NA
HETATM   12  O1  UNL     1      24.110   3.238  52.496  1.00  0.00    -0.252 OA
HETATM   13  C7  UNL     1      24.408   2.026  52.931  1.00  0.00     0.231 A 
HETATM   14  C8  UNL     1      25.520   1.286  52.312  1.00  0.00    -0.002 A 
HETATM   15  C9  UNL     1      26.189   1.909  51.308  1.00  0.00    -0.019 A 
HETATM   16  C10 UNL     1      26.508   3.009  50.358  1.00  0.00     0.052 A 
HETATM   17  C11 UNL     1      26.163   4.232  49.967  1.00  0.00    -0.029 A 
HETATM   18  C12 UNL     1      27.079   4.489  48.898  1.00  0.00     0.048 C 
ENDBRANCH   5   8
BRANCH   6  19
HETATM   19  O2  UNL     1      22.923   6.517  48.504  1.00  0.00    -0.362 OA
BRANCH  19  20
HETATM   20  C14 UNL     1      23.041   5.570  47.548  1.00  0.00     0.209 C 
BRANCH  20  21
HETATM   21  C15 UNL     1      22.431   4.298  47.945  1.00  0.00    -0.032 A 
HETATM   22  C16 UNL     1      21.208   4.077  47.313  1.00  0.00     0.009 A 
HETATM   23  C17 UNL     1      20.456   2.935  47.516  1.00  0.00     0.004 A 
HETATM   24  C18 UNL     1      20.904   1.953  48.371  1.00  0.00     0.042 A 
HETATM   25  C19 UNL     1      22.104   2.163  48.995  1.00  0.00     0.117 A 
HETATM   26  F1  UNL     1      22.680   1.296  49.862  1.00  0.00    -0.206 F 
HETATM   27  C20 UNL     1      22.873   3.300  48.805  1.00  0.00     0.051 A 
ENDBRANCH  20  21
ENDBRANCH  19  20
ENDBRANCH   6  19
TORSDOF 4
ENDMDL
