MODEL 1
REMARK VINA RESULT:      -8.3      0.000      0.000
REMARK  4 active torsions:
REMARK  status: ('A' for Active; 'I' for Inactive)
REMARK    1  A    between atoms: C4_5  and  C5_6 
REMARK    2  A    between atoms: C8_10  and  N3_11 
REMARK    3  A    between atoms: N3_11  and  C9_12 
REMARK    4  A    between atoms: C13_16  and  N4_17 
ROOT
HETATM    1  N3  UNL     1      23.213   3.647  52.317  1.00  0.00    -0.188 N 
HETATM    2  H6  UNL     1      22.707   4.199  53.067  1.00  0.00     0.184 HD
ENDROOT
BRANCH   1   3
HETATM    3  C8  UNL     1      23.328   4.252  51.040  1.00  0.00     0.727 A 
HETATM    4  N2  UNL     1      22.329   4.582  50.226  1.00  0.00    -0.075 NA
HETATM    5  C7  UNL     1      22.422   5.148  49.028  1.00  0.00     0.139 A 
HETATM    6  C6  UNL     1      23.686   5.432  48.563  1.00  0.00     0.053 A 
HETATM    7  C5  UNL     1      24.741   5.102  49.382  1.00  0.00     0.089 A 
HETATM    8  N6  UNL     1      24.544   4.538  50.563  1.00  0.00    -0.062 NA
BRANCH   7   9
HETATM    9  C4  UNL     1      26.109   5.371  48.957  1.00  0.00     0.011 A 
HETATM   10  C3  UNL     1      27.155   4.474  48.991  1.00  0.00     0.130 A 
HETATM   11  N1  UNL     1      28.396   4.780  48.586  1.00  0.00    -0.272 NA
HETATM   12  C2  UNL     1      28.691   5.989  48.119  1.00  0.00     0.116 A 
HETATM   13  C1  UNL     1      27.736   6.974  48.034  1.00  0.00     0.020 A 
HETATM   14  C18 UNL     1      26.475   6.613  48.462  1.00  0.00     0.017 A 
ENDBRANCH   7   9
ENDBRANCH   1   3
BRANCH   1  15
HETATM   15  C9  UNL     1      23.694   2.380  52.728  1.00  0.00     0.051 A 
HETATM   16  C10 UNL     1      22.941   1.233  52.830  1.00  0.00     0.030 A 
HETATM   17  C11 UNL     1      23.415   0.003  53.230  1.00  0.00     0.004 A 
HETATM   18  C12 UNL     1      24.743  -0.120  53.560  1.00  0.00     0.030 A 
HETATM   19  C13 UNL     1      25.542   1.000  53.473  1.00  0.00     0.042 A 
HETATM   20  C17 UNL     1      25.010   2.203  53.066  1.00  0.00     0.060 A 
BRANCH  19  21
HETATM   21  N4  UNL     1      26.921   0.909  53.806  1.00  0.00    -0.315 N 
HETATM   22  C14 UNL     1      28.104   1.449  53.453  1.00  0.00     0.117 A 
HETATM   23  C15 UNL     1      29.078   0.860  54.230  1.00  0.00     0.135 A 
HETATM   24  N5  UNL     1      28.483  -0.042  55.060  1.00  0.00    -0.254 NA
HETATM   25  C16 UNL     1      27.163  -0.002  54.790  1.00  0.00     0.214 A 
ENDBRANCH  19  21
ENDBRANCH   1  15
TORSDOF 4
ENDMDL
MODEL 2
REMARK VINA RESULT:      -8.2      2.152      3.766
REMARK  4 active torsions:
REMARK  status: ('A' for Active; 'I' for Inactive)
REMARK    1  A    between atoms: C4_5  and  C5_6 
REMARK    2  A    between atoms: C8_10  and  N3_11 
REMARK    3  A    between atoms: N3_11  and  C9_12 
REMARK    4  A    between atoms: C13_16  and  N4_17 
ROOT
HETATM    1  N3  UNL     1      26.408   3.471  49.337  1.00  0.00    -0.188 N 
HETATM    2  H6  UNL     1      26.280   2.717  48.602  1.00  0.00     0.184 HD
ENDROOT
BRANCH   1   3
HETATM    3  C8  UNL     1      27.010   4.683  48.916  1.00  0.00     0.727 A 
HETATM    4  N2  UNL     1      26.392   5.837  48.680  1.00  0.00    -0.075 NA
HETATM    5  C7  UNL     1      26.943   6.979  48.286  1.00  0.00     0.139 A 
HETATM    6  C6  UNL     1      28.307   6.986  48.096  1.00  0.00     0.053 A 
HETATM    7  C5  UNL     1      28.976   5.808  48.332  1.00  0.00     0.089 A 
HETATM    8  N6  UNL     1      28.334   4.719  48.724  1.00  0.00    -0.062 NA
BRANCH   7   9
HETATM    9  C4  UNL     1      30.420   5.738  48.152  1.00  0.00     0.011 A 
HETATM   10  C3  UNL     1      31.340   6.636  48.651  1.00  0.00     0.130 A 
HETATM   11  N1  UNL     1      32.661   6.519  48.452  1.00  0.00    -0.272 NA
HETATM   12  C2  UNL     1      33.166   5.510  47.750  1.00  0.00     0.116 A 
HETATM   13  C1  UNL     1      32.355   4.546  47.199  1.00  0.00     0.020 A 
HETATM   14  C18 UNL     1      31.004   4.709  47.430  1.00  0.00     0.017 A 
ENDBRANCH   7   9
ENDBRANCH   1   3
BRANCH   1  15
HETATM   15  C9  UNL     1      25.949   3.129  50.632  1.00  0.00     0.051 A 
HETATM   16  C10 UNL     1      24.694   3.392  51.131  1.00  0.00     0.030 A 
HETATM   17  C11 UNL     1      24.252   3.056  52.391  1.00  0.00     0.004 A 
HETATM   18  C12 UNL     1      25.112   2.406  53.243  1.00  0.00     0.030 A 
HETATM   19  C13 UNL     1      26.382   2.118  52.792  1.00  0.00     0.042 A 
HETATM   20  C17 UNL     1      26.765   2.479  51.520  1.00  0.00     0.060 A 
BRANCH  19  21
HETATM   21  N4  UNL     1      27.298   1.445  53.646  1.00  0.00    -0.315 N 
HETATM   22  C14 UNL     1      27.391   0.311  54.366  1.00  0.00     0.117 A 
HETATM   23  C15 UNL     1      28.625   0.309  54.981  1.00  0.00     0.135 A 
HETATM   24  N5  UNL     1      29.285   1.449  54.631  1.00  0.00    -0.254 NA
HETATM   25  C16 UNL     1      28.460   2.135  53.813  1.00  0.00     0.214 A 
ENDBRANCH  19  21
ENDBRANCH   1  15
TORSDOF 4
ENDMDL
MODEL 3
REMARK VINA RESULT:      -8.2      2.161      7.584
REMARK  4 active torsions:
REMARK  status: ('A' for Active; 'I' for Inactive)
REMARK    1  A    between atoms: C4_5  and  C5_6 
REMARK    2  A    between atoms: C8_10  and  N3_11 
REMARK    3  A    between atoms: N3_11  and  C9_12 
REMARK    4  A    between atoms: C13_16  and  N4_17 
ROOT
HETATM    1  N3  UNL     1      25.630   3.886  49.415  1.00  0.00    -0.188 N 
HETATM    2  H6  UNL     1      25.162   3.372  48.614  1.00  0.00     0.184 HD
ENDROOT
BRANCH   1   3
HETATM    3  C8  UNL     1      25.248   3.515  50.729  1.00  0.00     0.727 A 
HETATM    4  N2  UNL     1      24.118   3.845  51.348  1.00  0.00    -0.075 NA
HETATM    5  C7  UNL     1      23.747   3.505  52.577  1.00  0.00     0.139 A 
HETATM    6  C6  UNL     1      24.617   2.725  53.305  1.00  0.00     0.053 A 
HETATM    7  C5  UNL     1      25.795   2.368  52.692  1.00  0.00     0.089 A 
HETATM    8  N6  UNL     1      26.074   2.758  51.458  1.00  0.00    -0.062 NA
BRANCH   7   9
HETATM    9  C4  UNL     1      26.768   1.544  53.398  1.00  0.00     0.011 A 
HETATM   10  C3  UNL     1      26.474   0.551  54.308  1.00  0.00     0.130 A 
HETATM   11  N1  UNL     1      27.414  -0.176  54.929  1.00  0.00    -0.272 NA
HETATM   12  C2  UNL     1      28.707   0.024  54.695  1.00  0.00     0.116 A 
HETATM   13  C1  UNL     1      29.132   0.984  53.807  1.00  0.00     0.020 A 
HETATM   14  C18 UNL     1      28.129   1.707  53.194  1.00  0.00     0.017 A 
ENDBRANCH   7   9
ENDBRANCH   1   3
BRANCH   1  15
HETATM   15  C9  UNL     1      26.572   4.869  49.026  1.00  0.00     0.051 A 
HETATM   16  C10 UNL     1      27.872   4.627  48.648  1.00  0.00     0.030 A 
HETATM   17  C11 UNL     1      28.783   5.588  48.269  1.00  0.00     0.004 A 
HETATM   18  C12 UNL     1      28.392   6.905  48.259  1.00  0.00     0.030 A 
HETATM   19  C13 UNL     1      27.098   7.202  48.629  1.00  0.00     0.042 A 
HETATM   20  C17 UNL     1      26.232   6.197  48.998  1.00  0.00     0.060 A 
BRANCH  19  21
HETATM   21  N4  UNL     1      26.658   8.554  48.631  1.00  0.00    -0.315 N 
HETATM   22  C14 UNL     1      25.698   9.325  48.083  1.00  0.00     0.117 A 
HETATM   23  C15 UNL     1      25.882  10.610  48.549  1.00  0.00     0.135 A 
HETATM   24  N5  UNL     1      26.959  10.618  49.384  1.00  0.00    -0.254 NA
HETATM   25  C16 UNL     1      27.424   9.353  49.425  1.00  0.00     0.214 A 
ENDBRANCH  19  21
ENDBRANCH   1  15
TORSDOF 4
ENDMDL
MODEL 4
REMARK VINA RESULT:      -8.1      1.962      7.353
REMARK  4 active torsions:
REMARK  status: ('A' for Active; 'I' for Inactive)
REMARK    1  A    between atoms: C4_5  and  C5_6 
REMARK    2  A    between atoms: C8_10  and  N3_11 
REMARK    3  A    between atoms: N3_11  and  C9_12 
REMARK    4  A    between atoms: C13_16  and  N4_17 
ROOT
HETATM    1  N3  UNL     1      26.265   3.389  49.391  1.00  0.00    -0.188 N 
HETATM    2  H6  UNL     1      26.130   2.714  48.584  1.00  0.00     0.184 HD
ENDROOT
BRANCH   1   3
HETATM    3  C8  UNL     1      26.031   2.888  50.696  1.00  0.00     0.727 A 
HETATM    4  N2  UNL     1      25.041   3.236  51.514  1.00  0.00    -0.075 NA
HETATM    5  C7  UNL     1      24.809   2.775  52.737  1.00  0.00     0.139 A 
HETATM    6  C6  UNL     1      25.682   1.830  53.229  1.00  0.00     0.053 A 
HETATM    7  C5  UNL     1      26.717   1.449  52.408  1.00  0.00     0.089 A 
HETATM    8  N6  UNL     1      26.862   1.969  51.199  1.00  0.00    -0.062 NA
BRANCH   7   9
HETATM    9  C4  UNL     1      27.681   0.454  52.859  1.00  0.00     0.011 A 
HETATM   10  C3  UNL     1      27.470  -0.907  52.915  1.00  0.00     0.130 A 
HETATM   11  N1  UNL     1      28.398  -1.776  53.341  1.00  0.00    -0.272 NA
HETATM   12  C2  UNL     1      29.598  -1.364  53.739  1.00  0.00     0.116 A 
HETATM   13  C1  UNL     1      29.934  -0.031  53.731  1.00  0.00     0.020 A 
HETATM   14  C18 UNL     1      28.947   0.824  53.285  1.00  0.00     0.017 A 
ENDBRANCH   7   9
ENDBRANCH   1   3
BRANCH   1  15
HETATM   15  C9  UNL     1      26.664   4.696  49.018  1.00  0.00     0.051 A 
HETATM   16  C10 UNL     1      25.860   5.812  49.032  1.00  0.00     0.030 A 
HETATM   17  C11 UNL     1      26.254   7.081  48.669  1.00  0.00     0.004 A 
HETATM   18  C12 UNL     1      27.548   7.280  48.253  1.00  0.00     0.030 A 
HETATM   19  C13 UNL     1      28.395   6.193  48.221  1.00  0.00     0.042 A 
HETATM   20  C17 UNL     1      27.943   4.948  48.597  1.00  0.00     0.060 A 
BRANCH  19  21
HETATM   21  N4  UNL     1      29.742   6.362  47.796  1.00  0.00    -0.315 N 
HETATM   22  C14 UNL     1      30.565   7.327  47.343  1.00  0.00     0.117 A 
HETATM   23  C15 UNL     1      31.797   6.750  47.118  1.00  0.00     0.135 A 
HETATM   24  N5  UNL     1      31.720   5.427  47.436  1.00  0.00    -0.254 NA
HETATM   25  C16 UNL     1      30.456   5.204  47.850  1.00  0.00     0.214 A 
ENDBRANCH  19  21
ENDBRANCH   1  15
TORSDOF 4
ENDMDL
MODEL 5
REMARK VINA RESULT:      -7.9      2.144      3.355
REMARK  4 active torsions:
REMARK  status: ('A' for Active; 'I' for Inactive)
REMARK    1  A    between atoms: C4_5  and  C5_6 
REMARK    2  A    between atoms: C8_10  and  N3_11 
REMARK    3  A    between atoms: N3_11  and  C9_12 
REMARK    4  A    between atoms: C13_16  and  N4_17 
ROOT
HETATM    1  N3  UNL     1      25.736   3.157  51.911  1.00  0.00    -0.188 N 
HETATM    2  H6  UNL     1      26.287   3.765  52.582  1.00  0.00     0.184 HD
ENDROOT
BRANCH   1   3
HETATM    3  C8  UNL     1      25.103   3.809  50.824  1.00  0.00     0.727 A 
HETATM    4  N2  UNL     1      23.853   3.624  50.408  1.00  0.00    -0.075 NA
HETATM    5  C7  UNL     1      23.247   4.227  49.391  1.00  0.00     0.139 A 
HETATM    6  C6  UNL     1      23.980   5.149  48.679  1.00  0.00     0.053 A 
HETATM    7  C5  UNL     1      25.277   5.363  49.084  1.00  0.00     0.089 A 
HETATM    8  N6  UNL     1      25.792   4.709  50.114  1.00  0.00    -0.062 NA
BRANCH   7   9
HETATM    9  C4  UNL     1      26.116   6.322  48.378  1.00  0.00     0.011 A 
HETATM   10  C3  UNL     1      25.670   7.427  47.684  1.00  0.00     0.130 A 
HETATM   11  N1  UNL     1      26.492   8.277  47.053  1.00  0.00    -0.272 NA
HETATM   12  C2  UNL     1      27.809   8.099  47.062  1.00  0.00     0.116 A 
HETATM   13  C1  UNL     1      28.381   7.035  47.720  1.00  0.00     0.020 A 
HETATM   14  C18 UNL     1      27.495   6.188  48.355  1.00  0.00     0.017 A 
ENDBRANCH   7   9
ENDBRANCH   1   3
BRANCH   1  15
HETATM   15  C9  UNL     1      25.730   1.776  52.223  1.00  0.00     0.051 A 
HETATM   16  C10 UNL     1      26.773   0.904  52.019  1.00  0.00     0.030 A 
HETATM   17  C11 UNL     1      26.761  -0.439  52.326  1.00  0.00     0.004 A 
HETATM   18  C12 UNL     1      25.628  -0.981  52.883  1.00  0.00     0.030 A 
HETATM   19  C13 UNL     1      24.553  -0.149  53.110  1.00  0.00     0.042 A 
HETATM   20  C17 UNL     1      24.625   1.186  52.781  1.00  0.00     0.060 A 
BRANCH  19  21
HETATM   21  N4  UNL     1      23.364  -0.676  53.685  1.00  0.00    -0.315 N 
HETATM   22  C14 UNL     1      22.061  -0.843  53.384  1.00  0.00     0.117 A 
HETATM   23  C15 UNL     1      21.461  -1.456  54.464  1.00  0.00     0.135 A 
HETATM   24  N5  UNL     1      22.405  -1.662  55.425  1.00  0.00    -0.254 NA
HETATM   25  C16 UNL     1      23.565  -1.179  54.934  1.00  0.00     0.214 A 
ENDBRANCH  19  21
ENDBRANCH   1  15
TORSDOF 4
ENDMDL
MODEL 6
REMARK VINA RESULT:      -7.8      2.070      7.750
REMARK  4 active torsions:
REMARK  status: ('A' for Active; 'I' for Inactive)
REMARK    1  A    between atoms: C4_5  and  C5_6 
REMARK    2  A    between atoms: C8_10  and  N3_11 
REMARK    3  A    between atoms: N3_11  and  C9_12 
REMARK    4  A    between atoms: C13_16  and  N4_17 
ROOT
HETATM    1  N3  UNL     1      26.494   2.713  49.784  1.00  0.00    -0.188 N 
HETATM    2  H6  UNL     1      26.598   1.972  49.033  1.00  0.00     0.184 HD
ENDROOT
BRANCH   1   3
HETATM    3  C8  UNL     1      26.395   2.263  51.124  1.00  0.00     0.727 A 
HETATM    4  N2  UNL     1      27.313   2.399  52.077  1.00  0.00    -0.075 NA
HETATM    5  C7  UNL     1      27.233   1.982  53.335  1.00  0.00     0.139 A 
HETATM    6  C6  UNL     1      26.078   1.335  53.712  1.00  0.00     0.053 A 
HETATM    7  C5  UNL     1      25.109   1.178  52.749  1.00  0.00     0.089 A 
HETATM    8  N6  UNL     1      25.284   1.631  51.517  1.00  0.00    -0.062 NA
BRANCH   7   9
HETATM    9  C4  UNL     1      23.859   0.502  53.072  1.00  0.00     0.011 A 
HETATM   10  C3  UNL     1      22.655   0.679  52.423  1.00  0.00     0.130 A 
HETATM   11  N1  UNL     1      21.535   0.027  52.767  1.00  0.00    -0.272 NA
HETATM   12  C2  UNL     1      21.524  -0.845  53.770  1.00  0.00     0.116 A 
HETATM   13  C1  UNL     1      22.661  -1.113  54.496  1.00  0.00     0.020 A 
HETATM   14  C18 UNL     1      23.787  -0.418  54.106  1.00  0.00     0.017 A 
ENDBRANCH   7   9
ENDBRANCH   1   3
BRANCH   1  15
HETATM   15  C9  UNL     1      26.471   4.047  49.309  1.00  0.00     0.051 A 
HETATM   16  C10 UNL     1      25.367   4.867  49.279  1.00  0.00     0.030 A 
HETATM   17  C11 UNL     1      25.351   6.164  48.817  1.00  0.00     0.004 A 
HETATM   18  C12 UNL     1      26.516   6.712  48.338  1.00  0.00     0.030 A 
HETATM   19  C13 UNL     1      27.653   5.932  48.346  1.00  0.00     0.042 A 
HETATM   20  C17 UNL     1      27.606   4.641  48.822  1.00  0.00     0.060 A 
BRANCH  19  21
HETATM   21  N4  UNL     1      28.877   6.466  47.859  1.00  0.00    -0.315 N 
HETATM   22  C14 UNL     1      29.357   7.590  47.292  1.00  0.00     0.117 A 
HETATM   23  C15 UNL     1      30.706   7.401  47.074  1.00  0.00     0.135 A 
HETATM   24  N5  UNL     1      31.046   6.157  47.511  1.00  0.00    -0.254 NA
HETATM   25  C16 UNL     1      29.916   5.595  47.990  1.00  0.00     0.214 A 
ENDBRANCH  19  21
ENDBRANCH   1  15
TORSDOF 4
ENDMDL
MODEL 7
REMARK VINA RESULT:      -7.7      1.973      7.774
REMARK  4 active torsions:
REMARK  status: ('A' for Active; 'I' for Inactive)
REMARK    1  A    between atoms: C4_5  and  C5_6 
REMARK    2  A    between atoms: C8_10  and  N3_11 
REMARK    3  A    between atoms: N3_11  and  C9_12 
REMARK    4  A    between atoms: C13_16  and  N4_17 
ROOT
HETATM    1  N3  UNL     1      26.680   2.740  49.928  1.00  0.00    -0.188 N 
HETATM    2  H6  UNL     1      26.908   2.014  49.190  1.00  0.00     0.184 HD
ENDROOT
BRANCH   1   3
HETATM    3  C8  UNL     1      26.466   2.270  51.248  1.00  0.00     0.727 A 
HETATM    4  N2  UNL     1      27.315   2.357  52.269  1.00  0.00    -0.075 NA
HETATM    5  C7  UNL     1      27.127   1.921  53.509  1.00  0.00     0.139 A 
HETATM    6  C6  UNL     1      25.926   1.309  53.786  1.00  0.00     0.053 A 
HETATM    7  C5  UNL     1      25.026   1.204  52.752  1.00  0.00     0.089 A 
HETATM    8  N6  UNL     1      25.307   1.672  51.546  1.00  0.00    -0.062 NA
BRANCH   7   9
HETATM    9  C4  UNL     1      23.733   0.568  52.968  1.00  0.00     0.011 A 
HETATM   10  C3  UNL     1      22.580   0.820  52.255  1.00  0.00     0.130 A 
HETATM   11  N1  UNL     1      21.416   0.201  52.500  1.00  0.00    -0.272 NA
HETATM   12  C2  UNL     1      21.308  -0.709  53.463  1.00  0.00     0.116 A 
HETATM   13  C1  UNL     1      22.385  -1.052  54.246  1.00  0.00     0.020 A 
HETATM   14  C18 UNL     1      23.560  -0.389  53.956  1.00  0.00     0.017 A 
ENDBRANCH   7   9
ENDBRANCH   1   3
BRANCH   1  15
HETATM   15  C9  UNL     1      26.627   4.075  49.459  1.00  0.00     0.051 A 
HETATM   16  C10 UNL     1      27.611   4.710  48.738  1.00  0.00     0.030 A 
HETATM   17  C11 UNL     1      27.553   6.008  48.283  1.00  0.00     0.004 A 
HETATM   18  C12 UNL     1      26.434   6.757  48.556  1.00  0.00     0.030 A 
HETATM   19  C13 UNL     1      25.417   6.168  49.275  1.00  0.00     0.042 A 
HETATM   20  C17 UNL     1      25.533   4.864  49.703  1.00  0.00     0.060 A 
BRANCH  19  21
HETATM   21  N4  UNL     1      24.244   6.912  49.576  1.00  0.00    -0.315 N 
HETATM   22  C14 UNL     1      23.536   7.956  49.101  1.00  0.00     0.117 A 
HETATM   23  C15 UNL     1      22.454   8.139  49.936  1.00  0.00     0.135 A 
HETATM   24  N5  UNL     1      22.505   7.201  50.923  1.00  0.00    -0.254 NA
HETATM   25  C16 UNL     1      23.606   6.457  50.690  1.00  0.00     0.214 A 
ENDBRANCH  19  21
ENDBRANCH   1  15
TORSDOF 4
ENDMDL
MODEL 8
REMARK VINA RESULT:      -7.7      1.455      2.136
REMARK  4 active torsions:
REMARK  status: ('A' for Active; 'I' for Inactive)
REMARK    1  A    between atoms: C4_5  and  C5_6 
REMARK    2  A    between atoms: C8_10  and  N3_11 
REMARK    3  A    between atoms: N3_11  and  C9_12 
REMARK    4  A    between atoms: C13_16  and  N4_17 
ROOT
HETATM    1  N3  UNL     1      24.673   3.269  49.875  1.00  0.00    -0.188 N 
HETATM    2  H6  UNL     1      24.347   2.841  48.960  1.00  0.00     0.184 HD
ENDROOT
BRANCH   1   3
HETATM    3  C8  UNL     1      25.077   4.626  49.842  1.00  0.00     0.727 A 
HETATM    4  N2  UNL     1      24.454   5.654  50.413  1.00  0.00    -0.075 NA
HETATM    5  C7  UNL     1      24.821   6.930  50.391  1.00  0.00     0.139 A 
HETATM    6  C6  UNL     1      25.974   7.241  49.705  1.00  0.00     0.053 A 
HETATM    7  C5  UNL     1      26.642   6.200  49.104  1.00  0.00     0.089 A 
HETATM    8  N6  UNL     1      26.193   4.957  49.184  1.00  0.00    -0.062 NA
BRANCH   7   9
HETATM    9  C4  UNL     1      27.869   6.451  48.359  1.00  0.00     0.011 A 
HETATM   10  C3  UNL     1      28.122   7.551  47.567  1.00  0.00     0.130 A 
HETATM   11  N1  UNL     1      29.274   7.727  46.904  1.00  0.00    -0.272 NA
HETATM   12  C2  UNL     1      30.256   6.834  46.977  1.00  0.00     0.116 A 
HETATM   13  C1  UNL     1      30.130   5.693  47.734  1.00  0.00     0.020 A 
HETATM   14  C18 UNL     1      28.927   5.556  48.397  1.00  0.00     0.017 A 
ENDBRANCH   7   9
ENDBRANCH   1   3
BRANCH   1  15
HETATM   15  C9  UNL     1      24.647   2.393  50.987  1.00  0.00     0.051 A 
HETATM   16  C10 UNL     1      23.528   1.771  51.490  1.00  0.00     0.030 A 
HETATM   17  C11 UNL     1      23.509   0.919  52.572  1.00  0.00     0.004 A 
HETATM   18  C12 UNL     1      24.688   0.648  53.223  1.00  0.00     0.030 A 
HETATM   19  C13 UNL     1      25.840   1.246  52.758  1.00  0.00     0.042 A 
HETATM   20  C17 UNL     1      25.795   2.089  51.671  1.00  0.00     0.060 A 
BRANCH  19  21
HETATM   21  N4  UNL     1      27.078   0.989  53.408  1.00  0.00    -0.315 N 
HETATM   22  C14 UNL     1      28.357   1.414  53.391  1.00  0.00     0.117 A 
HETATM   23  C15 UNL     1      29.048   0.684  54.336  1.00  0.00     0.135 A 
HETATM   24  N5  UNL     1      28.184  -0.187  54.929  1.00  0.00    -0.254 NA
HETATM   25  C16 UNL     1      26.981   0.011  54.350  1.00  0.00     0.214 A 
ENDBRANCH  19  21
ENDBRANCH   1  15
TORSDOF 4
ENDMDL
MODEL 9
REMARK VINA RESULT:      -7.5      2.253      7.681
REMARK  4 active torsions:
REMARK  status: ('A' for Active; 'I' for Inactive)
REMARK    1  A    between atoms: C4_5  and  C5_6 
REMARK    2  A    between atoms: C8_10  and  N3_11 
REMARK    3  A    between atoms: N3_11  and  C9_12 
REMARK    4  A    between atoms: C13_16  and  N4_17 
ROOT
HETATM    1  N3  UNL     1      26.520   4.333  48.898  1.00  0.00    -0.188 N 
HETATM    2  H6  UNL     1      26.731   3.882  47.962  1.00  0.00     0.184 HD
ENDROOT
BRANCH   1   3
HETATM    3  C8  UNL     1      25.974   3.501  49.907  1.00  0.00     0.727 A 
HETATM    4  N2  UNL     1      24.691   3.191  50.070  1.00  0.00    -0.075 NA
HETATM    5  C7  UNL     1      24.166   2.413  51.010  1.00  0.00     0.139 A 
HETATM    6  C6  UNL     1      25.033   1.857  51.924  1.00  0.00     0.053 A 
HETATM    7  C5  UNL     1      26.367   2.159  51.781  1.00  0.00     0.089 A 
HETATM    8  N6  UNL     1      26.793   2.947  50.808  1.00  0.00    -0.062 NA
BRANCH   7   9
HETATM    9  C4  UNL     1      27.345   1.609  52.711  1.00  0.00     0.011 A 
HETATM   10  C3  UNL     1      28.178   2.339  53.531  1.00  0.00     0.130 A 
HETATM   11  N1  UNL     1      29.061   1.775  54.369  1.00  0.00    -0.272 NA
HETATM   12  C2  UNL     1      29.182   0.455  54.456  1.00  0.00     0.116 A 
HETATM   13  C1  UNL     1      28.409  -0.386  53.692  1.00  0.00     0.020 A 
HETATM   14  C18 UNL     1      27.516   0.240  52.846  1.00  0.00     0.017 A 
ENDBRANCH   7   9
ENDBRANCH   1   3
BRANCH   1  15
HETATM   15  C9  UNL     1      26.826   5.714  48.979  1.00  0.00     0.051 A 
HETATM   16  C10 UNL     1      26.121   6.649  49.700  1.00  0.00     0.030 A 
HETATM   17  C11 UNL     1      26.424   7.990  49.775  1.00  0.00     0.004 A 
HETATM   18  C12 UNL     1      27.513   8.464  49.084  1.00  0.00     0.030 A 
HETATM   19  C13 UNL     1      28.254   7.567  48.345  1.00  0.00     0.042 A 
HETATM   20  C17 UNL     1      27.901   6.237  48.309  1.00  0.00     0.060 A 
BRANCH  19  21
HETATM   21  N4  UNL     1      29.388   8.021  47.617  1.00  0.00    -0.315 N 
HETATM   22  C14 UNL     1      30.045   7.764  46.469  1.00  0.00     0.117 A 
HETATM   23  C15 UNL     1      31.113   8.634  46.399  1.00  0.00     0.135 A 
HETATM   24  N5  UNL     1      31.103   9.423  47.510  1.00  0.00    -0.254 NA
HETATM   25  C16 UNL     1      30.041   9.037  48.246  1.00  0.00     0.214 A 
ENDBRANCH  19  21
ENDBRANCH   1  15
TORSDOF 4
ENDMDL
