MODEL 1
REMARK VINA RESULT:      -8.1      0.000      0.000
REMARK  4 active torsions:
REMARK  status: ('A' for Active; 'I' for Inactive)
REMARK    1  A    between atoms: C2_2  and  C3_3 
REMARK    2  A    between atoms: C7_8  and  N2_9 
REMARK    3  A    between atoms: N2_9  and  C8_10 
REMARK    4  A    between atoms: C8_10  and  C9_12 
ROOT
HETATM    1  C8  UNL     1      27.341   2.169  53.023  1.00  0.00     0.130 C 
HETATM    2  N3  UNL     1      28.419   2.858  52.868  1.00  0.00    -0.283 NA
HETATM    3  H6  UNL     1      29.268   2.577  53.400  1.00  0.00     0.188 HD
ENDROOT
BRANCH   1   4
HETATM    4  N2  UNL     1      27.397   1.071  53.917  1.00  0.00    -0.340 N 
HETATM    5  H5  UNL     1      27.187   1.265  54.902  1.00  0.00     0.167 HD
BRANCH   4   6
HETATM    6  C7  UNL     1      27.708  -0.268  53.563  1.00  0.00     0.053 A 
HETATM    7  C3  UNL     1      26.737  -1.100  53.076  1.00  0.00     0.005 A 
HETATM    8  C4  UNL     1      27.011  -2.395  52.708  1.00  0.00     0.130 A 
HETATM    9  N1  UNL     1      28.292  -2.833  52.842  1.00  0.00    -0.264 NA
HETATM   10  C5  UNL     1      29.252  -2.023  53.319  1.00  0.00     0.047 A 
HETATM   11  C6  UNL     1      29.023  -0.708  53.705  1.00  0.00     0.000 A 
HETATM   12  C17 UNL     1      30.395  -1.228  53.833  1.00  0.00     0.103 A 
BRANCH   7  13
HETATM   13  C2  UNL     1      25.348  -0.736  52.891  1.00  0.00    -0.011 C 
HETATM   14  C1  UNL     1      24.467  -0.758  53.856  1.00  0.00     0.032 C 
ENDBRANCH   7  13
ENDBRANCH   4   6
ENDBRANCH   1   4
BRANCH   1  15
HETATM   15  C9  UNL     1      26.203   2.626  52.245  1.00  0.00     0.006 C 
HETATM   16  C10 UNL     1      25.038   2.685  52.893  1.00  0.00    -0.006 C 
HETATM   17  C11 UNL     1      23.639   3.044  52.655  1.00  0.00     0.079 C 
HETATM   18  C12 UNL     1      23.075   2.343  51.453  1.00  0.00     0.011 C 
HETATM   19 CL1  UNL     1      21.812   1.166  51.760  1.00  0.00    -0.089 Cl
HETATM   20  C13 UNL     1      23.406   2.495  50.167  1.00  0.00    -0.003 C 
HETATM   21  C14 UNL     1      24.332   3.285  49.332  1.00  0.00     0.055 C 
HETATM   22  C15 UNL     1      25.742   3.232  49.739  1.00  0.00    -0.022 C 
HETATM   23  C16 UNL     1      26.414   2.981  50.847  1.00  0.00     0.011 C 
ENDBRANCH   1  15
TORSDOF 4
ENDMDL
MODEL 2
REMARK VINA RESULT:      -7.8      2.002      3.827
REMARK  4 active torsions:
REMARK  status: ('A' for Active; 'I' for Inactive)
REMARK    1  A    between atoms: C2_2  and  C3_3 
REMARK    2  A    between atoms: C7_8  and  N2_9 
REMARK    3  A    between atoms: N2_9  and  C8_10 
REMARK    4  A    between atoms: C8_10  and  C9_12 
ROOT
HETATM    1  C8  UNL     1      25.193   1.744  52.822  1.00  0.00     0.130 C 
HETATM    2  N3  UNL     1      25.121   2.849  53.481  1.00  0.00    -0.283 NA
HETATM    3  H6  UNL     1      25.975   3.437  53.558  1.00  0.00     0.188 HD
ENDROOT
BRANCH   1   4
HETATM    4  N2  UNL     1      26.445   1.412  52.248  1.00  0.00    -0.340 N 
HETATM    5  H5  UNL     1      26.755   1.982  51.453  1.00  0.00     0.167 HD
BRANCH   4   6
HETATM    6  C7  UNL     1      27.303   0.370  52.684  1.00  0.00     0.053 A 
HETATM    7  C3  UNL     1      28.444   0.659  53.385  1.00  0.00     0.005 A 
HETATM    8  C4  UNL     1      29.285  -0.329  53.836  1.00  0.00     0.130 A 
HETATM    9  N1  UNL     1      28.949  -1.620  53.565  1.00  0.00    -0.264 NA
HETATM   10  C5  UNL     1      27.831  -1.912  52.878  1.00  0.00     0.047 A 
HETATM   11  C6  UNL     1      26.952  -0.948  52.401  1.00  0.00     0.000 A 
HETATM   12  C17 UNL     1      26.629  -2.360  52.131  1.00  0.00     0.103 A 
BRANCH   7  13
HETATM   13  C2  UNL     1      28.893   1.991  53.728  1.00  0.00    -0.011 C 
HETATM   14  C1  UNL     1      29.720   2.239  54.708  1.00  0.00     0.032 C 
ENDBRANCH   7  13
ENDBRANCH   4   6
ENDBRANCH   1   4
BRANCH   1  15
HETATM   15  C9  UNL     1      23.956   0.985  52.761  1.00  0.00     0.006 C 
HETATM   16  C10 UNL     1      23.125   1.301  51.765  1.00  0.00    -0.006 C 
HETATM   17  C11 UNL     1      21.821   0.912  51.226  1.00  0.00     0.079 C 
HETATM   18  C12 UNL     1      20.753   0.911  52.282  1.00  0.00     0.011 C 
HETATM   19 CL1  UNL     1      19.489   2.115  52.110  1.00  0.00    -0.089 Cl
HETATM   20  C13 UNL     1      20.631   0.110  53.345  1.00  0.00    -0.003 C 
HETATM   21  C14 UNL     1      21.330  -1.023  53.983  1.00  0.00     0.055 C 
HETATM   22  C15 UNL     1      22.759  -0.809  54.247  1.00  0.00    -0.022 C 
HETATM   23  C16 UNL     1      23.721  -0.043  53.766  1.00  0.00     0.011 C 
ENDBRANCH   1  15
TORSDOF 4
ENDMDL
MODEL 3
REMARK VINA RESULT:      -7.8      2.678      6.020
REMARK  4 active torsions:
REMARK  status: ('A' for Active; 'I' for Inactive)
REMARK    1  A    between atoms: C2_2  and  C3_3 
REMARK    2  A    between atoms: C7_8  and  N2_9 
REMARK    3  A    between atoms: N2_9  and  C8_10 
REMARK    4  A    between atoms: C8_10  and  C9_12 
ROOT
HETATM    1  C8  UNL     1      26.326   2.812  50.874  1.00  0.00     0.130 C 
HETATM    2  N3  UNL     1      27.172   3.691  50.460  1.00  0.00    -0.283 NA
HETATM    3  H6  UNL     1      26.855   4.394  49.762  1.00  0.00     0.188 HD
ENDROOT
BRANCH   1   4
HETATM    4  N2  UNL     1      25.014   2.873  50.341  1.00  0.00    -0.340 N 
HETATM    5  H5  UNL     1      24.864   2.421  49.432  1.00  0.00     0.167 HD
BRANCH   4   6
HETATM    6  C7  UNL     1      23.899   3.493  50.959  1.00  0.00     0.053 A 
HETATM    7  C3  UNL     1      22.874   2.737  51.460  1.00  0.00     0.005 A 
HETATM    8  C4  UNL     1      21.789   3.308  52.080  1.00  0.00     0.130 A 
HETATM    9  N1  UNL     1      21.762   4.664  52.186  1.00  0.00    -0.264 NA
HETATM   10  C5  UNL     1      22.763   5.415  51.697  1.00  0.00     0.047 A 
HETATM   11  C6  UNL     1      23.879   4.883  51.062  1.00  0.00     0.000 A 
HETATM   12  C17 UNL     1      23.805   6.348  51.199  1.00  0.00     0.103 A 
BRANCH   7  13
HETATM   13  C2  UNL     1      22.803   1.292  51.403  1.00  0.00    -0.011 C 
HETATM   14  C1  UNL     1      22.582   0.543  52.451  1.00  0.00     0.032 C 
ENDBRANCH   7  13
ENDBRANCH   4   6
ENDBRANCH   1   4
BRANCH   1  15
HETATM   15  C9  UNL     1      26.848   1.868  51.847  1.00  0.00     0.006 C 
HETATM   16  C10 UNL     1      26.243   0.680  51.892  1.00  0.00    -0.006 C 
HETATM   17  C11 UNL     1      26.317  -0.591  52.614  1.00  0.00     0.079 C 
HETATM   18  C12 UNL     1      26.308  -0.393  54.103  1.00  0.00     0.011 C 
HETATM   19 CL1  UNL     1      24.899  -0.990  54.959  1.00  0.00    -0.089 Cl
HETATM   20  C13 UNL     1      27.238   0.180  54.874  1.00  0.00    -0.003 C 
HETATM   21  C14 UNL     1      28.559   0.826  54.747  1.00  0.00     0.055 C 
HETATM   22  C15 UNL     1      28.632   1.915  53.765  1.00  0.00    -0.022 C 
HETATM   23  C16 UNL     1      27.971   2.278  52.681  1.00  0.00     0.011 C 
ENDBRANCH   1  15
TORSDOF 4
ENDMDL
MODEL 4
REMARK VINA RESULT:      -7.7      1.875      3.206
REMARK  4 active torsions:
REMARK  status: ('A' for Active; 'I' for Inactive)
REMARK    1  A    between atoms: C2_2  and  C3_3 
REMARK    2  A    between atoms: C7_8  and  N2_9 
REMARK    3  A    between atoms: N2_9  and  C8_10 
REMARK    4  A    between atoms: C8_10  and  C9_12 
ROOT
HETATM    1  C8  UNL     1      26.433   2.300  51.210  1.00  0.00     0.130 C 
HETATM    2  N3  UNL     1      27.396   3.139  51.377  1.00  0.00    -0.283 NA
HETATM    3  H6  UNL     1      28.295   2.791  51.768  1.00  0.00     0.188 HD
ENDROOT
BRANCH   1   4
HETATM    4  N2  UNL     1      26.676   0.953  51.576  1.00  0.00    -0.340 N 
HETATM    5  H5  UNL     1      27.021   0.328  50.838  1.00  0.00     0.167 HD
BRANCH   4   6
HETATM    6  C7  UNL     1      26.492   0.402  52.870  1.00  0.00     0.053 A 
HETATM    7  C3  UNL     1      27.544   0.311  53.741  1.00  0.00     0.005 A 
HETATM    8  C4  UNL     1      27.393  -0.201  55.007  1.00  0.00     0.130 A 
HETATM    9  N1  UNL     1      26.153  -0.620  55.377  1.00  0.00    -0.264 NA
HETATM   10  C5  UNL     1      25.114  -0.534  54.528  1.00  0.00     0.047 A 
HETATM   11  C6  UNL     1      25.218  -0.026  53.240  1.00  0.00     0.000 A 
HETATM   12  C17 UNL     1      23.894  -0.493  53.685  1.00  0.00     0.103 A 
BRANCH   7  13
HETATM   13  C2  UNL     1      28.900   0.728  53.452  1.00  0.00    -0.011 C 
HETATM   14  C1  UNL     1      29.934  -0.061  53.575  1.00  0.00     0.032 C 
ENDBRANCH   7  13
ENDBRANCH   4   6
ENDBRANCH   1   4
BRANCH   1  15
HETATM   15  C9  UNL     1      25.214   2.867  50.660  1.00  0.00     0.006 C 
HETATM   16  C10 UNL     1      24.084   2.223  50.958  1.00  0.00    -0.006 C 
HETATM   17  C11 UNL     1      22.644   2.309  50.711  1.00  0.00     0.079 C 
HETATM   18  C12 UNL     1      22.331   2.434  49.247  1.00  0.00     0.011 C 
HETATM   19 CL1  UNL     1      21.491   1.080  48.513  1.00  0.00    -0.089 Cl
HETATM   20  C13 UNL     1      22.605   3.446  48.418  1.00  0.00    -0.003 C 
HETATM   21  C14 UNL     1      23.248   4.775  48.443  1.00  0.00     0.055 C 
HETATM   22  C15 UNL     1      24.602   4.806  49.009  1.00  0.00    -0.022 C 
HETATM   23  C16 UNL     1      25.313   4.070  49.844  1.00  0.00     0.011 C 
ENDBRANCH   1  15
TORSDOF 4
ENDMDL
MODEL 5
REMARK VINA RESULT:      -7.6      2.656      4.344
REMARK  4 active torsions:
REMARK  status: ('A' for Active; 'I' for Inactive)
REMARK    1  A    between atoms: C2_2  and  C3_3 
REMARK    2  A    between atoms: C7_8  and  N2_9 
REMARK    3  A    between atoms: N2_9  and  C8_10 
REMARK    4  A    between atoms: C8_10  and  C9_12 
ROOT
HETATM    1  C8  UNL     1      26.685   2.364  51.176  1.00  0.00     0.130 C 
HETATM    2  N3  UNL     1      27.532   2.864  52.009  1.00  0.00    -0.283 NA
HETATM    3  H6  UNL     1      27.934   2.243  52.740  1.00  0.00     0.188 HD
ENDROOT
BRANCH   1   4
HETATM    4  N2  UNL     1      26.364   0.992  51.324  1.00  0.00    -0.340 N 
HETATM    5  H5  UNL     1      26.741   0.351  50.617  1.00  0.00     0.167 HD
BRANCH   4   6
HETATM    6  C7  UNL     1      25.577   0.435  52.364  1.00  0.00     0.053 A 
HETATM    7  C3  UNL     1      26.162  -0.312  53.352  1.00  0.00     0.005 A 
HETATM    8  C4  UNL     1      25.429  -0.849  54.382  1.00  0.00     0.130 A 
HETATM    9  N1  UNL     1      24.089  -0.615  54.395  1.00  0.00    -0.264 NA
HETATM   10  C5  UNL     1      23.506   0.117  53.430  1.00  0.00     0.047 A 
HETATM   11  C6  UNL     1      24.205   0.679  52.369  1.00  0.00     0.000 A 
HETATM   12  C17 UNL     1      22.750   0.905  52.426  1.00  0.00     0.103 A 
BRANCH   7  13
HETATM   13  C2  UNL     1      27.573  -0.619  53.434  1.00  0.00    -0.011 C 
HETATM   14  C1  UNL     1      28.381  -0.053  54.291  1.00  0.00     0.032 C 
ENDBRANCH   7  13
ENDBRANCH   4   6
ENDBRANCH   1   4
BRANCH   1  15
HETATM   15  C9  UNL     1      26.172   3.298  50.188  1.00  0.00     0.006 C 
HETATM   16  C10 UNL     1      27.073   4.108  49.628  1.00  0.00    -0.006 C 
HETATM   17  C11 UNL     1      27.152   5.184  48.638  1.00  0.00     0.079 C 
HETATM   18  C12 UNL     1      26.159   6.276  48.913  1.00  0.00     0.011 C 
HETATM   19 CL1  UNL     1      26.821   7.833  49.372  1.00  0.00    -0.089 Cl
HETATM   20  C13 UNL     1      24.824   6.224  48.853  1.00  0.00    -0.003 C 
HETATM   21  C14 UNL     1      23.751   5.260  48.542  1.00  0.00     0.055 C 
HETATM   22  C15 UNL     1      23.816   3.991  49.278  1.00  0.00    -0.022 C 
HETATM   23  C16 UNL     1      24.747   3.279  49.887  1.00  0.00     0.011 C 
ENDBRANCH   1  15
TORSDOF 4
ENDMDL
MODEL 6
REMARK VINA RESULT:      -7.6      1.872      2.274
REMARK  4 active torsions:
REMARK  status: ('A' for Active; 'I' for Inactive)
REMARK    1  A    between atoms: C2_2  and  C3_3 
REMARK    2  A    between atoms: C7_8  and  N2_9 
REMARK    3  A    between atoms: N2_9  and  C8_10 
REMARK    4  A    between atoms: C8_10  and  C9_12 
ROOT
HETATM    1  C8  UNL     1      26.133   2.487  51.163  1.00  0.00     0.130 C 
HETATM    2  N3  UNL     1      27.146   3.278  51.077  1.00  0.00    -0.283 NA
HETATM    3  H6  UNL     1      28.095   2.888  51.248  1.00  0.00     0.188 HD
ENDROOT
BRANCH   1   4
HETATM    4  N2  UNL     1      26.393   1.133  51.487  1.00  0.00    -0.340 N 
HETATM    5  H5  UNL     1      26.508   0.483  50.702  1.00  0.00     0.167 HD
BRANCH   4   6
HETATM    6  C7  UNL     1      26.515   0.606  52.799  1.00  0.00     0.053 A 
HETATM    7  C3  UNL     1      25.437   0.035  53.420  1.00  0.00     0.005 A 
HETATM    8  C4  UNL     1      25.530  -0.500  54.682  1.00  0.00     0.130 A 
HETATM    9  N1  UNL     1      26.738  -0.447  55.306  1.00  0.00    -0.264 NA
HETATM   10  C5  UNL     1      27.801   0.112  54.704  1.00  0.00     0.047 A 
HETATM   11  C6  UNL     1      27.756   0.666  53.431  1.00  0.00     0.000 A 
HETATM   12  C17 UNL     1      29.044   0.701  54.145  1.00  0.00     0.103 A 
BRANCH   7  13
HETATM   13  C2  UNL     1      24.112  -0.076  52.849  1.00  0.00    -0.011 C 
HETATM   14  C1  UNL     1      23.018   0.150  53.526  1.00  0.00     0.032 C 
ENDBRANCH   7  13
ENDBRANCH   4   6
ENDBRANCH   1   4
BRANCH   1  15
HETATM   15  C9  UNL     1      24.845   3.111  50.909  1.00  0.00     0.006 C 
HETATM   16  C10 UNL     1      24.153   3.481  51.988  1.00  0.00    -0.006 C 
HETATM   17  C11 UNL     1      22.882   4.114  52.343  1.00  0.00     0.079 C 
HETATM   18  C12 UNL     1      21.715   3.447  51.672  1.00  0.00     0.011 C 
HETATM   19 CL1  UNL     1      20.589   2.608  52.722  1.00  0.00    -0.089 Cl
HETATM   20  C13 UNL     1      21.412   3.408  50.371  1.00  0.00    -0.003 C 
HETATM   21  C14 UNL     1      21.937   3.898  49.080  1.00  0.00     0.055 C 
HETATM   22  C15 UNL     1      23.345   3.575  48.813  1.00  0.00    -0.022 C 
HETATM   23  C16 UNL     1      24.416   3.283  49.527  1.00  0.00     0.011 C 
ENDBRANCH   1  15
TORSDOF 4
ENDMDL
MODEL 7
REMARK VINA RESULT:      -7.5      2.084      3.780
REMARK  4 active torsions:
REMARK  status: ('A' for Active; 'I' for Inactive)
REMARK    1  A    between atoms: C2_2  and  C3_3 
REMARK    2  A    between atoms: C7_8  and  N2_9 
REMARK    3  A    between atoms: N2_9  and  C8_10 
REMARK    4  A    between atoms: C8_10  and  C9_12 
ROOT
HETATM    1  C8  UNL     1      24.243   3.430  52.132  1.00  0.00     0.130 C 
HETATM    2  N3  UNL     1      24.641   4.538  51.609  1.00  0.00    -0.283 NA
HETATM    3  H6  UNL     1      25.513   4.974  51.973  1.00  0.00     0.188 HD
ENDROOT
BRANCH   1   4
HETATM    4  N2  UNL     1      25.031   2.886  53.176  1.00  0.00    -0.340 N 
HETATM    5  H5  UNL     1      25.296   3.523  53.936  1.00  0.00     0.167 HD
BRANCH   4   6
HETATM    6  C7  UNL     1      25.475   1.541  53.261  1.00  0.00     0.053 A 
HETATM    7  C3  UNL     1      26.806   1.241  53.147  1.00  0.00     0.005 A 
HETATM    8  C4  UNL     1      27.267  -0.050  53.244  1.00  0.00     0.130 A 
HETATM    9  N1  UNL     1      26.353  -1.034  53.461  1.00  0.00    -0.264 NA
HETATM   10  C5  UNL     1      25.045  -0.749  53.574  1.00  0.00     0.047 A 
HETATM   11  C6  UNL     1      24.532   0.539  53.483  1.00  0.00     0.000 A 
HETATM   12  C17 UNL     1      23.579  -0.561  53.716  1.00  0.00     0.103 A 
BRANCH   7  13
HETATM   13  C2  UNL     1      27.858   2.208  52.919  1.00  0.00    -0.011 C 
HETATM   14  C1  UNL     1      28.825   2.429  53.770  1.00  0.00     0.032 C 
ENDBRANCH   7  13
ENDBRANCH   4   6
ENDBRANCH   1   4
BRANCH   1  15
HETATM   15  C9  UNL     1      23.019   2.889  51.566  1.00  0.00     0.006 C 
HETATM   16  C10 UNL     1      21.972   2.827  52.390  1.00  0.00    -0.006 C 
HETATM   17  C11 UNL     1      20.569   2.407  52.394  1.00  0.00     0.079 C 
HETATM   18  C12 UNL     1      20.401   1.008  51.876  1.00  0.00     0.011 C 
HETATM   19 CL1  UNL     1      19.855  -0.191  53.034  1.00  0.00    -0.089 Cl
HETATM   20  C13 UNL     1      20.609   0.545  50.639  1.00  0.00    -0.003 C 
HETATM   21  C14 UNL     1      21.041   1.035  49.315  1.00  0.00     0.055 C 
HETATM   22  C15 UNL     1      22.307   1.778  49.304  1.00  0.00    -0.022 C 
HETATM   23  C16 UNL     1      23.025   2.467  50.171  1.00  0.00     0.011 C 
ENDBRANCH   1  15
TORSDOF 4
ENDMDL
MODEL 8
REMARK VINA RESULT:      -7.5      2.033      3.103
REMARK  4 active torsions:
REMARK  status: ('A' for Active; 'I' for Inactive)
REMARK    1  A    between atoms: C2_2  and  C3_3 
REMARK    2  A    between atoms: C7_8  and  N2_9 
REMARK    3  A    between atoms: N2_9  and  C8_10 
REMARK    4  A    between atoms: C8_10  and  C9_12 
ROOT
HETATM    1  C8  UNL     1      24.240   3.350  52.198  1.00  0.00     0.130 C 
HETATM    2  N3  UNL     1      24.766   4.388  51.646  1.00  0.00    -0.283 NA
HETATM    3  H6  UNL     1      25.636   4.782  52.059  1.00  0.00     0.188 HD
ENDROOT
BRANCH   1   4
HETATM    4  N2  UNL     1      24.894   2.819  53.338  1.00  0.00    -0.340 N 
HETATM    5  H5  UNL     1      24.636   3.218  54.247  1.00  0.00     0.167 HD
BRANCH   4   6
HETATM    6  C7  UNL     1      25.864   1.784  53.326  1.00  0.00     0.053 A 
HETATM    7  C3  UNL     1      25.482   0.478  53.169  1.00  0.00     0.005 A 
HETATM    8  C4  UNL     1      26.399  -0.544  53.136  1.00  0.00     0.130 A 
HETATM    9  N1  UNL     1      27.714  -0.220  53.264  1.00  0.00    -0.264 NA
HETATM   10  C5  UNL     1      28.098   1.059  53.418  1.00  0.00     0.047 A 
HETATM   11  C6  UNL     1      27.208   2.125  53.459  1.00  0.00     0.000 A 
HETATM   12  C17 UNL     1      28.644   2.428  53.593  1.00  0.00     0.103 A 
BRANCH   7  13
HETATM   13  C2  UNL     1      24.116   0.025  53.023  1.00  0.00    -0.011 C 
HETATM   14  C1  UNL     1      23.438  -0.534  53.991  1.00  0.00     0.032 C 
ENDBRANCH   7  13
ENDBRANCH   4   6
ENDBRANCH   1   4
BRANCH   1  15
HETATM   15  C9  UNL     1      23.028   2.864  51.560  1.00  0.00     0.006 C 
HETATM   16  C10 UNL     1      21.947   2.791  52.339  1.00  0.00    -0.006 C 
HETATM   17  C11 UNL     1      20.537   2.405  52.268  1.00  0.00     0.079 C 
HETATM   18  C12 UNL     1      20.359   1.034  51.682  1.00  0.00     0.011 C 
HETATM   19 CL1  UNL     1      19.739  -0.200  52.763  1.00  0.00    -0.089 Cl
HETATM   20  C13 UNL     1      20.607   0.620  50.435  1.00  0.00    -0.003 C 
HETATM   21  C14 UNL     1      21.103   1.157  49.152  1.00  0.00     0.055 C 
HETATM   22  C15 UNL     1      22.385   1.869  49.224  1.00  0.00    -0.022 C 
HETATM   23  C16 UNL     1      23.082   2.502  50.150  1.00  0.00     0.011 C 
ENDBRANCH   1  15
TORSDOF 4
ENDMDL
MODEL 9
REMARK VINA RESULT:      -7.5      2.721      3.787
REMARK  4 active torsions:
REMARK  status: ('A' for Active; 'I' for Inactive)
REMARK    1  A    between atoms: C2_2  and  C3_3 
REMARK    2  A    between atoms: C7_8  and  N2_9 
REMARK    3  A    between atoms: N2_9  and  C8_10 
REMARK    4  A    between atoms: C8_10  and  C9_12 
ROOT
HETATM    1  C8  UNL     1      26.584   2.568  50.864  1.00  0.00     0.130 C 
HETATM    2  N3  UNL     1      27.454   2.989  51.716  1.00  0.00    -0.283 NA
HETATM    3  H6  UNL     1      27.826   2.318  52.418  1.00  0.00     0.188 HD
ENDROOT
BRANCH   1   4
HETATM    4  N2  UNL     1      26.196   1.208  50.953  1.00  0.00    -0.340 N 
HETATM    5  H5  UNL     1      26.002   0.723  50.070  1.00  0.00     0.167 HD
BRANCH   4   6
HETATM    6  C7  UNL     1      26.062   0.463  52.154  1.00  0.00     0.053 A 
HETATM    7  C3  UNL     1      24.850   0.375  52.783  1.00  0.00     0.005 A 
HETATM    8  C4  UNL     1      24.685  -0.354  53.937  1.00  0.00     0.130 A 
HETATM    9  N1  UNL     1      25.774  -0.994  54.442  1.00  0.00    -0.264 NA
HETATM   10  C5  UNL     1      26.968  -0.912  53.830  1.00  0.00     0.047 A 
HETATM   11  C6  UNL     1      27.183  -0.189  52.665  1.00  0.00     0.000 A 
HETATM   12  C17 UNL     1      28.334  -0.899  53.249  1.00  0.00     0.103 A 
BRANCH   7  13
HETATM   13  C2  UNL     1      23.631   1.012  52.332  1.00  0.00    -0.011 C 
HETATM   14  C1  UNL     1      23.266   2.209  52.708  1.00  0.00     0.032 C 
ENDBRANCH   7  13
ENDBRANCH   4   6
ENDBRANCH   1   4
BRANCH   1  15
HETATM   15  C9  UNL     1      26.117   3.567  49.918  1.00  0.00     0.006 C 
HETATM   16  C10 UNL     1      27.050   4.382  49.423  1.00  0.00    -0.006 C 
HETATM   17  C11 UNL     1      27.179   5.508  48.496  1.00  0.00     0.079 C 
HETATM   18  C12 UNL     1      26.208   6.608  48.809  1.00  0.00     0.011 C 
HETATM   19 CL1  UNL     1      26.898   8.121  49.367  1.00  0.00    -0.089 Cl
HETATM   20  C13 UNL     1      24.874   6.596  48.717  1.00  0.00    -0.003 C 
HETATM   21  C14 UNL     1      23.784   5.678  48.331  1.00  0.00     0.055 C 
HETATM   22  C15 UNL     1      23.800   4.369  48.998  1.00  0.00    -0.022 C 
HETATM   23  C16 UNL     1      24.699   3.601  49.586  1.00  0.00     0.011 C 
ENDBRANCH   1  15
TORSDOF 4
ENDMDL
