MODEL 1
REMARK VINA RESULT:      -8.1      0.000      0.000
REMARK  1 active torsions:
REMARK  status: ('A' for Active; 'I' for Inactive)
REMARK    1  A    between atoms: N3_7  and  C5_8 
ROOT
HETATM    1  N1  UNL     1      27.797  -0.020  52.697  1.00  0.00    -0.191 NA
HETATM    2  C1  UNL     1      26.698   0.420  52.611  1.00  0.00     0.101 C 
HETATM    3  C2  UNL     1      25.337   0.973  52.492  1.00  0.00     0.061 C 
HETATM    4  C3  UNL     1      25.101   1.988  51.707  1.00  0.00     0.140 C 
HETATM    5  N2  UNL     1      24.030   2.802  51.297  1.00  0.00    -0.254 NA
HETATM    6  C4  UNL     1      24.114   3.534  50.245  1.00  0.00     0.210 C 
HETATM    7  N3  UNL     1      23.322   4.449  49.525  1.00  0.00    -0.325 N 
HETATM    8  C10 UNL     1      22.874   4.378  48.163  1.00  0.00     0.092 C 
HETATM    9  C11 UNL     1      21.771   3.794  47.663  1.00  0.00     0.016 C 
HETATM   10  C12 UNL     1      20.938   3.156  48.694  1.00  0.00     0.197 C 
HETATM   11  O1  UNL     1      20.883   1.762  48.343  1.00  0.00    -0.379 OA
HETATM   12  C13 UNL     1      21.200   0.832  49.357  1.00  0.00     0.161 C 
HETATM   13  C14 UNL     1      21.058   0.350  50.557  1.00  0.00     0.106 C 
HETATM   14  C15 UNL     1      20.347   0.503  51.826  1.00  0.00     0.379 A 
HETATM   15  O2  UNL     1      19.759   0.584  52.970  1.00  0.00    -0.133 OA
HETATM   16  N4  UNL     1      20.793  -0.452  52.787  1.00  0.00     0.158 N 
HETATM   17  N5  UNL     1      21.214  -1.394  53.775  1.00  0.00    -0.120 NA
HETATM   18  C16 UNL     1      22.226  -0.766  54.641  1.00  0.00     0.148 C 
HETATM   19  C17 UNL     1      23.245  -0.063  53.824  1.00  0.00    -0.009 C 
HETATM   20  C18 UNL     1      24.426   0.219  53.326  1.00  0.00     0.021 C 
HETATM   21  H13 UNL     1      21.519  -1.193  52.509  1.00  0.00     0.346 HD
HETATM   22  H14 UNL     1      20.366  -1.440  54.416  1.00  0.00     0.156 HD
ENDROOT
BRANCH   7  23
HETATM   23  C5  UNL     1      23.160   5.407  50.599  1.00  0.00     0.132 A 
HETATM   24 BR1  UNL     1      21.974   4.524  51.881  1.00  0.00    -0.052 Br
HETATM   25  C6  UNL     1      22.474   6.644  50.157  1.00  0.00     0.021 A 
HETATM   26  C7  UNL     1      23.223   7.687  50.500  1.00  0.00    -0.001 A 
HETATM   27  C8  UNL     1      24.417   7.169  51.174  1.00  0.00    -0.001 A 
HETATM   28  C9  UNL     1      24.396   5.843  51.239  1.00  0.00     0.021 A 
ENDBRANCH   7  23
TORSDOF 1
ENDMDL
MODEL 2
REMARK VINA RESULT:      -7.7      9.181     11.757
REMARK  1 active torsions:
REMARK  status: ('A' for Active; 'I' for Inactive)
REMARK    1  A    between atoms: N3_7  and  C5_8 
ROOT
HETATM    1  N1  UNL     1      33.489   1.930  48.203  1.00  0.00    -0.191 NA
HETATM    2  C1  UNL     1      33.033   2.884  47.664  1.00  0.00     0.101 C 
HETATM    3  C2  UNL     1      32.465   4.074  47.006  1.00  0.00     0.061 C 
HETATM    4  C3  UNL     1      31.672   4.877  47.662  1.00  0.00     0.140 C 
HETATM    5  N2  UNL     1      30.938   6.060  47.462  1.00  0.00    -0.254 NA
HETATM    6  C4  UNL     1      30.502   6.749  48.455  1.00  0.00     0.210 C 
HETATM    7  N3  UNL     1      29.763   7.925  48.685  1.00  0.00    -0.325 N 
HETATM    8  C10 UNL     1      30.156   9.114  49.385  1.00  0.00     0.092 C 
HETATM    9  C11 UNL     1      30.794  10.202  48.918  1.00  0.00     0.016 C 
HETATM   10  C12 UNL     1      31.110  10.113  47.484  1.00  0.00     0.197 C 
HETATM   11  O1  UNL     1      32.542  10.200  47.394  1.00  0.00    -0.379 OA
HETATM   12  C13 UNL     1      33.199   9.201  46.642  1.00  0.00     0.161 C 
HETATM   13  C14 UNL     1      33.354   8.496  45.558  1.00  0.00     0.106 C 
HETATM   14  C15 UNL     1      32.850   8.265  44.205  1.00  0.00     0.379 A 
HETATM   15  O2  UNL     1      32.454   8.010  43.006  1.00  0.00    -0.133 OA
HETATM   16  N4  UNL     1      33.550   7.199  43.568  1.00  0.00     0.158 N 
HETATM   17  N5  UNL     1      34.230   6.135  42.897  1.00  0.00    -0.120 NA
HETATM   18  C16 UNL     1      33.452   4.894  43.048  1.00  0.00     0.148 C 
HETATM   19  C17 UNL     1      33.028   4.714  44.457  1.00  0.00    -0.009 C 
HETATM   20  C18 UNL     1      32.938   4.155  45.642  1.00  0.00     0.021 C 
HETATM   21  H13 UNL     1      34.371   6.721  44.069  1.00  0.00     0.346 HD
HETATM   22  H14 UNL     1      34.071   6.378  41.874  1.00  0.00     0.156 HD
ENDROOT
BRANCH   7  23
HETATM   23  C5  UNL     1      28.558   7.497  48.007  1.00  0.00     0.132 A 
HETATM   24 BR1  UNL     1      28.834   7.996  46.135  1.00  0.00    -0.052 Br
HETATM   25  C6  UNL     1      27.354   8.225  48.475  1.00  0.00     0.021 A 
HETATM   26  C7  UNL     1      26.435   7.335  48.832  1.00  0.00    -0.001 A 
HETATM   27  C8  UNL     1      27.004   6.002  48.612  1.00  0.00    -0.001 A 
HETATM   28  C9  UNL     1      28.239   6.080  48.132  1.00  0.00     0.021 A 
ENDBRANCH   7  23
TORSDOF 1
ENDMDL
MODEL 3
REMARK VINA RESULT:      -7.4     10.190     12.218
REMARK  1 active torsions:
REMARK  status: ('A' for Active; 'I' for Inactive)
REMARK    1  A    between atoms: N3_7  and  C5_8 
ROOT
HETATM    1  N1  UNL     1      33.205   4.058  41.379  1.00  0.00    -0.191 NA
HETATM    2  C1  UNL     1      33.191   4.623  42.423  1.00  0.00     0.101 C 
HETATM    3  C2  UNL     1      33.164   5.332  43.715  1.00  0.00     0.061 C 
HETATM    4  C3  UNL     1      32.602   6.506  43.815  1.00  0.00     0.140 C 
HETATM    5  N2  UNL     1      32.351   7.497  44.780  1.00  0.00    -0.254 NA
HETATM    6  C4  UNL     1      31.475   8.415  44.578  1.00  0.00     0.210 C 
HETATM    7  N3  UNL     1      30.946   9.538  45.243  1.00  0.00    -0.325 N 
HETATM    8  C10 UNL     1      29.591   9.796  45.640  1.00  0.00     0.092 C 
HETATM    9  C11 UNL     1      28.960   9.449  46.776  1.00  0.00     0.016 C 
HETATM   10  C12 UNL     1      29.820   8.707  47.710  1.00  0.00     0.197 C 
HETATM   11  O1  UNL     1      29.186   7.429  47.893  1.00  0.00    -0.379 OA
HETATM   12  C13 UNL     1      29.990   6.283  47.713  1.00  0.00     0.161 C 
HETATM   13  C14 UNL     1      31.061   5.583  47.953  1.00  0.00     0.106 C 
HETATM   14  C15 UNL     1      32.320   5.549  48.695  1.00  0.00     0.379 A 
HETATM   15  O2  UNL     1      33.445   5.458  49.319  1.00  0.00    -0.133 OA
HETATM   16  N4  UNL     1      33.071   4.376  48.389  1.00  0.00     0.158 N 
HETATM   17  N5  UNL     1      33.850   3.211  48.106  1.00  0.00    -0.120 NA
HETATM   18  C16 UNL     1      34.845   3.537  47.072  1.00  0.00     0.148 C 
HETATM   19  C17 UNL     1      34.212   4.278  45.955  1.00  0.00    -0.009 C 
HETATM   20  C18 UNL     1      33.806   4.526  44.732  1.00  0.00     0.021 C 
HETATM   21  H13 UNL     1      32.659   3.633  47.731  1.00  0.00     0.346 HD
HETATM   22  H14 UNL     1      34.450   3.127  48.980  1.00  0.00     0.156 HD
ENDROOT
BRANCH   7  23
HETATM   23  C5  UNL     1      32.192  10.267  45.350  1.00  0.00     0.132 A 
HETATM   24 BR1  UNL     1      32.789  10.509  43.502  1.00  0.00    -0.052 Br
HETATM   25  C6  UNL     1      33.246   9.491  46.046  1.00  0.00     0.021 A 
HETATM   26  C7  UNL     1      33.728  10.231  47.039  1.00  0.00    -0.001 A 
HETATM   27  C8  UNL     1      33.009  11.508  47.026  1.00  0.00    -0.001 A 
HETATM   28  C9  UNL     1      32.111  11.545  46.049  1.00  0.00     0.021 A 
ENDBRANCH   7  23
TORSDOF 1
ENDMDL
MODEL 4
REMARK VINA RESULT:      -7.3      9.245     12.195
REMARK  1 active torsions:
REMARK  status: ('A' for Active; 'I' for Inactive)
REMARK    1  A    between atoms: N3_7  and  C5_8 
ROOT
HETATM    1  N1  UNL     1      35.436   5.674  49.212  1.00  0.00    -0.191 NA
HETATM    2  C1  UNL     1      34.588   6.205  48.573  1.00  0.00     0.101 C 
HETATM    3  C2  UNL     1      33.529   6.867  47.790  1.00  0.00     0.061 C 
HETATM    4  C3  UNL     1      32.332   7.016  48.290  1.00  0.00     0.140 C 
HETATM    5  N2  UNL     1      31.081   7.551  47.937  1.00  0.00    -0.254 NA
HETATM    6  C4  UNL     1      30.188   7.799  48.826  1.00  0.00     0.210 C 
HETATM    7  N3  UNL     1      28.875   8.304  48.897  1.00  0.00    -0.325 N 
HETATM    8  C10 UNL     1      28.389   9.458  49.597  1.00  0.00     0.092 C 
HETATM    9  C11 UNL     1      28.324  10.736  49.182  1.00  0.00     0.016 C 
HETATM   10  C12 UNL     1      28.831  10.924  47.814  1.00  0.00     0.197 C 
HETATM   11  O1  UNL     1      29.933  11.840  47.929  1.00  0.00    -0.379 OA
HETATM   12  C13 UNL     1      31.150  11.458  47.322  1.00  0.00     0.161 C 
HETATM   13  C14 UNL     1      31.841  11.036  46.303  1.00  0.00     0.106 C 
HETATM   14  C15 UNL     1      31.768  10.624  44.902  1.00  0.00     0.379 A 
HETATM   15  O2  UNL     1      31.772  10.248  43.669  1.00  0.00    -0.133 OA
HETATM   16  N4  UNL     1      33.043  10.207  44.418  1.00  0.00     0.158 N 
HETATM   17  N5  UNL     1      34.304   9.782  43.898  1.00  0.00    -0.120 NA
HETATM   18  C16 UNL     1      34.393   8.315  43.986  1.00  0.00     0.148 C 
HETATM   19  C17 UNL     1      33.962   7.847  45.325  1.00  0.00    -0.009 C 
HETATM   20  C18 UNL     1      34.052   7.281  46.507  1.00  0.00     0.021 C 
HETATM   21  H13 UNL     1      33.906  10.277  45.053  1.00  0.00     0.346 HD
HETATM   22  H14 UNL     1      34.180   9.938  42.854  1.00  0.00     0.156 HD
ENDROOT
BRANCH   7  23
HETATM   23  C5  UNL     1      28.263   7.285  48.070  1.00  0.00     0.132 A 
HETATM   24 BR1  UNL     1      28.506   7.920  46.235  1.00  0.00    -0.052 Br
HETATM   25  C6  UNL     1      26.803   7.171  48.298  1.00  0.00     0.021 A 
HETATM   26  C7  UNL     1      26.515   5.902  48.566  1.00  0.00    -0.001 A 
HETATM   27  C8  UNL     1      27.772   5.148  48.523  1.00  0.00    -0.001 A 
HETATM   28  C9  UNL     1      28.798   5.939  48.236  1.00  0.00     0.021 A 
ENDBRANCH   7  23
TORSDOF 1
ENDMDL
MODEL 5
REMARK VINA RESULT:      -7.3      2.229      3.470
REMARK  1 active torsions:
REMARK  status: ('A' for Active; 'I' for Inactive)
REMARK    1  A    between atoms: N3_7  and  C5_8 
ROOT
HETATM    1  N1  UNL     1      28.321   4.786  48.430  1.00  0.00    -0.191 NA
HETATM    2  C1  UNL     1      27.258   4.615  48.928  1.00  0.00     0.101 C 
HETATM    3  C2  UNL     1      25.931   4.405  49.537  1.00  0.00     0.061 C 
HETATM    4  C3  UNL     1      24.881   5.018  49.061  1.00  0.00     0.140 C 
HETATM    5  N2  UNL     1      23.499   5.121  49.300  1.00  0.00    -0.254 NA
HETATM    6  C4  UNL     1      22.704   5.598  48.411  1.00  0.00     0.210 C 
HETATM    7  N3  UNL     1      21.331   5.866  48.254  1.00  0.00    -0.325 N 
HETATM    8  C10 UNL     1      20.415   5.342  47.281  1.00  0.00     0.092 C 
HETATM    9  C11 UNL     1      19.680   4.216  47.328  1.00  0.00     0.016 C 
HETATM   10  C12 UNL     1      19.874   3.453  48.570  1.00  0.00     0.197 C 
HETATM   11  O1  UNL     1      20.382   2.170  48.164  1.00  0.00    -0.379 OA
HETATM   12  C13 UNL     1      21.553   1.712  48.806  1.00  0.00     0.161 C 
HETATM   13  C14 UNL     1      22.247   1.447  49.875  1.00  0.00     0.106 C 
HETATM   14  C15 UNL     1      22.236   1.462  51.337  1.00  0.00     0.379 A 
HETATM   15  O2  UNL     1      22.292   1.453  52.625  1.00  0.00    -0.133 OA
HETATM   16  N4  UNL     1      23.488   1.035  51.869  1.00  0.00     0.158 N 
HETATM   17  N5  UNL     1      24.729   0.612  52.437  1.00  0.00    -0.120 NA
HETATM   18  C16 UNL     1      25.543   1.797  52.756  1.00  0.00     0.148 C 
HETATM   19  C17 UNL     1      25.550   2.745  51.616  1.00  0.00    -0.009 C 
HETATM   20  C18 UNL     1      26.036   3.469  50.635  1.00  0.00     0.021 C 
HETATM   21  H13 UNL     1      24.266   0.703  51.207  1.00  0.00     0.346 HD
HETATM   22  H14 UNL     1      24.430   0.278  53.402  1.00  0.00     0.156 HD
ENDROOT
BRANCH   7  23
HETATM   23  C5  UNL     1      21.219   6.801  49.353  1.00  0.00     0.132 A 
HETATM   24 BR1  UNL     1      21.390   5.701  50.963  1.00  0.00    -0.052 Br
HETATM   25  C6  UNL     1      19.887   7.449  49.413  1.00  0.00     0.021 A 
HETATM   26  C7  UNL     1      20.060   8.767  49.444  1.00  0.00    -0.001 A 
HETATM   27  C8  UNL     1      21.504   9.021  49.406  1.00  0.00    -0.001 A 
HETATM   28  C9  UNL     1      22.191   7.887  49.352  1.00  0.00     0.021 A 
ENDBRANCH   7  23
TORSDOF 1
ENDMDL
MODEL 6
REMARK VINA RESULT:      -7.1      3.100      7.377
REMARK  1 active torsions:
REMARK  status: ('A' for Active; 'I' for Inactive)
REMARK    1  A    between atoms: N3_7  and  C5_8 
ROOT
HETATM    1  N1  UNL     1      21.297   3.615  44.440  1.00  0.00    -0.191 NA
HETATM    2  C1  UNL     1      21.718   3.959  45.495  1.00  0.00     0.101 C 
HETATM    3  C2  UNL     1      22.244   4.374  46.809  1.00  0.00     0.061 C 
HETATM    4  C3  UNL     1      22.275   3.531  47.805  1.00  0.00     0.140 C 
HETATM    5  N2  UNL     1      22.664   3.480  49.156  1.00  0.00    -0.254 NA
HETATM    6  C4  UNL     1      22.836   2.358  49.756  1.00  0.00     0.210 C 
HETATM    7  N3  UNL     1      23.199   1.885  51.032  1.00  0.00    -0.325 N 
HETATM    8  C10 UNL     1      24.311   1.058  51.405  1.00  0.00     0.092 C 
HETATM    9  C11 UNL     1      25.564   1.421  51.733  1.00  0.00     0.016 C 
HETATM   10  C12 UNL     1      25.772   2.877  51.691  1.00  0.00     0.197 C 
HETATM   11  O1  UNL     1      26.804   3.095  50.714  1.00  0.00    -0.379 OA
HETATM   12  C13 UNL     1      26.540   4.048  49.706  1.00  0.00     0.161 C 
HETATM   13  C14 UNL     1      26.170   5.234  49.316  1.00  0.00     0.106 C 
HETATM   14  C15 UNL     1      25.719   6.549  49.766  1.00  0.00     0.379 A 
HETATM   15  O2  UNL     1      25.315   7.728  50.096  1.00  0.00    -0.133 OA
HETATM   16  N4  UNL     1      25.430   7.404  48.662  1.00  0.00     0.158 N 
HETATM   17  N5  UNL     1      25.130   8.288  47.580  1.00  0.00    -0.120 NA
HETATM   18  C16 UNL     1      23.683   8.246  47.309  1.00  0.00     0.148 C 
HETATM   19  C17 UNL     1      23.204   6.844  47.257  1.00  0.00    -0.009 C 
HETATM   20  C18 UNL     1      22.681   5.752  46.751  1.00  0.00     0.021 C 
HETATM   21  H13 UNL     1      25.608   7.062  47.660  1.00  0.00     0.346 HD
HETATM   22  H14 UNL     1      25.247   9.243  48.033  1.00  0.00     0.156 HD
ENDROOT
BRANCH   7  23
HETATM   23  C5  UNL     1      22.101   2.495  51.751  1.00  0.00     0.132 A 
HETATM   24 BR1  UNL     1      22.723   4.303  52.171  1.00  0.00    -0.052 Br
HETATM   25  C6  UNL     1      21.825   1.823  53.044  1.00  0.00     0.021 A 
HETATM   26  C7  UNL     1      20.536   1.500  53.085  1.00  0.00    -0.001 A 
HETATM   27  C8  UNL     1      19.930   1.948  51.827  1.00  0.00    -0.001 A 
HETATM   28  C9  UNL     1      20.828   2.529  51.040  1.00  0.00     0.021 A 
ENDBRANCH   7  23
TORSDOF 1
ENDMDL
MODEL 7
REMARK VINA RESULT:      -7.1      8.834     11.157
REMARK  1 active torsions:
REMARK  status: ('A' for Active; 'I' for Inactive)
REMARK    1  A    between atoms: N3_7  and  C5_8 
ROOT
HETATM    1  N1  UNL     1      32.754   6.586  41.882  1.00  0.00    -0.191 NA
HETATM    2  C1  UNL     1      32.534   6.841  43.020  1.00  0.00     0.101 C 
HETATM    3  C2  UNL     1      32.249   7.161  44.431  1.00  0.00     0.061 C 
HETATM    4  C3  UNL     1      31.327   8.031  44.738  1.00  0.00     0.140 C 
HETATM    5  N2  UNL     1      30.742   8.620  45.874  1.00  0.00    -0.254 NA
HETATM    6  C4  UNL     1      29.614   9.230  45.801  1.00  0.00     0.210 C 
HETATM    7  N3  UNL     1      28.729   9.925  46.648  1.00  0.00    -0.325 N 
HETATM    8  C10 UNL     1      27.359   9.630  46.957  1.00  0.00     0.092 C 
HETATM    9  C11 UNL     1      26.859   8.831  47.916  1.00  0.00     0.016 C 
HETATM   10  C12 UNL     1      27.900   8.195  48.738  1.00  0.00     0.197 C 
HETATM   11  O1  UNL     1      27.725   6.779  48.562  1.00  0.00    -0.379 OA
HETATM   12  C13 UNL     1      28.869   6.031  48.207  1.00  0.00     0.161 C 
HETATM   13  C14 UNL     1      30.108   5.673  48.386  1.00  0.00     0.106 C 
HETATM   14  C15 UNL     1      31.293   5.861  49.222  1.00  0.00     0.379 A 
HETATM   15  O2  UNL     1      32.372   5.981  49.916  1.00  0.00    -0.133 OA
HETATM   16  N4  UNL     1      32.396   5.102  48.732  1.00  0.00     0.158 N 
HETATM   17  N5  UNL     1      33.524   4.355  48.271  1.00  0.00    -0.120 NA
HETATM   18  C16 UNL     1      34.373   5.226  47.441  1.00  0.00     0.148 C 
HETATM   19  C17 UNL     1      33.549   5.978  46.464  1.00  0.00    -0.009 C 
HETATM   20  C18 UNL     1      33.104   6.377  45.296  1.00  0.00     0.021 C 
HETATM   21  H13 UNL     1      32.268   4.453  47.886  1.00  0.00     0.346 HD
HETATM   22  H14 UNL     1      34.103   4.254  49.157  1.00  0.00     0.156 HD
ENDROOT
BRANCH   7  23
HETATM   23  C5  UNL     1      29.658  10.963  47.040  1.00  0.00     0.132 A 
HETATM   24 BR1  UNL     1      30.361  11.667  45.355  1.00  0.00    -0.052 Br
HETATM   25  C6  UNL     1      30.814  10.432  47.801  1.00  0.00     0.021 A 
HETATM   26  C7  UNL     1      30.917  11.110  48.939  1.00  0.00    -0.001 A 
HETATM   27  C8  UNL     1      29.838  12.102  48.960  1.00  0.00    -0.001 A 
HETATM   28  C9  UNL     1      29.096  12.028  47.862  1.00  0.00     0.021 A 
ENDBRANCH   7  23
TORSDOF 1
ENDMDL
MODEL 8
REMARK VINA RESULT:      -7.0      7.881     10.685
REMARK  1 active torsions:
REMARK  status: ('A' for Active; 'I' for Inactive)
REMARK    1  A    between atoms: N3_7  and  C5_8 
ROOT
HETATM    1  N1  UNL     1      26.020   4.300  49.440  1.00  0.00    -0.191 NA
HETATM    2  C1  UNL     1      26.789   5.055  48.943  1.00  0.00     0.101 C 
HETATM    3  C2  UNL     1      27.736   6.004  48.329  1.00  0.00     0.061 C 
HETATM    4  C3  UNL     1      27.360   7.218  48.036  1.00  0.00     0.140 C 
HETATM    5  N2  UNL     1      27.882   8.398  47.476  1.00  0.00    -0.254 NA
HETATM    6  C4  UNL     1      27.289   9.527  47.629  1.00  0.00     0.210 C 
HETATM    7  N3  UNL     1      27.460  10.873  47.253  1.00  0.00    -0.325 N 
HETATM    8  C10 UNL     1      27.614  12.030  48.087  1.00  0.00     0.092 C 
HETATM    9  C11 UNL     1      28.736  12.555  48.611  1.00  0.00     0.016 C 
HETATM   10  C12 UNL     1      29.948  11.803  48.247  1.00  0.00     0.197 C 
HETATM   11  O1  UNL     1      30.514  11.353  49.490  1.00  0.00    -0.379 OA
HETATM   12  C13 UNL     1      30.828   9.980  49.591  1.00  0.00     0.161 C 
HETATM   13  C14 UNL     1      31.397   8.897  49.146  1.00  0.00     0.106 C 
HETATM   14  C15 UNL     1      32.214   8.336  48.071  1.00  0.00     0.379 A 
HETATM   15  O2  UNL     1      32.929   7.778  47.155  1.00  0.00    -0.133 OA
HETATM   16  N4  UNL     1      32.415   6.936  48.251  1.00  0.00     0.158 N 
HETATM   17  N5  UNL     1      32.637   5.531  48.399  1.00  0.00    -0.120 NA
HETATM   18  C16 UNL     1      31.650   4.799  47.589  1.00  0.00     0.148 C 
HETATM   19  C17 UNL     1      30.289   5.347  47.805  1.00  0.00    -0.009 C 
HETATM   20  C18 UNL     1      29.027   5.371  48.162  1.00  0.00     0.021 C 
HETATM   21  H13 UNL     1      32.030   6.447  49.126  1.00  0.00     0.346 HD
HETATM   22  H14 UNL     1      33.534   5.388  47.845  1.00  0.00     0.156 HD
ENDROOT
BRANCH   7  23
HETATM   23  C5  UNL     1      27.413  10.650  45.823  1.00  0.00     0.132 A 
HETATM   24 BR1  UNL     1      25.741   9.678  45.524  1.00  0.00    -0.052 Br
HETATM   25  C6  UNL     1      28.512   9.775  45.349  1.00  0.00     0.021 A 
HETATM   26  C7  UNL     1      29.147  10.395  44.360  1.00  0.00    -0.001 A 
HETATM   27  C8  UNL     1      28.489  11.689  44.155  1.00  0.00    -0.001 A 
HETATM   28  C9  UNL     1      27.477  11.852  45.000  1.00  0.00     0.021 A 
ENDBRANCH   7  23
TORSDOF 1
ENDMDL
MODEL 9
REMARK VINA RESULT:      -6.9     10.136     13.040
REMARK  1 active torsions:
REMARK  status: ('A' for Active; 'I' for Inactive)
REMARK    1  A    between atoms: N3_7  and  C5_8 
ROOT
HETATM    1  N1  UNL     1      26.776   7.279  48.800  1.00  0.00    -0.191 NA
HETATM    2  C1  UNL     1      27.899   7.564  48.539  1.00  0.00     0.101 C 
HETATM    3  C2  UNL     1      29.293   7.909  48.206  1.00  0.00     0.061 C 
HETATM    4  C3  UNL     1      30.049   7.060  47.564  1.00  0.00     0.140 C 
HETATM    5  N2  UNL     1      31.358   6.957  47.060  1.00  0.00    -0.254 NA
HETATM    6  C4  UNL     1      31.667   6.066  46.188  1.00  0.00     0.210 C 
HETATM    7  N3  UNL     1      32.798   5.638  45.466  1.00  0.00    -0.325 N 
HETATM    8  C10 UNL     1      32.995   5.589  44.046  1.00  0.00     0.092 C 
HETATM    9  C11 UNL     1      33.449   6.549  43.219  1.00  0.00     0.016 C 
HETATM   10  C12 UNL     1      33.778   7.802  43.916  1.00  0.00     0.197 C 
HETATM   11  O1  UNL     1      32.924   8.804  43.339  1.00  0.00    -0.379 OA
HETATM   12  C13 UNL     1      32.176   9.601  44.233  1.00  0.00     0.161 C 
HETATM   13  C14 UNL     1      32.079  10.375  45.275  1.00  0.00     0.106 C 
HETATM   14  C15 UNL     1      32.826  11.016  46.356  1.00  0.00     0.379 A 
HETATM   15  O2  UNL     1      33.423  11.607  47.334  1.00  0.00    -0.133 OA
HETATM   16  N4  UNL     1      31.958  11.742  47.225  1.00  0.00     0.158 N 
HETATM   17  N5  UNL     1      31.119  12.481  48.116  1.00  0.00    -0.120 NA
HETATM   18  C16 UNL     1      30.792  11.639  49.279  1.00  0.00     0.148 C 
HETATM   19  C17 UNL     1      30.376  10.285  48.841  1.00  0.00    -0.009 C 
HETATM   20  C18 UNL     1      29.595   9.243  48.677  1.00  0.00     0.021 C 
HETATM   21  H13 UNL     1      30.910  11.808  47.002  1.00  0.00     0.346 HD
HETATM   22  H14 UNL     1      31.800  13.185  48.531  1.00  0.00     0.156 HD
ENDROOT
BRANCH   7  23
HETATM   23  C5  UNL     1      33.605   5.290  46.616  1.00  0.00     0.132 A 
HETATM   24 BR1  UNL     1      34.208   7.004  47.341  1.00  0.00    -0.052 Br
HETATM   25  C6  UNL     1      34.820   4.526  46.246  1.00  0.00     0.021 A 
HETATM   26  C7  UNL     1      34.855   3.411  46.968  1.00  0.00    -0.001 A 
HETATM   27  C8  UNL     1      33.668   3.408  47.829  1.00  0.00    -0.001 A 
HETATM   28  C9  UNL     1      32.931   4.495  47.636  1.00  0.00     0.021 A 
ENDBRANCH   7  23
TORSDOF 1
ENDMDL
