MODEL 1
REMARK VINA RESULT:      -8.9      0.000      0.000
REMARK  5 active torsions:
REMARK  status: ('A' for Active; 'I' for Inactive)
REMARK    1  A    between atoms: C7_7  and  N1_8 
REMARK    2  A    between atoms: N1_8  and  C8_9 
REMARK    3  A    between atoms: C11_16  and  C12_17 
REMARK    4  A    between atoms: C12_17  and  N5_18 
REMARK    5  A    between atoms: C15_21  and  N6_22 
ROOT
HETATM    1  C8  UNL     1      24.797  -0.193  53.757  1.00  0.00     0.159 A 
HETATM    2  N2  UNL     1      25.179  -0.921  54.779  1.00  0.00    -0.220 NA
HETATM    3  C9  UNL     1      24.257  -1.527  55.669  1.00  0.00     0.258 A 
HETATM    4  N3  UNL     1      23.007  -1.342  55.442  1.00  0.00    -0.160 NA
HETATM    5  N4  UNL     1      22.547  -0.580  54.370  1.00  0.00    -0.234 N 
HETATM    6  C10 UNL     1      21.131  -0.407  54.163  1.00  0.00     0.155 A 
HETATM    7  S1  UNL     1      21.028   0.636  52.674  1.00  0.00    -0.155 SA
HETATM    8  C11 UNL     1      22.869   0.748  52.459  1.00  0.00     0.021 A 
HETATM    9  C18 UNL     1      23.387   0.053  53.444  1.00  0.00     0.118 A 
HETATM   10  H11 UNL     1      20.023   0.502  51.772  1.00  0.00     0.102 HD
ENDROOT
BRANCH   8  11
HETATM   11  C12 UNL     1      23.384   1.483  51.310  1.00  0.00     0.164 C 
BRANCH  11  12
HETATM   12  N5  UNL     1      23.900   2.736  51.696  1.00  0.00    -0.408 N 
HETATM   13  C13 UNL     1      25.035   3.280  51.097  1.00  0.00     0.119 C 
HETATM   14  C14 UNL     1      24.776   4.672  50.609  1.00  0.00     0.055 C 
HETATM   15  C15 UNL     1      23.809   5.376  51.538  1.00  0.00     0.221 C 
HETATM   16  C16 UNL     1      23.766   4.785  52.926  1.00  0.00     0.055 C 
HETATM   17  C17 UNL     1      23.582   3.284  52.948  1.00  0.00     0.119 C 
BRANCH  15  18
HETATM   18  N6  UNL     1      24.206   6.771  51.673  1.00  0.00     0.083 N 
HETATM   19  H19 UNL     1      25.223   6.826  51.436  1.00  0.00     0.313 HD
HETATM   20  H20 UNL     1      24.061   7.140  52.637  1.00  0.00     0.313 HD
ENDBRANCH  15  18
ENDBRANCH  11  12
ENDBRANCH   8  11
BRANCH   1  21
HETATM   21  N1  UNL     1      25.872   0.329  52.985  1.00  0.00    -0.339 N 
HETATM   22  H8  UNL     1      25.490   1.016  52.272  1.00  0.00     0.167 HD
BRANCH  21  23
HETATM   23  C7  UNL     1      27.257  -0.055  53.191  1.00  0.00     0.039 A 
HETATM   24  C2  UNL     1      28.274   0.805  53.493  1.00  0.00    -0.035 A 
HETATM   25  C1  UNL     1      27.962   2.254  53.673  1.00  0.00     0.050 C 
HETATM   26  C3  UNL     1      29.571   0.396  53.646  1.00  0.00     0.009 A 
HETATM   27  C4  UNL     1      29.914  -0.927  53.497  1.00  0.00     0.001 A 
HETATM   28  C5  UNL     1      28.915  -1.810  53.196  1.00  0.00     0.002 A 
HETATM   29  C6  UNL     1      27.648  -1.365  53.054  1.00  0.00     0.030 A 
ENDBRANCH  21  23
ENDBRANCH   1  21
TORSDOF 5
ENDMDL
MODEL 2
REMARK VINA RESULT:      -8.8      1.434      1.806
REMARK  5 active torsions:
REMARK  status: ('A' for Active; 'I' for Inactive)
REMARK    1  A    between atoms: C7_7  and  N1_8 
REMARK    2  A    between atoms: N1_8  and  C8_9 
REMARK    3  A    between atoms: C11_16  and  C12_17 
REMARK    4  A    between atoms: C12_17  and  N5_18 
REMARK    5  A    between atoms: C15_21  and  N6_22 
ROOT
HETATM    1  C8  UNL     1      23.414  -0.234  53.270  1.00  0.00     0.159 A 
HETATM    2  N2  UNL     1      23.739  -0.826  54.394  1.00  0.00    -0.220 NA
HETATM    3  C9  UNL     1      22.771  -1.356  55.283  1.00  0.00     0.258 A 
HETATM    4  N3  UNL     1      21.537  -1.241  54.951  1.00  0.00    -0.160 NA
HETATM    5  N4  UNL     1      21.136  -0.624  53.768  1.00  0.00    -0.234 N 
HETATM    6  C10 UNL     1      19.735  -0.525  53.444  1.00  0.00     0.155 A 
HETATM    7  S1  UNL     1      19.713   0.335  51.840  1.00  0.00    -0.155 SA
HETATM    8  C11 UNL     1      21.561   0.484  51.741  1.00  0.00     0.021 A 
HETATM    9  C18 UNL     1      22.024  -0.074  52.834  1.00  0.00     0.118 A 
HETATM   10  H11 UNL     1      18.780   0.064  50.893  1.00  0.00     0.102 HD
ENDROOT
BRANCH   8  11
HETATM   11  C12 UNL     1      22.140   1.098  50.551  1.00  0.00     0.164 C 
BRANCH  11  12
HETATM   12  N5  UNL     1      22.560   2.418  50.812  1.00  0.00    -0.408 N 
HETATM   13  C13 UNL     1      21.649   3.443  51.058  1.00  0.00     0.119 C 
HETATM   14  C14 UNL     1      21.976   4.166  52.330  1.00  0.00     0.055 C 
HETATM   15  C15 UNL     1      23.476   4.210  52.529  1.00  0.00     0.221 C 
HETATM   16  C16 UNL     1      24.262   4.043  51.252  1.00  0.00     0.055 C 
HETATM   17  C17 UNL     1      23.836   2.851  50.423  1.00  0.00     0.119 C 
BRANCH  15  18
HETATM   18  N6  UNL     1      23.845   5.501  53.097  1.00  0.00     0.083 N 
HETATM   19  H19 UNL     1      24.783   5.752  52.709  1.00  0.00     0.313 HD
HETATM   20  H20 UNL     1      23.901   5.483  54.138  1.00  0.00     0.313 HD
ENDBRANCH  15  18
ENDBRANCH  11  12
ENDBRANCH   8  11
BRANCH   1  21
HETATM   21  N1  UNL     1      24.528   0.232  52.518  1.00  0.00    -0.339 N 
HETATM   22  H8  UNL     1      24.180   0.802  51.693  1.00  0.00     0.167 HD
BRANCH  21  23
HETATM   23  C7  UNL     1      25.905  -0.059  52.876  1.00  0.00     0.039 A 
HETATM   24  C2  UNL     1      26.758   0.813  53.490  1.00  0.00    -0.035 A 
HETATM   25  C1  UNL     1      26.253   2.165  53.872  1.00  0.00     0.050 C 
HETATM   26  C3  UNL     1      28.059   0.500  53.777  1.00  0.00     0.009 A 
HETATM   27  C4  UNL     1      28.575  -0.732  53.453  1.00  0.00     0.001 A 
HETATM   28  C5  UNL     1      27.743  -1.625  52.839  1.00  0.00     0.002 A 
HETATM   29  C6  UNL     1      26.465  -1.277  52.573  1.00  0.00     0.030 A 
ENDBRANCH  21  23
ENDBRANCH   1  21
TORSDOF 5
ENDMDL
MODEL 3
REMARK VINA RESULT:      -8.4      2.144      5.094
REMARK  5 active torsions:
REMARK  status: ('A' for Active; 'I' for Inactive)
REMARK    1  A    between atoms: C7_7  and  N1_8 
REMARK    2  A    between atoms: N1_8  and  C8_9 
REMARK    3  A    between atoms: C11_16  and  C12_17 
REMARK    4  A    between atoms: C12_17  and  N5_18 
REMARK    5  A    between atoms: C15_21  and  N6_22 
ROOT
HETATM    1  C8  UNL     1      26.060   2.756  50.770  1.00  0.00     0.159 A 
HETATM    2  N2  UNL     1      26.873   3.180  49.833  1.00  0.00    -0.220 NA
HETATM    3  C9  UNL     1      26.723   4.444  49.210  1.00  0.00     0.258 A 
HETATM    4  N3  UNL     1      25.747   5.182  49.597  1.00  0.00    -0.160 NA
HETATM    5  N4  UNL     1      24.855   4.782  50.589  1.00  0.00    -0.234 N 
HETATM    6  C10 UNL     1      23.777   5.654  50.986  1.00  0.00     0.155 A 
HETATM    7  S1  UNL     1      22.908   4.717  52.282  1.00  0.00    -0.155 SA
HETATM    8  C11 UNL     1      24.050   3.257  52.184  1.00  0.00     0.021 A 
HETATM    9  C18 UNL     1      24.930   3.552  51.256  1.00  0.00     0.118 A 
HETATM   10  H11 UNL     1      22.322   5.332  53.340  1.00  0.00     0.102 HD
ENDROOT
BRANCH   8  11
HETATM   11  C12 UNL     1      23.829   2.147  53.104  1.00  0.00     0.164 C 
BRANCH  11  12
HETATM   12  N5  UNL     1      22.753   1.341  52.680  1.00  0.00    -0.408 N 
HETATM   13  C13 UNL     1      22.095   0.476  53.551  1.00  0.00     0.119 C 
HETATM   14  C14 UNL     1      20.614   0.702  53.525  1.00  0.00     0.055 C 
HETATM   15  C15 UNL     1      20.176   1.101  52.132  1.00  0.00     0.221 C 
HETATM   16  C16 UNL     1      21.134   0.670  51.049  1.00  0.00     0.055 C 
HETATM   17  C17 UNL     1      22.574   1.047  51.320  1.00  0.00     0.119 C 
BRANCH  15  18
HETATM   18  N6  UNL     1      18.888   0.483  51.841  1.00  0.00     0.083 N 
HETATM   19  H19 UNL     1      18.576  -0.003  52.713  1.00  0.00     0.313 HD
HETATM   20  H20 UNL     1      18.940  -0.211  51.065  1.00  0.00     0.313 HD
ENDBRANCH  15  18
ENDBRANCH  11  12
ENDBRANCH   8  11
BRANCH   1  21
HETATM   21  N1  UNL     1      26.376   1.462  51.268  1.00  0.00    -0.339 N 
HETATM   22  H8  UNL     1      25.848   0.732  50.708  1.00  0.00     0.167 HD
BRANCH  21  23
HETATM   23  C7  UNL     1      27.290   1.238  52.373  1.00  0.00     0.039 A 
HETATM   24  C2  UNL     1      27.508   0.035  52.983  1.00  0.00    -0.035 A 
HETATM   25  C1  UNL     1      26.793  -1.172  52.468  1.00  0.00     0.050 C 
HETATM   26  C3  UNL     1      28.358  -0.118  54.044  1.00  0.00     0.009 A 
HETATM   27  C4  UNL     1      29.045   0.958  54.555  1.00  0.00     0.001 A 
HETATM   28  C5  UNL     1      28.848   2.174  53.964  1.00  0.00     0.002 A 
HETATM   29  C6  UNL     1      28.000   2.281  52.918  1.00  0.00     0.030 A 
ENDBRANCH  21  23
ENDBRANCH   1  21
TORSDOF 5
ENDMDL
MODEL 4
REMARK VINA RESULT:      -8.3      2.420      6.174
REMARK  5 active torsions:
REMARK  status: ('A' for Active; 'I' for Inactive)
REMARK    1  A    between atoms: C7_7  and  N1_8 
REMARK    2  A    between atoms: N1_8  and  C8_9 
REMARK    3  A    between atoms: C11_16  and  C12_17 
REMARK    4  A    between atoms: C12_17  and  N5_18 
REMARK    5  A    between atoms: C15_21  and  N6_22 
ROOT
HETATM    1  C8  UNL     1      23.190   4.226  50.806  1.00  0.00     0.159 A 
HETATM    2  N2  UNL     1      22.444   4.717  49.845  1.00  0.00    -0.220 NA
HETATM    3  C9  UNL     1      21.291   4.051  49.361  1.00  0.00     0.258 A 
HETATM    4  N3  UNL     1      20.986   2.927  49.901  1.00  0.00    -0.160 NA
HETATM    5  N4  UNL     1      21.741   2.362  50.926  1.00  0.00    -0.234 N 
HETATM    6  C10 UNL     1      21.351   1.097  51.497  1.00  0.00     0.155 A 
HETATM    7  S1  UNL     1      22.612   0.780  52.770  1.00  0.00    -0.155 SA
HETATM    8  C11 UNL     1      23.543   2.351  52.434  1.00  0.00     0.021 A 
HETATM    9  C18 UNL     1      22.893   2.951  51.464  1.00  0.00     0.118 A 
HETATM   10  H11 UNL     1      22.317   0.141  53.930  1.00  0.00     0.102 HD
ENDROOT
BRANCH   8  11
HETATM   11  C12 UNL     1      24.707   2.653  53.259  1.00  0.00     0.164 C 
BRANCH  11  12
HETATM   12  N5  UNL     1      25.686   1.646  53.146  1.00  0.00    -0.408 N 
HETATM   13  C13 UNL     1      26.463   1.252  54.233  1.00  0.00     0.119 C 
HETATM   14  C14 UNL     1      26.411  -0.233  54.427  1.00  0.00     0.055 C 
HETATM   15  C15 UNL     1      26.299  -0.927  53.086  1.00  0.00     0.221 C 
HETATM   16  C16 UNL     1      26.794  -0.093  51.930  1.00  0.00     0.055 C 
HETATM   17  C17 UNL     1      26.219   1.305  51.894  1.00  0.00     0.119 C 
BRANCH  15  18
HETATM   18  N6  UNL     1      27.097  -2.147  53.112  1.00  0.00     0.083 N 
HETATM   19  H19 UNL     1      26.430  -2.952  53.065  1.00  0.00     0.313 HD
HETATM   20  H20 UNL     1      27.674  -2.233  53.976  1.00  0.00     0.313 HD
ENDBRANCH  15  18
ENDBRANCH  11  12
ENDBRANCH   8  11
BRANCH   1  21
HETATM   21  N1  UNL     1      24.303   5.042  51.149  1.00  0.00    -0.339 N 
HETATM   22  H8  UNL     1      24.180   5.405  52.138  1.00  0.00     0.167 HD
BRANCH  21  23
HETATM   23  C7  UNL     1      25.408   5.300  50.243  1.00  0.00     0.039 A 
HETATM   24  C2  UNL     1      25.753   6.528  49.753  1.00  0.00    -0.035 A 
HETATM   25  C1  UNL     1      24.976   7.724  50.197  1.00  0.00     0.050 C 
HETATM   26  C3  UNL     1      26.785   6.713  48.874  1.00  0.00     0.009 A 
HETATM   27  C4  UNL     1      27.537   5.648  48.436  1.00  0.00     0.001 A 
HETATM   28  C5  UNL     1      27.215   4.408  48.911  1.00  0.00     0.002 A 
HETATM   29  C6  UNL     1      26.188   4.268  49.778  1.00  0.00     0.030 A 
ENDBRANCH  21  23
ENDBRANCH   1  21
TORSDOF 5
ENDMDL
MODEL 5
REMARK VINA RESULT:      -7.9      2.262      6.106
REMARK  5 active torsions:
REMARK  status: ('A' for Active; 'I' for Inactive)
REMARK    1  A    between atoms: C7_7  and  N1_8 
REMARK    2  A    between atoms: N1_8  and  C8_9 
REMARK    3  A    between atoms: C11_16  and  C12_17 
REMARK    4  A    between atoms: C12_17  and  N5_18 
REMARK    5  A    between atoms: C15_21  and  N6_22 
ROOT
HETATM    1  C8  UNL     1      23.700   2.474  49.975  1.00  0.00     0.159 A 
HETATM    2  N2  UNL     1      23.097   2.496  48.811  1.00  0.00    -0.220 NA
HETATM    3  C9  UNL     1      21.904   1.774  48.559  1.00  0.00     0.258 A 
HETATM    4  N3  UNL     1      21.417   1.081  49.523  1.00  0.00    -0.160 NA
HETATM    5  N4  UNL     1      22.015   1.025  50.780  1.00  0.00    -0.234 N 
HETATM    6  C10 UNL     1      21.422   0.232  51.828  1.00  0.00     0.155 A 
HETATM    7  S1  UNL     1      22.537   0.472  53.247  1.00  0.00    -0.155 SA
HETATM    8  C11 UNL     1      23.687   1.603  52.327  1.00  0.00     0.021 A 
HETATM    9  C18 UNL     1      23.193   1.706  51.115  1.00  0.00     0.118 A 
HETATM   10  H11 UNL     1      22.077   0.501  54.523  1.00  0.00     0.102 HD
ENDROOT
BRANCH   8  11
HETATM   11  C12 UNL     1      24.818   2.172  53.050  1.00  0.00     0.164 C 
BRANCH  11  12
HETATM   12  N5  UNL     1      26.005   1.466  52.776  1.00  0.00    -0.408 N 
HETATM   13  C13 UNL     1      27.180   2.118  52.407  1.00  0.00     0.119 C 
HETATM   14  C14 UNL     1      28.328   1.700  53.273  1.00  0.00     0.055 C 
HETATM   15  C15 UNL     1      28.178   0.245  53.666  1.00  0.00     0.221 C 
HETATM   16  C16 UNL     1      27.300  -0.547  52.728  1.00  0.00     0.055 C 
HETATM   17  C17 UNL     1      25.965   0.103  52.442  1.00  0.00     0.119 C 
BRANCH  15  18
HETATM   18  N6  UNL     1      29.491  -0.388  53.668  1.00  0.00     0.083 N 
HETATM   19  H19 UNL     1      29.416  -1.254  53.086  1.00  0.00     0.313 HD
HETATM   20  H20 UNL     1      29.811  -0.648  54.625  1.00  0.00     0.313 HD
ENDBRANCH  15  18
ENDBRANCH  11  12
ENDBRANCH   8  11
BRANCH   1  21
HETATM   21  N1  UNL     1      24.884   3.262  50.028  1.00  0.00    -0.339 N 
HETATM   22  H8  UNL     1      25.731   2.628  49.948  1.00  0.00     0.167 HD
BRANCH  21  23
HETATM   23  C7  UNL     1      24.870   4.707  50.168  1.00  0.00     0.039 A 
HETATM   24  C2  UNL     1      25.815   5.555  49.663  1.00  0.00    -0.035 A 
HETATM   25  C1  UNL     1      26.941   4.984  48.866  1.00  0.00     0.050 C 
HETATM   26  C3  UNL     1      25.773   6.910  49.850  1.00  0.00     0.009 A 
HETATM   27  C4  UNL     1      24.755   7.490  50.571  1.00  0.00     0.001 A 
HETATM   28  C5  UNL     1      23.795   6.665  51.086  1.00  0.00     0.002 A 
HETATM   29  C6  UNL     1      23.874   5.332  50.878  1.00  0.00     0.030 A 
ENDBRANCH  21  23
ENDBRANCH   1  21
TORSDOF 5
ENDMDL
MODEL 6
REMARK VINA RESULT:      -7.8      2.673      5.069
REMARK  5 active torsions:
REMARK  status: ('A' for Active; 'I' for Inactive)
REMARK    1  A    between atoms: C7_7  and  N1_8 
REMARK    2  A    between atoms: N1_8  and  C8_9 
REMARK    3  A    between atoms: C11_16  and  C12_17 
REMARK    4  A    between atoms: C12_17  and  N5_18 
REMARK    5  A    between atoms: C15_21  and  N6_22 
ROOT
HETATM    1  C8  UNL     1      25.778   3.249  51.214  1.00  0.00     0.159 A 
HETATM    2  N2  UNL     1      26.940   3.376  50.619  1.00  0.00    -0.220 NA
HETATM    3  C9  UNL     1      27.086   4.016  49.364  1.00  0.00     0.258 A 
HETATM    4  N3  UNL     1      26.026   4.483  48.811  1.00  0.00    -0.160 NA
HETATM    5  N4  UNL     1      24.768   4.378  49.399  1.00  0.00    -0.234 N 
HETATM    6  C10 UNL     1      23.611   4.922  48.733  1.00  0.00     0.155 A 
HETATM    7  S1  UNL     1      22.235   4.551  49.866  1.00  0.00    -0.155 SA
HETATM    8  C11 UNL     1      23.315   3.711  51.121  1.00  0.00     0.021 A 
HETATM    9  C18 UNL     1      24.533   3.761  50.636  1.00  0.00     0.118 A 
HETATM   10  H11 UNL     1      21.177   5.388  50.006  1.00  0.00     0.102 HD
ENDROOT
BRANCH   8  11
HETATM   11  C12 UNL     1      22.694   3.222  52.347  1.00  0.00     0.164 C 
BRANCH  11  12
HETATM   12  N5  UNL     1      21.660   2.308  52.063  1.00  0.00    -0.408 N 
HETATM   13  C13 UNL     1      20.374   2.473  52.573  1.00  0.00     0.119 C 
HETATM   14  C14 UNL     1      19.347   2.416  51.484  1.00  0.00     0.055 C 
HETATM   15  C15 UNL     1      19.785   1.443  50.409  1.00  0.00     0.221 C 
HETATM   16  C16 UNL     1      20.778   0.415  50.893  1.00  0.00     0.055 C 
HETATM   17  C17 UNL     1      21.956   1.004  51.637  1.00  0.00     0.119 C 
BRANCH  15  18
HETATM   18  N6  UNL     1      18.619   0.719  49.917  1.00  0.00     0.083 N 
HETATM   19  H19 UNL     1      17.773   1.231  50.257  1.00  0.00     0.313 HD
HETATM   20  H20 UNL     1      18.581  -0.265  50.259  1.00  0.00     0.313 HD
ENDBRANCH  15  18
ENDBRANCH  11  12
ENDBRANCH   8  11
BRANCH   1  21
HETATM   21  N1  UNL     1      25.839   2.574  52.465  1.00  0.00    -0.339 N 
HETATM   22  H8  UNL     1      25.287   3.122  53.186  1.00  0.00     0.167 HD
BRANCH  21  23
HETATM   23  C7  UNL     1      26.561   1.330  52.662  1.00  0.00     0.039 A 
HETATM   24  C2  UNL     1      27.810   1.222  53.203  1.00  0.00    -0.035 A 
HETATM   25  C1  UNL     1      28.498   2.461  53.677  1.00  0.00     0.050 C 
HETATM   26  C3  UNL     1      28.461   0.026  53.338  1.00  0.00     0.009 A 
HETATM   27  C4  UNL     1      27.873  -1.146  52.924  1.00  0.00     0.001 A 
HETATM   28  C5  UNL     1      26.622  -1.068  52.379  1.00  0.00     0.002 A 
HETATM   29  C6  UNL     1      26.014   0.133  52.264  1.00  0.00     0.030 A 
ENDBRANCH  21  23
ENDBRANCH   1  21
TORSDOF 5
ENDMDL
MODEL 7
REMARK VINA RESULT:      -7.4      2.303      4.441
REMARK  5 active torsions:
REMARK  status: ('A' for Active; 'I' for Inactive)
REMARK    1  A    between atoms: C7_7  and  N1_8 
REMARK    2  A    between atoms: N1_8  and  C8_9 
REMARK    3  A    between atoms: C11_16  and  C12_17 
REMARK    4  A    between atoms: C12_17  and  N5_18 
REMARK    5  A    between atoms: C15_21  and  N6_22 
ROOT
HETATM    1  C8  UNL     1      24.497   2.013  53.049  1.00  0.00     0.159 A 
HETATM    2  N2  UNL     1      25.609   1.513  53.533  1.00  0.00    -0.220 NA
HETATM    3  C9  UNL     1      25.723   0.160  53.937  1.00  0.00     0.258 A 
HETATM    4  N3  UNL     1      24.685  -0.584  53.812  1.00  0.00    -0.160 NA
HETATM    5  N4  UNL     1      23.480  -0.106  53.300  1.00  0.00    -0.234 N 
HETATM    6  C10 UNL     1      22.346  -0.988  53.180  1.00  0.00     0.155 A 
HETATM    7  S1  UNL     1      21.040   0.067  52.477  1.00  0.00    -0.155 SA
HETATM    8  C11 UNL     1      22.113   1.581  52.403  1.00  0.00     0.021 A 
HETATM    9  C18 UNL     1      23.280   1.215  52.878  1.00  0.00     0.118 A 
HETATM   10  H11 UNL     1      20.110  -0.419  51.617  1.00  0.00     0.102 HD
ENDROOT
BRANCH   8  11
HETATM   11  C12 UNL     1      21.546   2.800  51.838  1.00  0.00     0.164 C 
BRANCH  11  12
HETATM   12  N5  UNL     1      21.564   2.764  50.430  1.00  0.00    -0.408 N 
HETATM   13  C13 UNL     1      20.423   3.023  49.673  1.00  0.00     0.119 C 
HETATM   14  C14 UNL     1      20.685   4.076  48.640  1.00  0.00     0.055 C 
HETATM   15  C15 UNL     1      22.108   3.964  48.135  1.00  0.00     0.221 C 
HETATM   16  C16 UNL     1      22.715   2.597  48.337  1.00  0.00     0.055 C 
HETATM   17  C17 UNL     1      22.571   2.065  49.745  1.00  0.00     0.119 C 
BRANCH  15  18
HETATM   18  N6  UNL     1      22.130   4.239  46.704  1.00  0.00     0.083 N 
HETATM   19  H19 UNL     1      22.289   3.327  46.217  1.00  0.00     0.313 HD
HETATM   20  H20 UNL     1      22.884   4.905  46.433  1.00  0.00     0.313 HD
ENDBRANCH  15  18
ENDBRANCH  11  12
ENDBRANCH   8  11
BRANCH   1  21
HETATM   21  N1  UNL     1      24.584   3.390  52.704  1.00  0.00    -0.339 N 
HETATM   22  H8  UNL     1      24.216   3.977  53.508  1.00  0.00     0.167 HD
BRANCH  21  23
HETATM   23  C7  UNL     1      25.107   3.859  51.433  1.00  0.00     0.039 A 
HETATM   24  C2  UNL     1      24.684   4.978  50.773  1.00  0.00    -0.035 A 
HETATM   25  C1  UNL     1      23.629   5.828  51.402  1.00  0.00     0.050 C 
HETATM   26  C3  UNL     1      25.188   5.360  49.560  1.00  0.00     0.009 A 
HETATM   27  C4  UNL     1      26.165   4.617  48.939  1.00  0.00     0.001 A 
HETATM   28  C5  UNL     1      26.608   3.494  49.577  1.00  0.00     0.002 A 
HETATM   29  C6  UNL     1      26.084   3.151  50.774  1.00  0.00     0.030 A 
ENDBRANCH  21  23
ENDBRANCH   1  21
TORSDOF 5
ENDMDL
MODEL 8
REMARK VINA RESULT:      -7.3      3.667      5.514
REMARK  5 active torsions:
REMARK  status: ('A' for Active; 'I' for Inactive)
REMARK    1  A    between atoms: C7_7  and  N1_8 
REMARK    2  A    between atoms: N1_8  and  C8_9 
REMARK    3  A    between atoms: C11_16  and  C12_17 
REMARK    4  A    between atoms: C12_17  and  N5_18 
REMARK    5  A    between atoms: C15_21  and  N6_22 
ROOT
HETATM    1  C8  UNL     1      20.468   3.222  51.349  1.00  0.00     0.159 A 
HETATM    2  N2  UNL     1      19.434   3.309  52.151  1.00  0.00    -0.220 NA
HETATM    3  C9  UNL     1      18.105   3.415  51.671  1.00  0.00     0.258 A 
HETATM    4  N3  UNL     1      17.934   3.423  50.399  1.00  0.00    -0.160 NA
HETATM    5  N4  UNL     1      18.996   3.331  49.502  1.00  0.00    -0.234 N 
HETATM    6  C10 UNL     1      18.746   3.343  48.082  1.00  0.00     0.155 A 
HETATM    7  S1  UNL     1      20.402   3.200  47.341  1.00  0.00    -0.155 SA
HETATM    8  C11 UNL     1      21.278   3.135  48.977  1.00  0.00     0.021 A 
HETATM    9  C18 UNL     1      20.339   3.223  49.889  1.00  0.00     0.118 A 
HETATM   10  H11 UNL     1      20.613   2.529  46.181  1.00  0.00     0.102 HD
ENDROOT
BRANCH   8  11
HETATM   11  C12 UNL     1      22.726   2.965  48.977  1.00  0.00     0.164 C 
BRANCH  11  12
HETATM   12  N5  UNL     1      23.380   4.168  49.312  1.00  0.00    -0.408 N 
HETATM   13  C13 UNL     1      22.797   5.412  49.073  1.00  0.00     0.119 C 
HETATM   14  C14 UNL     1      22.789   6.253  50.313  1.00  0.00     0.055 C 
HETATM   15  C15 UNL     1      24.025   5.968  51.141  1.00  0.00     0.221 C 
HETATM   16  C16 UNL     1      25.165   5.384  50.344  1.00  0.00     0.055 C 
HETATM   17  C17 UNL     1      24.771   4.200  49.488  1.00  0.00     0.119 C 
BRANCH  15  18
HETATM   18  N6  UNL     1      24.503   7.213  51.730  1.00  0.00     0.083 N 
HETATM   19  H19 UNL     1      25.373   7.482  51.217  1.00  0.00     0.313 HD
HETATM   20  H20 UNL     1      24.721   7.120  52.745  1.00  0.00     0.313 HD
ENDBRANCH  15  18
ENDBRANCH  11  12
ENDBRANCH   8  11
BRANCH   1  21
HETATM   21  N1  UNL     1      21.717   3.125  52.023  1.00  0.00    -0.339 N 
HETATM   22  H8  UNL     1      22.128   4.096  52.139  1.00  0.00     0.167 HD
BRANCH  21  23
HETATM   23  C7  UNL     1      22.286   1.864  52.462  1.00  0.00     0.039 A 
HETATM   24  C2  UNL     1      23.551   1.700  52.951  1.00  0.00    -0.035 A 
HETATM   25  C1  UNL     1      24.428   2.901  53.094  1.00  0.00     0.050 C 
HETATM   26  C3  UNL     1      24.052   0.482  53.322  1.00  0.00     0.009 A 
HETATM   27  C4  UNL     1      23.286  -0.655  53.217  1.00  0.00     0.001 A 
HETATM   28  C5  UNL     1      22.016  -0.521  52.733  1.00  0.00     0.002 A 
HETATM   29  C6  UNL     1      21.560   0.700  52.377  1.00  0.00     0.030 A 
ENDBRANCH  21  23
ENDBRANCH   1  21
TORSDOF 5
ENDMDL
MODEL 9
REMARK VINA RESULT:      -7.3      3.094      6.391
REMARK  5 active torsions:
REMARK  status: ('A' for Active; 'I' for Inactive)
REMARK    1  A    between atoms: C7_7  and  N1_8 
REMARK    2  A    between atoms: N1_8  and  C8_9 
REMARK    3  A    between atoms: C11_16  and  C12_17 
REMARK    4  A    between atoms: C12_17  and  N5_18 
REMARK    5  A    between atoms: C15_21  and  N6_22 
ROOT
HETATM    1  C8  UNL     1      22.466   4.334  48.847  1.00  0.00     0.159 A 
HETATM    2  N2  UNL     1      22.550   4.452  47.544  1.00  0.00    -0.220 NA
HETATM    3  C9  UNL     1      21.693   3.751  46.659  1.00  0.00     0.258 A 
HETATM    4  N3  UNL     1      20.808   2.980  47.180  1.00  0.00    -0.160 NA
HETATM    5  N4  UNL     1      20.674   2.820  48.557  1.00  0.00    -0.234 N 
HETATM    6  C10 UNL     1      19.660   1.942  49.087  1.00  0.00     0.155 A 
HETATM    7  S1  UNL     1      19.870   2.064  50.891  1.00  0.00    -0.155 SA
HETATM    8  C11 UNL     1      21.279   3.269  50.782  1.00  0.00     0.021 A 
HETATM    9  C18 UNL     1      21.478   3.473  49.501  1.00  0.00     0.118 A 
HETATM   10  H11 UNL     1      18.817   1.986  51.742  1.00  0.00     0.102 HD
ENDROOT
BRANCH   8  11
HETATM   11  C12 UNL     1      21.847   3.778  52.025  1.00  0.00     0.164 C 
BRANCH  11  12
HETATM   12  N5  UNL     1      22.874   2.936  52.498  1.00  0.00    -0.408 N 
HETATM   13  C13 UNL     1      22.618   1.633  52.921  1.00  0.00     0.119 C 
HETATM   14  C14 UNL     1      23.517   0.652  52.232  1.00  0.00     0.055 C 
HETATM   15  C15 UNL     1      24.872   1.281  51.979  1.00  0.00     0.221 C 
HETATM   16  C16 UNL     1      25.182   2.439  52.894  1.00  0.00     0.055 C 
HETATM   17  C17 UNL     1      24.082   3.475  52.965  1.00  0.00     0.119 C 
BRANCH  15  18
HETATM   18  N6  UNL     1      25.909   0.278  52.184  1.00  0.00     0.083 N 
HETATM   19  H19 UNL     1      25.529  -0.425  52.859  1.00  0.00     0.313 HD
HETATM   20  H20 UNL     1      26.788   0.681  52.573  1.00  0.00     0.313 HD
ENDBRANCH  15  18
ENDBRANCH  11  12
ENDBRANCH   8  11
BRANCH   1  21
HETATM   21  N1  UNL     1      23.416   5.116  49.561  1.00  0.00    -0.339 N 
HETATM   22  H8  UNL     1      22.912   5.700  50.290  1.00  0.00     0.167 HD
BRANCH  21  23
HETATM   23  C7  UNL     1      24.842   5.077  49.289  1.00  0.00     0.039 A 
HETATM   24  C2  UNL     1      25.570   6.104  48.759  1.00  0.00    -0.035 A 
HETATM   25  C1  UNL     1      24.881   7.395  48.462  1.00  0.00     0.050 C 
HETATM   26  C3  UNL     1      26.908   6.005  48.492  1.00  0.00     0.009 A 
HETATM   27  C4  UNL     1      27.594   4.841  48.751  1.00  0.00     0.001 A 
HETATM   28  C5  UNL     1      26.890   3.798  49.283  1.00  0.00     0.002 A 
HETATM   29  C6  UNL     1      25.570   3.936  49.532  1.00  0.00     0.030 A 
ENDBRANCH  21  23
ENDBRANCH   1  21
TORSDOF 5
ENDMDL
