MODEL 1
REMARK VINA RESULT:      -7.3      0.000      0.000
REMARK  9 active torsions:
REMARK  status: ('A' for Active; 'I' for Inactive)
REMARK    1  A    between atoms: C2_2  and  C3_4 
REMARK    2  A    between atoms: C3_4  and  C4_5 
REMARK    3  A    between atoms: C4_5  and  N1_6 
REMARK    4  A    between atoms: N1_6  and  C5_7 
REMARK    5  A    between atoms: C8_10  and  O1_11 
REMARK    6  A    between atoms: O1_11  and  C9_12 
REMARK    7  A    between atoms: C9_12  and  C10_13 
REMARK    8  A    between atoms: C10_13  and  C11_14 
REMARK    9  A    between atoms: C11_14  and  N2_15 
ROOT
HETATM    1  C5  UNL     1      26.649   2.114  52.532  1.00  0.00     0.140 A 
HETATM    2  C6  UNL     1      25.830   1.200  53.070  1.00  0.00     0.024 A 
HETATM    3  C7  UNL     1      24.512   1.230  52.458  1.00  0.00     0.048 A 
HETATM    4  C8  UNL     1      23.625   0.340  52.940  1.00  0.00     0.050 A 
HETATM    5  C16 UNL     1      23.872  -0.655  54.022  1.00  0.00     0.092 A 
HETATM    6  C17 UNL     1      25.258  -0.555  54.538  1.00  0.00    -0.007 A 
HETATM    7  C18 UNL     1      26.207   0.284  54.137  1.00  0.00    -0.008 A 
HETATM    8  C19 UNL     1      27.476   0.141  54.839  1.00  0.00     0.130 A 
HETATM    9  N3  UNL     1      28.567   0.814  54.664  1.00  0.00    -0.253 NA
HETATM   10  C20 UNL     1      28.799   1.872  53.728  1.00  0.00     0.234 A 
HETATM   11  N4  UNL     1      28.015   2.416  52.845  1.00  0.00    -0.224 NA
ENDROOT
BRANCH   4  12
HETATM   12  O1  UNL     1      22.333   0.174  52.534  1.00  0.00    -0.355 OA
BRANCH  12  13
HETATM   13  C9  UNL     1      21.135   0.505  53.136  1.00  0.00     0.177 C 
BRANCH  13  14
HETATM   14  C10 UNL     1      20.795   1.920  52.657  1.00  0.00     0.057 C 
BRANCH  14  15
HETATM   15  C11 UNL     1      20.911   1.993  51.180  1.00  0.00     0.274 C 
BRANCH  15  16
HETATM   16  N2  UNL     1      20.707   3.372  50.753  1.00  0.00     0.092 N 
HETATM   17  C12 UNL     1      21.199   4.314  51.744  1.00  0.00     0.298 C 
HETATM   18  C13 UNL     1      22.402   5.025  51.195  1.00  0.00     0.198 C 
HETATM   19  O2  UNL     1      23.320   4.027  50.849  1.00  0.00    -0.388 OA
HETATM   20  C14 UNL     1      22.867   3.456  49.667  1.00  0.00     0.198 C 
HETATM   21  C15 UNL     1      21.379   3.590  49.486  1.00  0.00     0.298 C 
ENDBRANCH  15  16
ENDBRANCH  14  15
ENDBRANCH  13  14
ENDBRANCH  12  13
ENDBRANCH   4  12
BRANCH   1  22
HETATM   22  N1  UNL     1      26.093   2.921  51.486  1.00  0.00    -0.343 N 
HETATM   23  H5  UNL     1      25.278   3.565  51.554  1.00  0.00     0.167 HD
BRANCH  22  24
HETATM   24  C4  UNL     1      26.648   2.887  50.198  1.00  0.00     0.147 C 
BRANCH  24  25
HETATM   25  C3  UNL     1      26.606   4.000  49.482  1.00  0.00    -0.092 C 
BRANCH  25  26
HETATM   26  C2  UNL     1      26.811   5.161  48.870  1.00  0.00     0.054 C 
HETATM   27  C1  UNL     1      25.648   6.012  48.788  1.00  0.00     0.071 C 
HETATM   28 CL1  UNL     1      28.407   5.404  48.307  1.00  0.00    -0.080 Cl
ENDBRANCH  25  26
ENDBRANCH  24  25
ENDBRANCH  22  24
ENDBRANCH   1  22
TORSDOF 9
ENDMDL
MODEL 2
REMARK VINA RESULT:      -7.0      2.561      4.560
REMARK  9 active torsions:
REMARK  status: ('A' for Active; 'I' for Inactive)
REMARK    1  A    between atoms: C2_2  and  C3_4 
REMARK    2  A    between atoms: C3_4  and  C4_5 
REMARK    3  A    between atoms: C4_5  and  N1_6 
REMARK    4  A    between atoms: N1_6  and  C5_7 
REMARK    5  A    between atoms: C8_10  and  O1_11 
REMARK    6  A    between atoms: O1_11  and  C9_12 
REMARK    7  A    between atoms: C9_12  and  C10_13 
REMARK    8  A    between atoms: C10_13  and  C11_14 
REMARK    9  A    between atoms: C11_14  and  N2_15 
ROOT
HETATM    1  C5  UNL     1      24.255   0.032  53.423  1.00  0.00     0.140 A 
HETATM    2  C6  UNL     1      23.008   0.199  52.963  1.00  0.00     0.024 A 
HETATM    3  C7  UNL     1      22.979   1.033  51.772  1.00  0.00     0.048 A 
HETATM    4  C8  UNL     1      21.762   1.251  51.242  1.00  0.00     0.050 A 
HETATM    5  C16 UNL     1      20.467   0.720  51.756  1.00  0.00     0.092 A 
HETATM    6  C17 UNL     1      20.669  -0.107  52.969  1.00  0.00    -0.007 A 
HETATM    7  C18 UNL     1      21.820  -0.382  53.573  1.00  0.00    -0.008 A 
HETATM    8  C19 UNL     1      21.697  -1.228  54.752  1.00  0.00     0.130 A 
HETATM    9  N3  UNL     1      22.637  -1.655  55.533  1.00  0.00    -0.253 NA
HETATM   10  C20 UNL     1      24.042  -1.400  55.427  1.00  0.00     0.234 A 
HETATM   11  N4  UNL     1      24.719  -0.706  54.561  1.00  0.00    -0.224 NA
ENDROOT
BRANCH   4  12
HETATM   12  O1  UNL     1      21.475   1.996  50.136  1.00  0.00    -0.355 OA
BRANCH  12  13
HETATM   13  C9  UNL     1      21.637   1.736  48.789  1.00  0.00     0.177 C 
BRANCH  13  14
HETATM   14  C10 UNL     1      22.862   2.540  48.345  1.00  0.00     0.057 C 
BRANCH  14  15
HETATM   15  C11 UNL     1      22.791   3.914  48.899  1.00  0.00     0.274 C 
BRANCH  15  16
HETATM   16  N2  UNL     1      24.142   4.443  49.044  1.00  0.00     0.092 N 
HETATM   17  C12 UNL     1      24.150   5.896  49.018  1.00  0.00     0.298 C 
HETATM   18  C13 UNL     1      24.521   6.411  50.379  1.00  0.00     0.198 C 
HETATM   19  O2  UNL     1      23.593   5.859  51.270  1.00  0.00    -0.388 OA
HETATM   20  C14 UNL     1      23.952   4.530  51.453  1.00  0.00     0.198 C 
HETATM   21  C15 UNL     1      24.717   3.966  50.287  1.00  0.00     0.298 C 
ENDBRANCH  15  16
ENDBRANCH  14  15
ENDBRANCH  13  14
ENDBRANCH  12  13
ENDBRANCH   4  12
BRANCH   1  22
HETATM   22  N1  UNL     1      25.294   0.681  52.680  1.00  0.00    -0.343 N 
HETATM   23  H5  UNL     1      25.329   1.681  52.389  1.00  0.00     0.167 HD
BRANCH  22  24
HETATM   24  C4  UNL     1      26.416  -0.043  52.254  1.00  0.00     0.147 C 
BRANCH  24  25
HETATM   25  C3  UNL     1      27.599   0.325  52.722  1.00  0.00    -0.092 C 
BRANCH  25  26
HETATM   26  C2  UNL     1      28.639   0.819  53.384  1.00  0.00     0.054 C 
HETATM   27  C1  UNL     1      29.638  -0.156  53.752  1.00  0.00     0.071 C 
HETATM   28 CL1  UNL     1      28.577   2.505  53.663  1.00  0.00    -0.080 Cl
ENDBRANCH  25  26
ENDBRANCH  24  25
ENDBRANCH  22  24
ENDBRANCH   1  22
TORSDOF 9
ENDMDL
MODEL 3
REMARK VINA RESULT:      -6.9      2.777      5.257
REMARK  9 active torsions:
REMARK  status: ('A' for Active; 'I' for Inactive)
REMARK    1  A    between atoms: C2_2  and  C3_4 
REMARK    2  A    between atoms: C3_4  and  C4_5 
REMARK    3  A    between atoms: C4_5  and  N1_6 
REMARK    4  A    between atoms: N1_6  and  C5_7 
REMARK    5  A    between atoms: C8_10  and  O1_11 
REMARK    6  A    between atoms: O1_11  and  C9_12 
REMARK    7  A    between atoms: C9_12  and  C10_13 
REMARK    8  A    between atoms: C10_13  and  C11_14 
REMARK    9  A    between atoms: C11_14  and  N2_15 
ROOT
HETATM    1  C5  UNL     1      23.969  -0.092  53.577  1.00  0.00     0.140 A 
HETATM    2  C6  UNL     1      22.977   0.253  52.746  1.00  0.00     0.024 A 
HETATM    3  C7  UNL     1      23.455   1.083  51.651  1.00  0.00     0.048 A 
HETATM    4  C8  UNL     1      22.520   1.475  50.765  1.00  0.00     0.050 A 
HETATM    5  C16 UNL     1      21.069   1.136  50.806  1.00  0.00     0.092 A 
HETATM    6  C17 UNL     1      20.747   0.289  51.978  1.00  0.00    -0.007 A 
HETATM    7  C18 UNL     1      21.588  -0.150  52.909  1.00  0.00    -0.008 A 
HETATM    8  C19 UNL     1      20.971  -0.969  53.944  1.00  0.00     0.130 A 
HETATM    9  N3  UNL     1      21.535  -1.527  54.966  1.00  0.00    -0.253 NA
HETATM   10  C20 UNL     1      22.917  -1.478  55.334  1.00  0.00     0.234 A 
HETATM   11  N4  UNL     1      23.929  -0.888  54.768  1.00  0.00    -0.224 NA
ENDROOT
BRANCH   4  12
HETATM   12  O1  UNL     1      22.717   2.253  49.663  1.00  0.00    -0.355 OA
BRANCH  12  13
HETATM   13  C9  UNL     1      22.765   3.625  49.507  1.00  0.00     0.177 C 
BRANCH  13  14
HETATM   14  C10 UNL     1      24.228   4.025  49.714  1.00  0.00     0.057 C 
BRANCH  14  15
HETATM   15  C11 UNL     1      24.445   5.412  49.236  1.00  0.00     0.274 C 
BRANCH  15  16
HETATM   16  N2  UNL     1      25.165   6.163  50.257  1.00  0.00     0.092 N 
HETATM   17  C12 UNL     1      25.947   7.240  49.672  1.00  0.00     0.298 C 
HETATM   18  C13 UNL     1      25.350   8.558  50.072  1.00  0.00     0.198 C 
HETATM   19  O2  UNL     1      24.015   8.525  49.650  1.00  0.00    -0.388 OA
HETATM   20  C14 UNL     1      23.330   7.713  50.545  1.00  0.00     0.198 C 
HETATM   21  C15 UNL     1      24.220   6.702  51.216  1.00  0.00     0.298 C 
ENDBRANCH  15  16
ENDBRANCH  14  15
ENDBRANCH  13  14
ENDBRANCH  12  13
ENDBRANCH   4  12
BRANCH   1  22
HETATM   22  N1  UNL     1      25.273   0.401  53.243  1.00  0.00    -0.343 N 
HETATM   23  H5  UNL     1      25.528   1.374  52.974  1.00  0.00     0.167 HD
BRANCH  22  24
HETATM   24  C4  UNL     1      26.377  -0.464  53.248  1.00  0.00     0.147 C 
BRANCH  24  25
HETATM   25  C3  UNL     1      27.562   0.056  53.529  1.00  0.00    -0.092 C 
BRANCH  25  26
HETATM   26  C2  UNL     1      28.709   0.723  53.586  1.00  0.00     0.054 C 
HETATM   27  C1  UNL     1      29.889  -0.108  53.612  1.00  0.00     0.071 C 
HETATM   28 CL1  UNL     1      28.548   2.425  53.620  1.00  0.00    -0.080 Cl
ENDBRANCH  25  26
ENDBRANCH  24  25
ENDBRANCH  22  24
ENDBRANCH   1  22
TORSDOF 9
ENDMDL
MODEL 4
REMARK VINA RESULT:      -6.8      2.889      5.483
REMARK  9 active torsions:
REMARK  status: ('A' for Active; 'I' for Inactive)
REMARK    1  A    between atoms: C2_2  and  C3_4 
REMARK    2  A    between atoms: C3_4  and  C4_5 
REMARK    3  A    between atoms: C4_5  and  N1_6 
REMARK    4  A    between atoms: N1_6  and  C5_7 
REMARK    5  A    between atoms: C8_10  and  O1_11 
REMARK    6  A    between atoms: O1_11  and  C9_12 
REMARK    7  A    between atoms: C9_12  and  C10_13 
REMARK    8  A    between atoms: C10_13  and  C11_14 
REMARK    9  A    between atoms: C11_14  and  N2_15 
ROOT
HETATM    1  C5  UNL     1      24.098  -0.147  53.758  1.00  0.00     0.140 A 
HETATM    2  C6  UNL     1      23.140   0.198  52.889  1.00  0.00     0.024 A 
HETATM    3  C7  UNL     1      23.652   1.055  51.832  1.00  0.00     0.048 A 
HETATM    4  C8  UNL     1      22.752   1.448  50.912  1.00  0.00     0.050 A 
HETATM    5  C16 UNL     1      21.306   1.087  50.881  1.00  0.00     0.092 A 
HETATM    6  C17 UNL     1      20.946   0.213  52.022  1.00  0.00    -0.007 A 
HETATM    7  C18 UNL     1      21.751  -0.230  52.981  1.00  0.00    -0.008 A 
HETATM    8  C19 UNL     1      21.101  -1.078  53.972  1.00  0.00     0.130 A 
HETATM    9  N3  UNL     1      21.627  -1.645  55.009  1.00  0.00    -0.253 NA
HETATM   10  C20 UNL     1      22.991  -1.582  55.440  1.00  0.00     0.234 A 
HETATM   11  N4  UNL     1      24.018  -0.966  54.932  1.00  0.00    -0.224 NA
ENDROOT
BRANCH   4  12
HETATM   12  O1  UNL     1      22.986   2.250  49.833  1.00  0.00    -0.355 OA
BRANCH  12  13
HETATM   13  C9  UNL     1      24.088   2.999  49.471  1.00  0.00     0.177 C 
BRANCH  13  14
HETATM   14  C10 UNL     1      23.911   4.366  50.138  1.00  0.00     0.057 C 
BRANCH  14  15
HETATM   15  C11 UNL     1      24.471   5.428  49.267  1.00  0.00     0.274 C 
BRANCH  15  16
HETATM   16  N2  UNL     1      25.778   5.826  49.777  1.00  0.00     0.092 N 
HETATM   17  C12 UNL     1      26.841   5.459  48.857  1.00  0.00     0.298 C 
HETATM   18  C13 UNL     1      27.435   6.705  48.267  1.00  0.00     0.198 C 
HETATM   19  O2  UNL     1      26.375   7.397  47.670  1.00  0.00    -0.388 OA
HETATM   20  C14 UNL     1      25.649   7.986  48.698  1.00  0.00     0.198 C 
HETATM   21  C15 UNL     1      25.793   7.258  50.006  1.00  0.00     0.298 C 
ENDBRANCH  15  16
ENDBRANCH  14  15
ENDBRANCH  13  14
ENDBRANCH  12  13
ENDBRANCH   4  12
BRANCH   1  22
HETATM   22  N1  UNL     1      25.407   0.372  53.492  1.00  0.00    -0.343 N 
HETATM   23  H5  UNL     1      25.739   0.822  52.614  1.00  0.00     0.167 HD
BRANCH  22  24
HETATM   24  C4  UNL     1      26.409   0.295  54.471  1.00  0.00     0.147 C 
BRANCH  24  25
HETATM   25  C3  UNL     1      27.660   0.502  54.086  1.00  0.00    -0.092 C 
BRANCH  25  26
HETATM   26  C2  UNL     1      28.958   0.754  53.966  1.00  0.00     0.054 C 
HETATM   27  C1  UNL     1      29.335   2.118  54.249  1.00  0.00     0.071 C 
HETATM   28 CL1  UNL     1      29.910  -0.588  53.500  1.00  0.00    -0.080 Cl
ENDBRANCH  25  26
ENDBRANCH  24  25
ENDBRANCH  22  24
ENDBRANCH   1  22
TORSDOF 9
ENDMDL
MODEL 5
REMARK VINA RESULT:      -6.5      4.976      9.520
REMARK  9 active torsions:
REMARK  status: ('A' for Active; 'I' for Inactive)
REMARK    1  A    between atoms: C2_2  and  C3_4 
REMARK    2  A    between atoms: C3_4  and  C4_5 
REMARK    3  A    between atoms: C4_5  and  N1_6 
REMARK    4  A    between atoms: N1_6  and  C5_7 
REMARK    5  A    between atoms: C8_10  and  O1_11 
REMARK    6  A    between atoms: O1_11  and  C9_12 
REMARK    7  A    between atoms: C9_12  and  C10_13 
REMARK    8  A    between atoms: C10_13  and  C11_14 
REMARK    9  A    between atoms: C11_14  and  N2_15 
ROOT
HETATM    1  C5  UNL     1      25.951   5.119  49.589  1.00  0.00     0.140 A 
HETATM    2  C6  UNL     1      26.487   6.017  48.750  1.00  0.00     0.024 A 
HETATM    3  C7  UNL     1      27.913   5.797  48.564  1.00  0.00     0.048 A 
HETATM    4  C8  UNL     1      28.531   6.656  47.733  1.00  0.00     0.050 A 
HETATM    5  C16 UNL     1      27.895   7.788  47.000  1.00  0.00     0.092 A 
HETATM    6  C17 UNL     1      26.446   7.875  47.298  1.00  0.00    -0.007 A 
HETATM    7  C18 UNL     1      25.741   7.084  48.100  1.00  0.00    -0.008 A 
HETATM    8  C19 UNL     1      24.326   7.422  48.191  1.00  0.00     0.130 A 
HETATM    9  N3  UNL     1      23.406   6.836  48.887  1.00  0.00    -0.253 NA
HETATM   10  C20 UNL     1      23.553   5.699  49.745  1.00  0.00     0.234 A 
HETATM   11  N4  UNL     1      24.598   4.984  50.041  1.00  0.00    -0.224 NA
ENDROOT
BRANCH   4  12
HETATM   12  O1  UNL     1      29.854   6.660  47.400  1.00  0.00    -0.355 OA
BRANCH  12  13
HETATM   13  C9  UNL     1      30.989   6.847  48.163  1.00  0.00     0.177 C 
BRANCH  13  14
HETATM   14  C10 UNL     1      32.087   6.004  47.507  1.00  0.00     0.057 C 
BRANCH  14  15
HETATM   15  C11 UNL     1      31.669   4.582  47.458  1.00  0.00     0.274 C 
BRANCH  15  16
HETATM   16  N2  UNL     1      32.378   3.912  46.374  1.00  0.00     0.092 N 
HETATM   17  C12 UNL     1      33.713   4.458  46.195  1.00  0.00     0.298 C 
HETATM   18  C13 UNL     1      34.726   3.426  46.600  1.00  0.00     0.198 C 
HETATM   19  O2  UNL     1      34.421   3.079  47.922  1.00  0.00    -0.388 OA
HETATM   20  C14 UNL     1      33.303   2.256  47.874  1.00  0.00     0.198 C 
HETATM   21  C15 UNL     1      32.456   2.491  46.653  1.00  0.00     0.298 C 
ENDBRANCH  15  16
ENDBRANCH  14  15
ENDBRANCH  13  14
ENDBRANCH  12  13
ENDBRANCH   4  12
BRANCH   1  22
HETATM   22  N1  UNL     1      26.851   4.141  50.124  1.00  0.00    -0.343 N 
HETATM   23  H5  UNL     1      27.878   4.242  50.267  1.00  0.00     0.167 HD
BRANCH  22  24
HETATM   24  C4  UNL     1      26.374   2.882  50.515  1.00  0.00     0.147 C 
BRANCH  24  25
HETATM   25  C3  UNL     1      26.856   2.362  51.633  1.00  0.00    -0.092 C 
BRANCH  25  26
HETATM   26  C2  UNL     1      27.379   1.618  52.602  1.00  0.00     0.054 C 
HETATM   27  C1  UNL     1      26.921   0.250  52.625  1.00  0.00     0.071 C 
HETATM   28 CL1  UNL     1      28.484   2.438  53.618  1.00  0.00    -0.080 Cl
ENDBRANCH  25  26
ENDBRANCH  24  25
ENDBRANCH  22  24
ENDBRANCH   1  22
TORSDOF 9
ENDMDL
MODEL 6
REMARK VINA RESULT:      -6.5      3.342      4.107
REMARK  9 active torsions:
REMARK  status: ('A' for Active; 'I' for Inactive)
REMARK    1  A    between atoms: C2_2  and  C3_4 
REMARK    2  A    between atoms: C3_4  and  C4_5 
REMARK    3  A    between atoms: C4_5  and  N1_6 
REMARK    4  A    between atoms: N1_6  and  C5_7 
REMARK    5  A    between atoms: C8_10  and  O1_11 
REMARK    6  A    between atoms: O1_11  and  C9_12 
REMARK    7  A    between atoms: C9_12  and  C10_13 
REMARK    8  A    between atoms: C10_13  and  C11_14 
REMARK    9  A    between atoms: C11_14  and  N2_15 
ROOT
HETATM    1  C5  UNL     1      24.421   0.523  53.011  1.00  0.00     0.140 A 
HETATM    2  C6  UNL     1      23.236  -0.009  53.339  1.00  0.00     0.024 A 
HETATM    3  C7  UNL     1      22.193   0.376  52.401  1.00  0.00     0.048 A 
HETATM    4  C8  UNL     1      20.967  -0.118  52.658  1.00  0.00     0.050 A 
HETATM    5  C16 UNL     1      20.594  -1.007  53.794  1.00  0.00     0.092 A 
HETATM    6  C17 UNL     1      21.765  -1.303  54.653  1.00  0.00    -0.007 A 
HETATM    7  C18 UNL     1      23.010  -0.868  54.493  1.00  0.00    -0.008 A 
HETATM    8  C19 UNL     1      23.948  -1.332  55.507  1.00  0.00     0.130 A 
HETATM    9  N3  UNL     1      25.211  -1.073  55.607  1.00  0.00    -0.253 NA
HETATM   10  C20 UNL     1      26.007  -0.262  54.736  1.00  0.00     0.234 A 
HETATM   11  N4  UNL     1      25.691   0.400  53.663  1.00  0.00    -0.224 NA
ENDROOT
BRANCH   4  12
HETATM   12  O1  UNL     1      19.833   0.098  51.931  1.00  0.00    -0.355 OA
BRANCH  12  13
HETATM   13  C9  UNL     1      18.541  -0.363  52.092  1.00  0.00     0.177 C 
BRANCH  13  14
HETATM   14  C10 UNL     1      17.705   0.331  51.013  1.00  0.00     0.057 C 
BRANCH  14  15
HETATM   15  C11 UNL     1      17.421   1.729  51.416  1.00  0.00     0.274 C 
BRANCH  15  16
HETATM   16  N2  UNL     1      16.018   2.028  51.151  1.00  0.00     0.092 N 
HETATM   17  C12 UNL     1      15.212   1.899  52.354  1.00  0.00     0.298 C 
HETATM   18  C13 UNL     1      14.730   3.257  52.773  1.00  0.00     0.198 C 
HETATM   19  O2  UNL     1      15.877   4.045  52.934  1.00  0.00    -0.388 OA
HETATM   20  C14 UNL     1      16.322   4.373  51.660  1.00  0.00     0.198 C 
HETATM   21  C15 UNL     1      15.902   3.372  50.619  1.00  0.00     0.298 C 
ENDBRANCH  15  16
ENDBRANCH  14  15
ENDBRANCH  13  14
ENDBRANCH  12  13
ENDBRANCH   4  12
BRANCH   1  22
HETATM   22  N1  UNL     1      24.441   1.340  51.834  1.00  0.00    -0.343 N 
HETATM   23  H5  UNL     1      23.857   1.227  50.979  1.00  0.00     0.167 HD
BRANCH  22  24
HETATM   24  C4  UNL     1      25.323   2.426  51.743  1.00  0.00     0.147 C 
BRANCH  24  25
HETATM   25  C3  UNL     1      25.372   3.084  50.595  1.00  0.00    -0.092 C 
BRANCH  25  26
HETATM   26  C2  UNL     1      25.500   3.953  49.598  1.00  0.00     0.054 C 
HETATM   27  C1  UNL     1      24.261   4.538  49.146  1.00  0.00     0.071 C 
HETATM   28 CL1  UNL     1      27.106   4.194  49.059  1.00  0.00    -0.080 Cl
ENDBRANCH  25  26
ENDBRANCH  24  25
ENDBRANCH  22  24
ENDBRANCH   1  22
TORSDOF 9
ENDMDL
MODEL 7
REMARK VINA RESULT:      -6.5      2.415      6.566
REMARK  9 active torsions:
REMARK  status: ('A' for Active; 'I' for Inactive)
REMARK    1  A    between atoms: C2_2  and  C3_4 
REMARK    2  A    between atoms: C3_4  and  C4_5 
REMARK    3  A    between atoms: C4_5  and  N1_6 
REMARK    4  A    between atoms: N1_6  and  C5_7 
REMARK    5  A    between atoms: C8_10  and  O1_11 
REMARK    6  A    between atoms: O1_11  and  C9_12 
REMARK    7  A    between atoms: C9_12  and  C10_13 
REMARK    8  A    between atoms: C10_13  and  C11_14 
REMARK    9  A    between atoms: C11_14  and  N2_15 
ROOT
HETATM    1  C5  UNL     1      20.609   0.942  50.341  1.00  0.00     0.140 A 
HETATM    2  C6  UNL     1      20.602   0.326  51.531  1.00  0.00     0.024 A 
HETATM    3  C7  UNL     1      21.947   0.006  51.982  1.00  0.00     0.048 A 
HETATM    4  C8  UNL     1      22.030  -0.615  53.173  1.00  0.00     0.050 A 
HETATM    5  C16 UNL     1      20.889  -0.994  54.053  1.00  0.00     0.092 A 
HETATM    6  C17 UNL     1      19.593  -0.601  53.451  1.00  0.00    -0.007 A 
HETATM    7  C18 UNL     1      19.398   0.011  52.288  1.00  0.00    -0.008 A 
HETATM    8  C19 UNL     1      18.001   0.267  51.966  1.00  0.00     0.130 A 
HETATM    9  N3  UNL     1      17.514   0.840  50.912  1.00  0.00    -0.253 NA
HETATM   10  C20 UNL     1      18.236   1.371  49.796  1.00  0.00     0.234 A 
HETATM   11  N4  UNL     1      19.512   1.417  49.551  1.00  0.00    -0.224 NA
ENDROOT
BRANCH   4  12
HETATM   12  O1  UNL     1      23.171  -1.017  53.804  1.00  0.00    -0.355 OA
BRANCH  12  13
HETATM   13  C9  UNL     1      24.346  -0.349  54.086  1.00  0.00     0.177 C 
BRANCH  13  14
HETATM   14  C10 UNL     1      25.256  -0.560  52.873  1.00  0.00     0.057 C 
BRANCH  14  15
HETATM   15  C11 UNL     1      26.565  -1.102  53.312  1.00  0.00     0.274 C 
BRANCH  15  16
HETATM   16  N2  UNL     1      27.635  -0.328  52.696  1.00  0.00     0.092 N 
HETATM   17  C12 UNL     1      27.239   1.055  52.488  1.00  0.00     0.298 C 
HETATM   18  C13 UNL     1      28.034   1.939  53.405  1.00  0.00     0.198 C 
HETATM   19  O2  UNL     1      27.801   1.465  54.702  1.00  0.00    -0.388 OA
HETATM   20  C14 UNL     1      28.548   0.303  54.845  1.00  0.00     0.198 C 
HETATM   21  C15 UNL     1      28.817  -0.384  53.534  1.00  0.00     0.298 C 
ENDBRANCH  15  16
ENDBRANCH  14  15
ENDBRANCH  13  14
ENDBRANCH  12  13
ENDBRANCH   4  12
BRANCH   1  22
HETATM   22  N1  UNL     1      21.897   1.168  49.756  1.00  0.00    -0.343 N 
HETATM   23  H5  UNL     1      22.672   0.479  49.655  1.00  0.00     0.167 HD
BRANCH  22  24
HETATM   24  C4  UNL     1      22.231   2.432  49.249  1.00  0.00     0.147 C 
BRANCH  24  25
HETATM   25  C3  UNL     1      23.079   3.170  49.949  1.00  0.00    -0.092 C 
BRANCH  25  26
HETATM   26  C2  UNL     1      24.109   3.836  50.460  1.00  0.00     0.054 C 
HETATM   27  C1  UNL     1      23.897   4.339  51.796  1.00  0.00     0.071 C 
HETATM   28 CL1  UNL     1      25.468   3.957  49.428  1.00  0.00    -0.080 Cl
ENDBRANCH  25  26
ENDBRANCH  24  25
ENDBRANCH  22  24
ENDBRANCH   1  22
TORSDOF 9
ENDMDL
MODEL 8
REMARK VINA RESULT:      -6.4      3.300      5.491
REMARK  9 active torsions:
REMARK  status: ('A' for Active; 'I' for Inactive)
REMARK    1  A    between atoms: C2_2  and  C3_4 
REMARK    2  A    between atoms: C3_4  and  C4_5 
REMARK    3  A    between atoms: C4_5  and  N1_6 
REMARK    4  A    between atoms: N1_6  and  C5_7 
REMARK    5  A    between atoms: C8_10  and  O1_11 
REMARK    6  A    between atoms: O1_11  and  C9_12 
REMARK    7  A    between atoms: C9_12  and  C10_13 
REMARK    8  A    between atoms: C10_13  and  C11_14 
REMARK    9  A    between atoms: C11_14  and  N2_15 
ROOT
HETATM    1  C5  UNL     1      23.510   0.215  53.256  1.00  0.00     0.140 A 
HETATM    2  C6  UNL     1      24.476   0.865  52.593  1.00  0.00     0.024 A 
HETATM    3  C7  UNL     1      23.935   1.695  51.528  1.00  0.00     0.048 A 
HETATM    4  C8  UNL     1      24.840   2.385  50.810  1.00  0.00     0.050 A 
HETATM    5  C16 UNL     1      26.317   2.376  51.008  1.00  0.00     0.092 A 
HETATM    6  C17 UNL     1      26.704   1.484  52.127  1.00  0.00    -0.007 A 
HETATM    7  C18 UNL     1      25.897   0.760  52.894  1.00  0.00    -0.008 A 
HETATM    8  C19 UNL     1      26.577  -0.022  53.918  1.00  0.00     0.130 A 
HETATM    9  N3  UNL     1      26.055  -0.813  54.800  1.00  0.00    -0.253 NA
HETATM   10  C20 UNL     1      24.669  -1.115  54.989  1.00  0.00     0.234 A 
HETATM   11  N4  UNL     1      23.612  -0.696  54.358  1.00  0.00    -0.224 NA
ENDROOT
BRANCH   4  12
HETATM   12  O1  UNL     1      24.583   3.225  49.766  1.00  0.00    -0.355 OA
BRANCH  12  13
HETATM   13  C9  UNL     1      24.607   4.602  49.672  1.00  0.00     0.177 C 
BRANCH  13  14
HETATM   14  C10 UNL     1      23.298   5.005  48.987  1.00  0.00     0.057 C 
BRANCH  14  15
HETATM   15  C11 UNL     1      22.211   4.080  49.392  1.00  0.00     0.274 C 
BRANCH  15  16
HETATM   16  N2  UNL     1      21.092   4.856  49.913  1.00  0.00     0.092 N 
HETATM   17  C12 UNL     1      19.885   4.052  50.005  1.00  0.00     0.298 C 
HETATM   18  C13 UNL     1      19.543   3.839  51.451  1.00  0.00     0.198 C 
HETATM   19  O2  UNL     1      20.671   3.248  52.035  1.00  0.00    -0.388 OA
HETATM   20  C14 UNL     1      21.614   4.255  52.197  1.00  0.00     0.198 C 
HETATM   21  C15 UNL     1      21.436   5.385  51.219  1.00  0.00     0.298 C 
ENDBRANCH  15  16
ENDBRANCH  14  15
ENDBRANCH  13  14
ENDBRANCH  12  13
ENDBRANCH   4  12
BRANCH   1  22
HETATM   22  N1  UNL     1      22.169   0.453  52.812  1.00  0.00    -0.343 N 
HETATM   23  H5  UNL     1      21.866   0.766  51.866  1.00  0.00     0.167 HD
BRANCH  22  24
HETATM   24  C4  UNL     1      21.092   0.276  53.692  1.00  0.00     0.147 C 
BRANCH  24  25
HETATM   25  C3  UNL     1      19.906   0.009  53.166  1.00  0.00    -0.092 C 
BRANCH  25  26
HETATM   26  C2  UNL     1      18.817  -0.511  52.612  1.00  0.00     0.054 C 
HETATM   27  C1  UNL     1      18.396   0.134  51.391  1.00  0.00     0.071 C 
HETATM   28 CL1  UNL     1      18.140  -1.832  53.461  1.00  0.00    -0.080 Cl
ENDBRANCH  25  26
ENDBRANCH  24  25
ENDBRANCH  22  24
ENDBRANCH   1  22
TORSDOF 9
ENDMDL
MODEL 9
REMARK VINA RESULT:      -6.3      1.981      2.633
REMARK  9 active torsions:
REMARK  status: ('A' for Active; 'I' for Inactive)
REMARK    1  A    between atoms: C2_2  and  C3_4 
REMARK    2  A    between atoms: C3_4  and  C4_5 
REMARK    3  A    between atoms: C4_5  and  N1_6 
REMARK    4  A    between atoms: N1_6  and  C5_7 
REMARK    5  A    between atoms: C8_10  and  O1_11 
REMARK    6  A    between atoms: O1_11  and  C9_12 
REMARK    7  A    between atoms: C9_12  and  C10_13 
REMARK    8  A    between atoms: C10_13  and  C11_14 
REMARK    9  A    between atoms: C11_14  and  N2_15 
ROOT
HETATM    1  C5  UNL     1      25.928   1.752  52.279  1.00  0.00     0.140 A 
HETATM    2  C6  UNL     1      24.732   1.290  52.668  1.00  0.00     0.024 A 
HETATM    3  C7  UNL     1      23.648   2.147  52.216  1.00  0.00     0.048 A 
HETATM    4  C8  UNL     1      22.409   1.753  52.564  1.00  0.00     0.050 A 
HETATM    5  C16 UNL     1      22.058   0.539  53.354  1.00  0.00     0.092 A 
HETATM    6  C17 UNL     1      23.270  -0.223  53.737  1.00  0.00    -0.007 A 
HETATM    7  C18 UNL     1      24.532   0.077  53.449  1.00  0.00    -0.008 A 
HETATM    8  C19 UNL     1      25.511  -0.870  53.967  1.00  0.00     0.130 A 
HETATM    9  N3  UNL     1      26.799  -0.837  53.845  1.00  0.00    -0.253 NA
HETATM   10  C20 UNL     1      27.586   0.145  53.163  1.00  0.00     0.234 A 
HETATM   11  N4  UNL     1      27.236   1.217  52.515  1.00  0.00    -0.224 NA
ENDROOT
BRANCH   4  12
HETATM   12  O1  UNL     1      21.238   2.385  52.263  1.00  0.00    -0.355 OA
BRANCH  12  13
HETATM   13  C9  UNL     1      20.974   3.516  51.515  1.00  0.00     0.177 C 
BRANCH  13  14
HETATM   14  C10 UNL     1      20.490   3.018  50.149  1.00  0.00     0.057 C 
BRANCH  14  15
HETATM   15  C11 UNL     1      21.613   3.032  49.181  1.00  0.00     0.274 C 
BRANCH  15  16
HETATM   16  N2  UNL     1      21.121   2.617  47.872  1.00  0.00     0.092 N 
HETATM   17  C12 UNL     1      19.748   3.044  47.661  1.00  0.00     0.298 C 
HETATM   18  C13 UNL     1      19.719   4.101  46.595  1.00  0.00     0.198 C 
HETATM   19  O2  UNL     1      20.574   5.119  47.033  1.00  0.00    -0.388 OA
HETATM   20  C14 UNL     1      21.873   4.668  46.833  1.00  0.00     0.198 C 
HETATM   21  C15 UNL     1      21.976   3.167  46.838  1.00  0.00     0.298 C 
ENDBRANCH  15  16
ENDBRANCH  14  15
ENDBRANCH  13  14
ENDBRANCH  12  13
ENDBRANCH   4  12
BRANCH   1  22
HETATM   22  N1  UNL     1      25.916   2.962  51.511  1.00  0.00    -0.343 N 
HETATM   23  H5  UNL     1      25.532   3.886  51.799  1.00  0.00     0.167 HD
BRANCH  22  24
HETATM   24  C4  UNL     1      26.456   2.982  50.217  1.00  0.00     0.147 C 
BRANCH  24  25
HETATM   25  C3  UNL     1      26.604   4.160  49.631  1.00  0.00    -0.092 C 
BRANCH  25  26
HETATM   26  C2  UNL     1      26.880   5.199  48.851  1.00  0.00     0.054 C 
HETATM   27  C1  UNL     1      28.251   5.268  48.404  1.00  0.00     0.071 C 
HETATM   28 CL1  UNL     1      25.556   6.237  48.542  1.00  0.00    -0.080 Cl
ENDBRANCH  25  26
ENDBRANCH  24  25
ENDBRANCH  22  24
ENDBRANCH   1  22
TORSDOF 9
ENDMDL
