MODEL 1
REMARK VINA RESULT:     -10.0      0.000      0.000
REMARK  7 active torsions:
REMARK  status: ('A' for Active; 'I' for Inactive)
REMARK    1  A    between atoms: C5_5  and  C6_6 
REMARK       I    between atoms: C6_6  and  N1_8 
REMARK    2  A    between atoms: N1_8  and  C7_9 
REMARK    3  A    between atoms: C12_14  and  C13_15 
REMARK    4  A    between atoms: C13_15  and  C14_16 
REMARK    5  A    between atoms: C13_15  and  N3_19 
REMARK    6  A    between atoms: C15_17  and  N2_18 
REMARK    7  A    between atoms: C16_20  and  C17_21 
ROOT
HETATM    1  C7  UNL     1      23.687   3.192  52.060  1.00  0.00     0.035 A 
HETATM    2  C8  UNL     1      22.353   3.456  51.823  1.00  0.00     0.030 A 
HETATM    3  C9  UNL     1      21.464   2.473  52.233  1.00  0.00     0.009 A 
HETATM    4  C10 UNL     1      21.856   1.295  52.841  1.00  0.00    -0.053 A 
HETATM    5  C11 UNL     1      20.966   0.228  53.291  1.00  0.00     0.049 C 
HETATM    6  C12 UNL     1      23.196   1.053  53.067  1.00  0.00    -0.022 A 
HETATM    7  C22 UNL     1      24.121   2.030  52.664  1.00  0.00     0.039 A 
ENDROOT
BRANCH   6   8
HETATM    8  C13 UNL     1      23.853  -0.110  53.691  1.00  0.00     0.165 C 
BRANCH   8   9
HETATM    9  C14 UNL     1      22.925  -0.928  54.525  1.00  0.00     0.021 C 
HETATM   10  C15 UNL     1      23.305  -1.577  55.644  1.00  0.00     0.078 C 
BRANCH  10  11
HETATM   11  N2  UNL     1      24.678  -1.420  55.975  1.00  0.00    -0.408 N 
HETATM   12  H15 UNL     1      25.368  -1.554  55.180  1.00  0.00     0.155 HD
HETATM   13  H16 UNL     1      25.074  -1.184  56.929  1.00  0.00     0.155 HD
ENDBRANCH  10  11
ENDBRANCH   8   9
BRANCH   8  14
HETATM   14  N3  UNL     1      24.842  -0.786  52.992  1.00  0.00    -0.287 NA
HETATM   15  C16 UNL     1      26.061  -0.860  52.881  1.00  0.00     0.124 C 
BRANCH  15  16
HETATM   16  C17 UNL     1      27.462  -0.559  53.135  1.00  0.00    -0.002 A 
HETATM   17  C18 UNL     1      28.351  -1.610  53.164  1.00  0.00     0.016 A 
HETATM   18  C19 UNL     1      29.680  -1.323  53.405  1.00  0.00     0.020 A 
HETATM   19  C20 UNL     1      29.988   0.020  53.596  1.00  0.00     0.116 A 
HETATM   20  N4  UNL     1      29.077   1.008  53.557  1.00  0.00    -0.272 NA
HETATM   21  C21 UNL     1      27.776   0.759  53.324  1.00  0.00     0.129 A 
ENDBRANCH  15  16
ENDBRANCH   8  14
ENDBRANCH   6   8
BRANCH   1  22
HETATM   22  N1  UNL     1      24.583   4.226  51.627  1.00  0.00    -0.323 N 
HETATM   23  C6  UNL     1      24.979   4.001  50.274  1.00  0.00     0.256 C 
HETATM   24  O1  UNL     1      24.452   2.964  49.796  1.00  0.00    -0.267 OA
HETATM   25  H6  UNL     1      24.959   5.068  52.144  1.00  0.00     0.169 HD
BRANCH  23  26
HETATM   26  C5  UNL     1      25.899   4.903  49.557  1.00  0.00     0.032 A 
HETATM   27  C4  UNL     1      25.650   6.234  49.288  1.00  0.00     0.017 A 
HETATM   28  C3  UNL     1      26.634   6.916  48.604  1.00  0.00     0.007 A 
HETATM   29  C2  UNL     1      27.824   6.379  48.178  1.00  0.00    -0.062 A 
HETATM   30  C1  UNL     1      28.849   7.166  47.445  1.00  0.00     0.048 C 
HETATM   31  C24 UNL     1      28.019   5.049  48.475  1.00  0.00     0.007 A 
HETATM   32  C23 UNL     1      27.091   4.286  49.155  1.00  0.00     0.017 A 
ENDBRANCH  23  26
ENDBRANCH   1  22
TORSDOF 7
ENDMDL
MODEL 2
REMARK VINA RESULT:      -9.6      1.485      1.767
REMARK  7 active torsions:
REMARK  status: ('A' for Active; 'I' for Inactive)
REMARK    1  A    between atoms: C5_5  and  C6_6 
REMARK       I    between atoms: C6_6  and  N1_8 
REMARK    2  A    between atoms: N1_8  and  C7_9 
REMARK    3  A    between atoms: C12_14  and  C13_15 
REMARK    4  A    between atoms: C13_15  and  C14_16 
REMARK    5  A    between atoms: C13_15  and  N3_19 
REMARK    6  A    between atoms: C15_17  and  N2_18 
REMARK    7  A    between atoms: C16_20  and  C17_21 
ROOT
HETATM    1  C7  UNL     1      23.672   3.153  50.152  1.00  0.00     0.035 A 
HETATM    2  C8  UNL     1      22.434   3.691  49.867  1.00  0.00     0.030 A 
HETATM    3  C9  UNL     1      21.397   3.283  50.694  1.00  0.00     0.009 A 
HETATM    4  C10 UNL     1      21.561   2.398  51.743  1.00  0.00    -0.053 A 
HETATM    5  C11 UNL     1      20.508   1.934  52.643  1.00  0.00     0.049 C 
HETATM    6  C12 UNL     1      22.809   1.872  52.008  1.00  0.00    -0.022 A 
HETATM    7  C22 UNL     1      23.879   2.267  51.188  1.00  0.00     0.039 A 
ENDROOT
BRANCH   6   8
HETATM    8  C13 UNL     1      23.232   0.925  53.056  1.00  0.00     0.165 C 
BRANCH   8   9
HETATM    9  C14 UNL     1      22.813  -0.480  52.777  1.00  0.00     0.021 C 
HETATM   10  C15 UNL     1      22.178  -1.260  53.674  1.00  0.00     0.078 C 
BRANCH  10  11
HETATM   11  N2  UNL     1      21.931  -0.632  54.926  1.00  0.00    -0.408 N 
HETATM   12  H15 UNL     1      22.501  -0.990  55.746  1.00  0.00     0.155 HD
HETATM   13  H16 UNL     1      21.241   0.149  55.114  1.00  0.00     0.155 HD
ENDBRANCH  10  11
ENDBRANCH   8   9
BRANCH   8  14
HETATM   14  N3  UNL     1      24.453   1.111  53.687  1.00  0.00    -0.287 NA
HETATM   15  C16 UNL     1      25.568   0.611  53.790  1.00  0.00     0.124 C 
BRANCH  15  16
HETATM   16  C17 UNL     1      26.651  -0.334  53.565  1.00  0.00    -0.002 A 
HETATM   17  C18 UNL     1      26.399  -1.421  52.758  1.00  0.00     0.016 A 
HETATM   18  C19 UNL     1      27.427  -2.318  52.545  1.00  0.00     0.020 A 
HETATM   19  C20 UNL     1      28.631  -2.024  53.178  1.00  0.00     0.116 A 
HETATM   20  N4  UNL     1      28.822  -0.946  53.958  1.00  0.00    -0.272 NA
HETATM   21  C21 UNL     1      27.839  -0.056  54.183  1.00  0.00     0.129 A 
ENDBRANCH  15  16
ENDBRANCH   8  14
ENDBRANCH   6   8
BRANCH   1  22
HETATM   22  N1  UNL     1      24.725   3.593  49.281  1.00  0.00    -0.323 N 
HETATM   23  C6  UNL     1      25.251   4.841  49.733  1.00  0.00     0.256 C 
HETATM   24  O1  UNL     1      24.671   5.246  50.773  1.00  0.00    -0.267 OA
HETATM   25  H6  UNL     1      25.128   3.145  48.413  1.00  0.00     0.169 HD
BRANCH  23  26
HETATM   26  C5  UNL     1      26.346   5.540  49.036  1.00  0.00     0.032 A 
HETATM   27  C4  UNL     1      26.283   6.837  48.569  1.00  0.00     0.017 A 
HETATM   28  C3  UNL     1      27.412   7.318  47.940  1.00  0.00     0.007 A 
HETATM   29  C2  UNL     1      28.576   6.614  47.748  1.00  0.00    -0.062 A 
HETATM   30  C1  UNL     1      29.763   7.187  47.063  1.00  0.00     0.048 C 
HETATM   31  C24 UNL     1      28.582   5.326  48.235  1.00  0.00     0.007 A 
HETATM   32  C23 UNL     1      27.499   4.759  48.877  1.00  0.00     0.017 A 
ENDBRANCH  23  26
ENDBRANCH   1  22
TORSDOF 7
ENDMDL
MODEL 3
REMARK VINA RESULT:      -9.6      2.087      3.589
REMARK  7 active torsions:
REMARK  status: ('A' for Active; 'I' for Inactive)
REMARK    1  A    between atoms: C5_5  and  C6_6 
REMARK       I    between atoms: C6_6  and  N1_8 
REMARK    2  A    between atoms: N1_8  and  C7_9 
REMARK    3  A    between atoms: C12_14  and  C13_15 
REMARK    4  A    between atoms: C13_15  and  C14_16 
REMARK    5  A    between atoms: C13_15  and  N3_19 
REMARK    6  A    between atoms: C15_17  and  N2_18 
REMARK    7  A    between atoms: C16_20  and  C17_21 
ROOT
HETATM    1  C7  UNL     1      23.999   5.050  50.864  1.00  0.00     0.035 A 
HETATM    2  C8  UNL     1      23.149   6.096  51.159  1.00  0.00     0.030 A 
HETATM    3  C9  UNL     1      21.832   5.744  51.423  1.00  0.00     0.009 A 
HETATM    4  C10 UNL     1      21.373   4.440  51.401  1.00  0.00    -0.053 A 
HETATM    5  C11 UNL     1      20.002   4.013  51.670  1.00  0.00     0.049 C 
HETATM    6  C12 UNL     1      22.242   3.411  51.104  1.00  0.00    -0.022 A 
HETATM    7  C22 UNL     1      23.581   3.735  50.832  1.00  0.00     0.039 A 
ENDROOT
BRANCH   6   8
HETATM    8  C13 UNL     1      21.994   1.960  51.020  1.00  0.00     0.165 C 
BRANCH   8   9
HETATM    9  C14 UNL     1      22.264   1.397  49.666  1.00  0.00     0.021 C 
HETATM   10  C15 UNL     1      21.294   1.070  48.788  1.00  0.00     0.078 C 
BRANCH  10  11
HETATM   11  N2  UNL     1      19.973   1.306  49.259  1.00  0.00    -0.408 N 
HETATM   12  H15 UNL     1      19.791   1.067  50.276  1.00  0.00     0.155 HD
HETATM   13  H16 UNL     1      19.164   1.694  48.697  1.00  0.00     0.155 HD
ENDBRANCH  10  11
ENDBRANCH   8   9
BRANCH   8  14
HETATM   14  N3  UNL     1      22.289   1.157  52.113  1.00  0.00    -0.287 NA
HETATM   15  C16 UNL     1      23.233   0.627  52.689  1.00  0.00     0.124 C 
BRANCH  15  16
HETATM   16  C17 UNL     1      24.613   0.251  52.959  1.00  0.00    -0.002 A 
HETATM   17  C18 UNL     1      25.588   0.731  52.114  1.00  0.00     0.016 A 
HETATM   18  C19 UNL     1      26.896   0.375  52.372  1.00  0.00     0.020 A 
HETATM   19  C20 UNL     1      27.097  -0.447  53.477  1.00  0.00     0.116 A 
HETATM   20  N4  UNL     1      26.105  -0.888  54.269  1.00  0.00    -0.272 NA
HETATM   21  C21 UNL     1      24.822  -0.557  54.043  1.00  0.00     0.129 A 
ENDBRANCH  15  16
ENDBRANCH   8  14
ENDBRANCH   6   8
BRANCH   1  22
HETATM   22  N1  UNL     1      25.353   5.443  50.596  1.00  0.00    -0.323 N 
HETATM   23  C6  UNL     1      25.541   5.643  49.195  1.00  0.00     0.256 C 
HETATM   24  O1  UNL     1      24.486   5.429  48.544  1.00  0.00    -0.267 OA
HETATM   25  H6  UNL     1      26.167   5.591  51.255  1.00  0.00     0.169 HD
BRANCH  23  26
HETATM   26  C5  UNL     1      26.835   6.054  48.619  1.00  0.00     0.032 A 
HETATM   27  C4  UNL     1      27.095   7.291  48.066  1.00  0.00     0.017 A 
HETATM   28  C3  UNL     1      28.370   7.488  47.577  1.00  0.00     0.007 A 
HETATM   29  C2  UNL     1      29.382   6.560  47.600  1.00  0.00    -0.062 A 
HETATM   30  C1  UNL     1      30.738   6.831  47.057  1.00  0.00     0.048 C 
HETATM   31  C24 UNL     1      29.065   5.345  48.164  1.00  0.00     0.007 A 
HETATM   32  C23 UNL     1      27.818   5.056  48.679  1.00  0.00     0.017 A 
ENDBRANCH  23  26
ENDBRANCH   1  22
TORSDOF 7
ENDMDL
MODEL 4
REMARK VINA RESULT:      -9.4      3.333      7.062
REMARK  7 active torsions:
REMARK  status: ('A' for Active; 'I' for Inactive)
REMARK    1  A    between atoms: C5_5  and  C6_6 
REMARK       I    between atoms: C6_6  and  N1_8 
REMARK    2  A    between atoms: N1_8  and  C7_9 
REMARK    3  A    between atoms: C12_14  and  C13_15 
REMARK    4  A    between atoms: C13_15  and  C14_16 
REMARK    5  A    between atoms: C13_15  and  N3_19 
REMARK    6  A    between atoms: C15_17  and  N2_18 
REMARK    7  A    between atoms: C16_20  and  C17_21 
ROOT
HETATM    1  C7  UNL     1      24.084   3.559  51.543  1.00  0.00     0.035 A 
HETATM    2  C8  UNL     1      23.529   4.397  52.488  1.00  0.00     0.030 A 
HETATM    3  C9  UNL     1      22.223   4.798  52.245  1.00  0.00     0.009 A 
HETATM    4  C10 UNL     1      21.498   4.400  51.137  1.00  0.00    -0.053 A 
HETATM    5  C11 UNL     1      20.124   4.790  50.830  1.00  0.00     0.049 C 
HETATM    6  C12 UNL     1      22.074   3.562  50.205  1.00  0.00    -0.022 A 
HETATM    7  C22 UNL     1      23.395   3.139  50.423  1.00  0.00     0.039 A 
ENDROOT
BRANCH   6   8
HETATM    8  C13 UNL     1      21.512   3.006  48.959  1.00  0.00     0.165 C 
BRANCH   8   9
HETATM    9  C14 UNL     1      22.390   3.225  47.774  1.00  0.00     0.021 C 
HETATM   10  C15 UNL     1      21.921   3.531  46.547  1.00  0.00     0.078 C 
BRANCH  10  11
HETATM   11  N2  UNL     1      20.505   3.633  46.468  1.00  0.00    -0.408 N 
HETATM   12  H15 UNL     1      20.110   3.918  45.525  1.00  0.00     0.155 HD
HETATM   13  H16 UNL     1      19.816   3.454  47.252  1.00  0.00     0.155 HD
ENDBRANCH  10  11
ENDBRANCH   8   9
BRANCH   8  14
HETATM   14  N3  UNL     1      20.794   1.820  49.009  1.00  0.00    -0.287 NA
HETATM   15  C16 UNL     1      20.324   1.013  49.804  1.00  0.00     0.124 C 
BRANCH  15  16
HETATM   16  C17 UNL     1      19.995   0.419  51.091  1.00  0.00    -0.002 A 
HETATM   17  C18 UNL     1      21.013   0.256  52.003  1.00  0.00     0.016 A 
HETATM   18  C19 UNL     1      20.700  -0.308  53.224  1.00  0.00     0.020 A 
HETATM   19  C20 UNL     1      19.366  -0.658  53.408  1.00  0.00     0.116 A 
HETATM   20  N4  UNL     1      18.411  -0.477  52.480  1.00  0.00    -0.272 NA
HETATM   21  C21 UNL     1      18.686   0.070  51.283  1.00  0.00     0.129 A 
ENDBRANCH  15  16
ENDBRANCH   8  14
ENDBRANCH   6   8
BRANCH   1  22
HETATM   22  N1  UNL     1      25.434   3.162  51.821  1.00  0.00    -0.323 N 
HETATM   23  C6  UNL     1      25.458   1.847  52.378  1.00  0.00     0.256 C 
HETATM   24  O1  UNL     1      24.302   1.363  52.487  1.00  0.00    -0.267 OA
HETATM   25  H6  UNL     1      26.345   3.680  51.677  1.00  0.00     0.169 HD
BRANCH  23  26
HETATM   26  C5  UNL     1      26.710   1.172  52.765  1.00  0.00     0.032 A 
HETATM   27  C4  UNL     1      27.861   1.817  53.169  1.00  0.00     0.017 A 
HETATM   28  C3  UNL     1      28.934   1.012  53.493  1.00  0.00     0.007 A 
HETATM   29  C2  UNL     1      28.940  -0.360  53.444  1.00  0.00    -0.062 A 
HETATM   30  C1  UNL     1      30.129  -1.175  53.806  1.00  0.00     0.048 C 
HETATM   31  C24 UNL     1      27.765  -0.949  53.034  1.00  0.00     0.007 A 
HETATM   32  C23 UNL     1      26.641  -0.225  52.691  1.00  0.00     0.017 A 
ENDBRANCH  23  26
ENDBRANCH   1  22
TORSDOF 7
ENDMDL
MODEL 5
REMARK VINA RESULT:      -9.4      2.585      6.531
REMARK  7 active torsions:
REMARK  status: ('A' for Active; 'I' for Inactive)
REMARK    1  A    between atoms: C5_5  and  C6_6 
REMARK       I    between atoms: C6_6  and  N1_8 
REMARK    2  A    between atoms: N1_8  and  C7_9 
REMARK    3  A    between atoms: C12_14  and  C13_15 
REMARK    4  A    between atoms: C13_15  and  C14_16 
REMARK    5  A    between atoms: C13_15  and  N3_19 
REMARK    6  A    between atoms: C15_17  and  N2_18 
REMARK    7  A    between atoms: C16_20  and  C17_21 
ROOT
HETATM    1  C7  UNL     1      24.277   3.590  50.920  1.00  0.00     0.035 A 
HETATM    2  C8  UNL     1      24.713   4.891  50.768  1.00  0.00     0.030 A 
HETATM    3  C9  UNL     1      23.718   5.858  50.730  1.00  0.00     0.009 A 
HETATM    4  C10 UNL     1      22.370   5.570  50.837  1.00  0.00    -0.053 A 
HETATM    5  C11 UNL     1      21.283   6.544  50.804  1.00  0.00     0.049 C 
HETATM    6  C12 UNL     1      21.958   4.261  50.989  1.00  0.00    -0.022 A 
HETATM    7  C22 UNL     1      22.941   3.260  51.030  1.00  0.00     0.039 A 
ENDROOT
BRANCH   6   8
HETATM    8  C13 UNL     1      20.597   3.710  51.123  1.00  0.00     0.165 C 
BRANCH   8   9
HETATM    9  C14 UNL     1      20.090   3.093  49.863  1.00  0.00     0.021 C 
HETATM   10  C15 UNL     1      18.885   3.376  49.328  1.00  0.00     0.078 C 
BRANCH  10  11
HETATM   11  N2  UNL     1      18.123   4.323  50.066  1.00  0.00    -0.408 N 
HETATM   12  H15 UNL     1      17.609   5.055  49.494  1.00  0.00     0.155 HD
HETATM   13  H16 UNL     1      18.022   4.367  51.119  1.00  0.00     0.155 HD
ENDBRANCH  10  11
ENDBRANCH   8   9
BRANCH   8  14
HETATM   14  N3  UNL     1      20.221   3.115  52.319  1.00  0.00    -0.287 NA
HETATM   15  C16 UNL     1      20.410   2.109  52.994  1.00  0.00     0.124 C 
BRANCH  15  16
HETATM   16  C17 UNL     1      20.960   0.814  53.363  1.00  0.00    -0.002 A 
HETATM   17  C18 UNL     1      22.330   0.677  53.379  1.00  0.00     0.016 A 
HETATM   18  C19 UNL     1      22.851  -0.552  53.730  1.00  0.00     0.020 A 
HETATM   19  C20 UNL     1      21.922  -1.542  54.037  1.00  0.00     0.116 A 
HETATM   20  N4  UNL     1      20.592  -1.353  54.004  1.00  0.00    -0.272 NA
HETATM   21  C21 UNL     1      20.056  -0.167  53.667  1.00  0.00     0.129 A 
ENDBRANCH  15  16
ENDBRANCH   8  14
ENDBRANCH   6   8
BRANCH   1  22
HETATM   22  N1  UNL     1      25.326   2.612  50.955  1.00  0.00    -0.323 N 
HETATM   23  C6  UNL     1      25.619   2.251  52.305  1.00  0.00     0.256 C 
HETATM   24  O1  UNL     1      24.895   2.870  53.125  1.00  0.00    -0.267 OA
HETATM   25  H6  UNL     1      25.869   2.161  50.168  1.00  0.00     0.169 HD
BRANCH  23  26
HETATM   26  C5  UNL     1      26.657   1.263  52.654  1.00  0.00     0.032 A 
HETATM   27  C4  UNL     1      26.513  -0.105  52.546  1.00  0.00     0.017 A 
HETATM   28  C3  UNL     1      27.598  -0.869  52.921  1.00  0.00     0.007 A 
HETATM   29  C2  UNL     1      28.793  -0.376  53.386  1.00  0.00    -0.062 A 
HETATM   30  C1  UNL     1      29.930  -1.250  53.775  1.00  0.00     0.048 C 
HETATM   31  C24 UNL     1      28.881   0.996  53.472  1.00  0.00     0.007 A 
HETATM   32  C23 UNL     1      27.847   1.839  53.119  1.00  0.00     0.017 A 
ENDBRANCH  23  26
ENDBRANCH   1  22
TORSDOF 7
ENDMDL
MODEL 6
REMARK VINA RESULT:      -9.3      3.592      7.020
REMARK  7 active torsions:
REMARK  status: ('A' for Active; 'I' for Inactive)
REMARK    1  A    between atoms: C5_5  and  C6_6 
REMARK       I    between atoms: C6_6  and  N1_8 
REMARK    2  A    between atoms: N1_8  and  C7_9 
REMARK    3  A    between atoms: C12_14  and  C13_15 
REMARK    4  A    between atoms: C13_15  and  C14_16 
REMARK    5  A    between atoms: C13_15  and  N3_19 
REMARK    6  A    between atoms: C15_17  and  N2_18 
REMARK    7  A    between atoms: C16_20  and  C17_21 
ROOT
HETATM    1  C7  UNL     1      21.265   1.239  51.618  1.00  0.00     0.035 A 
HETATM    2  C8  UNL     1      21.550   2.581  51.464  1.00  0.00     0.030 A 
HETATM    3  C9  UNL     1      22.717   3.021  52.072  1.00  0.00     0.009 A 
HETATM    4  C10 UNL     1      23.561   2.195  52.791  1.00  0.00    -0.053 A 
HETATM    5  C11 UNL     1      24.799   2.602  53.451  1.00  0.00     0.049 C 
HETATM    6  C12 UNL     1      23.255   0.856  52.932  1.00  0.00    -0.022 A 
HETATM    7  C22 UNL     1      22.080   0.381  52.327  1.00  0.00     0.039 A 
ENDROOT
BRANCH   6   8
HETATM    8  C13 UNL     1      23.987  -0.210  53.640  1.00  0.00     0.165 C 
BRANCH   8   9
HETATM    9  C14 UNL     1      23.122  -0.994  54.569  1.00  0.00     0.021 C 
HETATM   10  C15 UNL     1      23.568  -1.544  55.716  1.00  0.00     0.078 C 
BRANCH  10  11
HETATM   11  N2  UNL     1      24.947  -1.315  55.979  1.00  0.00    -0.408 N 
HETATM   12  H15 UNL     1      25.188  -0.382  56.422  1.00  0.00     0.155 HD
HETATM   13  H16 UNL     1      25.746  -1.980  55.776  1.00  0.00     0.155 HD
ENDBRANCH  10  11
ENDBRANCH   8   9
BRANCH   8  14
HETATM   14  N3  UNL     1      24.995  -0.896  52.978  1.00  0.00    -0.287 NA
HETATM   15  C16 UNL     1      26.217  -0.960  52.891  1.00  0.00     0.124 C 
BRANCH  15  16
HETATM   16  C17 UNL     1      27.609  -0.637  53.160  1.00  0.00    -0.002 A 
HETATM   17  C18 UNL     1      27.928   0.680  53.406  1.00  0.00     0.016 A 
HETATM   18  C19 UNL     1      29.250   0.986  53.661  1.00  0.00     0.020 A 
HETATM   19  C20 UNL     1      30.137  -0.086  53.644  1.00  0.00     0.116 A 
HETATM   20  N4  UNL     1      29.770  -1.356  53.397  1.00  0.00    -0.272 NA
HETATM   21  C21 UNL     1      28.490  -1.683  53.145  1.00  0.00     0.129 A 
ENDBRANCH  15  16
ENDBRANCH   8  14
ENDBRANCH   6   8
BRANCH   1  22
HETATM   22  N1  UNL     1      20.053   0.813  50.979  1.00  0.00    -0.323 N 
HETATM   23  C6  UNL     1      19.180   0.206  51.931  1.00  0.00     0.256 C 
HETATM   24  O1  UNL     1      19.679   0.193  53.085  1.00  0.00    -0.267 OA
HETATM   25  H6  UNL     1      19.749   0.885  49.969  1.00  0.00     0.169 HD
BRANCH  23  26
HETATM   26  C5  UNL     1      17.856  -0.331  51.564  1.00  0.00     0.032 A 
HETATM   27  C4  UNL     1      17.034  -1.049  52.409  1.00  0.00     0.017 A 
HETATM   28  C3  UNL     1      15.830  -1.468  51.883  1.00  0.00     0.007 A 
HETATM   29  C2  UNL     1      15.395  -1.226  50.603  1.00  0.00    -0.062 A 
HETATM   30  C1  UNL     1      14.084  -1.703  50.093  1.00  0.00     0.048 C 
HETATM   31  C24 UNL     1      16.255  -0.504  49.806  1.00  0.00     0.007 A 
HETATM   32  C23 UNL     1      17.480  -0.044  50.245  1.00  0.00     0.017 A 
ENDBRANCH  23  26
ENDBRANCH   1  22
TORSDOF 7
ENDMDL
MODEL 7
REMARK VINA RESULT:      -9.2      2.571      5.645
REMARK  7 active torsions:
REMARK  status: ('A' for Active; 'I' for Inactive)
REMARK    1  A    between atoms: C5_5  and  C6_6 
REMARK       I    between atoms: C6_6  and  N1_8 
REMARK    2  A    between atoms: N1_8  and  C7_9 
REMARK    3  A    between atoms: C12_14  and  C13_15 
REMARK    4  A    between atoms: C13_15  and  C14_16 
REMARK    5  A    between atoms: C13_15  and  N3_19 
REMARK    6  A    between atoms: C15_17  and  N2_18 
REMARK    7  A    between atoms: C16_20  and  C17_21 
ROOT
HETATM    1  C7  UNL     1      25.538   2.888  51.576  1.00  0.00     0.035 A 
HETATM    2  C8  UNL     1      26.714   2.291  51.980  1.00  0.00     0.030 A 
HETATM    3  C9  UNL     1      26.588   1.021  52.525  1.00  0.00     0.009 A 
HETATM    4  C10 UNL     1      25.377   0.369  52.665  1.00  0.00    -0.053 A 
HETATM    5  C11 UNL     1      25.185  -0.965  53.230  1.00  0.00     0.049 C 
HETATM    6  C12 UNL     1      24.214   0.986  52.254  1.00  0.00    -0.022 A 
HETATM    7  C22 UNL     1      24.309   2.272  51.699  1.00  0.00     0.039 A 
ENDROOT
BRANCH   6   8
HETATM    8  C13 UNL     1      22.821   0.502  52.298  1.00  0.00     0.165 C 
BRANCH   8   9
HETATM    9  C14 UNL     1      22.149   0.775  53.601  1.00  0.00     0.021 C 
HETATM   10  C15 UNL     1      21.569  -0.181  54.355  1.00  0.00     0.078 C 
BRANCH  10  11
HETATM   11  N2  UNL     1      21.649  -1.490  53.805  1.00  0.00    -0.408 N 
HETATM   12  H15 UNL     1      21.793  -2.280  54.500  1.00  0.00     0.155 HD
HETATM   13  H16 UNL     1      21.580  -1.749  52.780  1.00  0.00     0.155 HD
ENDBRANCH  10  11
ENDBRANCH   8   9
BRANCH   8  14
HETATM   14  N3  UNL     1      22.042   0.573  51.153  1.00  0.00    -0.287 NA
HETATM   15  C16 UNL     1      20.872   0.618  50.787  1.00  0.00     0.124 C 
BRANCH  15  16
HETATM   16  C17 UNL     1      19.422   0.647  50.899  1.00  0.00    -0.002 A 
HETATM   17  C18 UNL     1      18.834  -0.144  51.861  1.00  0.00     0.016 A 
HETATM   18  C19 UNL     1      17.458  -0.115  51.966  1.00  0.00     0.020 A 
HETATM   19  C20 UNL     1      16.797   0.725  51.076  1.00  0.00     0.116 A 
HETATM   20  N4  UNL     1      17.422   1.477  50.154  1.00  0.00    -0.272 NA
HETATM   21  C21 UNL     1      18.761   1.470  50.028  1.00  0.00     0.129 A 
ENDBRANCH  15  16
ENDBRANCH   8  14
ENDBRANCH   6   8
BRANCH   1  22
HETATM   22  N1  UNL     1      25.699   4.200  51.017  1.00  0.00    -0.323 N 
HETATM   23  C6  UNL     1      26.348   4.120  49.749  1.00  0.00     0.256 C 
HETATM   24  O1  UNL     1      26.618   2.933  49.432  1.00  0.00    -0.267 OA
HETATM   25  H6  UNL     1      25.419   5.146  51.398  1.00  0.00     0.169 HD
BRANCH  23  26
HETATM   26  C5  UNL     1      26.650   5.313  48.935  1.00  0.00     0.032 A 
HETATM   27  C4  UNL     1      25.728   6.276  48.576  1.00  0.00     0.017 A 
HETATM   28  C3  UNL     1      26.200   7.321  47.810  1.00  0.00     0.007 A 
HETATM   29  C2  UNL     1      27.498   7.473  47.387  1.00  0.00    -0.062 A 
HETATM   30  C1  UNL     1      27.949   8.624  46.563  1.00  0.00     0.048 C 
HETATM   31  C24 UNL     1      28.373   6.483  47.776  1.00  0.00     0.007 A 
HETATM   32  C23 UNL     1      27.991   5.400  48.542  1.00  0.00     0.017 A 
ENDBRANCH  23  26
ENDBRANCH   1  22
TORSDOF 7
ENDMDL
MODEL 8
REMARK VINA RESULT:      -9.0      2.584      5.189
REMARK  7 active torsions:
REMARK  status: ('A' for Active; 'I' for Inactive)
REMARK    1  A    between atoms: C5_5  and  C6_6 
REMARK       I    between atoms: C6_6  and  N1_8 
REMARK    2  A    between atoms: N1_8  and  C7_9 
REMARK    3  A    between atoms: C12_14  and  C13_15 
REMARK    4  A    between atoms: C13_15  and  C14_16 
REMARK    5  A    between atoms: C13_15  and  N3_19 
REMARK    6  A    between atoms: C15_17  and  N2_18 
REMARK    7  A    between atoms: C16_20  and  C17_21 
ROOT
HETATM    1  C7  UNL     1      24.880   2.927  51.782  1.00  0.00     0.035 A 
HETATM    2  C8  UNL     1      26.051   2.359  52.241  1.00  0.00     0.030 A 
HETATM    3  C9  UNL     1      25.928   1.091  52.792  1.00  0.00     0.009 A 
HETATM    4  C10 UNL     1      24.726   0.415  52.888  1.00  0.00    -0.053 A 
HETATM    5  C11 UNL     1      24.538  -0.917  53.458  1.00  0.00     0.049 C 
HETATM    6  C12 UNL     1      23.568   1.003  52.423  1.00  0.00    -0.022 A 
HETATM    7  C22 UNL     1      23.660   2.287  51.860  1.00  0.00     0.039 A 
ENDROOT
BRANCH   6   8
HETATM    8  C13 UNL     1      22.186   0.490  52.413  1.00  0.00     0.165 C 
BRANCH   8   9
HETATM    9  C14 UNL     1      21.321   1.121  53.452  1.00  0.00     0.021 C 
HETATM   10  C15 UNL     1      20.600   0.418  54.348  1.00  0.00     0.078 C 
BRANCH  10  11
HETATM   11  N2  UNL     1      20.729  -0.993  54.227  1.00  0.00    -0.408 N 
HETATM   12  H15 UNL     1      20.679  -1.545  55.132  1.00  0.00     0.155 HD
HETATM   13  H16 UNL     1      20.868  -1.538  53.330  1.00  0.00     0.155 HD
ENDBRANCH  10  11
ENDBRANCH   8   9
BRANCH   8  14
HETATM   14  N3  UNL     1      21.591   0.165  51.203  1.00  0.00    -0.287 NA
HETATM   15  C16 UNL     1      21.309   0.645  50.110  1.00  0.00     0.124 C 
BRANCH  15  16
HETATM   16  C17 UNL     1      21.215   1.645  49.058  1.00  0.00    -0.002 A 
HETATM   17  C18 UNL     1      22.382   2.056  48.455  1.00  0.00     0.016 A 
HETATM   18  C19 UNL     1      22.292   3.004  47.455  1.00  0.00     0.020 A 
HETATM   19  C20 UNL     1      21.009   3.454  47.157  1.00  0.00     0.116 A 
HETATM   20  N4  UNL     1      19.901   3.017  47.780  1.00  0.00    -0.272 NA
HETATM   21  C21 UNL     1      19.958   2.094  48.756  1.00  0.00     0.129 A 
ENDBRANCH  15  16
ENDBRANCH   8  14
ENDBRANCH   6   8
BRANCH   1  22
HETATM   22  N1  UNL     1      25.037   4.237  51.218  1.00  0.00    -0.323 N 
HETATM   23  C6  UNL     1      25.580   4.146  49.901  1.00  0.00     0.256 C 
HETATM   24  O1  UNL     1      25.785   2.953  49.559  1.00  0.00    -0.267 OA
HETATM   25  H6  UNL     1      24.819   5.189  51.624  1.00  0.00     0.169 HD
BRANCH  23  26
HETATM   26  C5  UNL     1      25.852   5.334  49.071  1.00  0.00     0.032 A 
HETATM   27  C4  UNL     1      27.108   5.747  48.672  1.00  0.00     0.017 A 
HETATM   28  C3  UNL     1      27.161   6.886  47.897  1.00  0.00     0.007 A 
HETATM   29  C2  UNL     1      26.076   7.627  47.498  1.00  0.00    -0.062 A 
HETATM   30  C1  UNL     1      26.196   8.848  46.660  1.00  0.00     0.048 C 
HETATM   31  C24 UNL     1      24.850   7.168  47.924  1.00  0.00     0.007 A 
HETATM   32  C23 UNL     1      24.699   6.039  48.703  1.00  0.00     0.017 A 
ENDBRANCH  23  26
ENDBRANCH   1  22
TORSDOF 7
ENDMDL
MODEL 9
REMARK VINA RESULT:      -9.0      4.275      9.008
REMARK  7 active torsions:
REMARK  status: ('A' for Active; 'I' for Inactive)
REMARK    1  A    between atoms: C5_5  and  C6_6 
REMARK       I    between atoms: C6_6  and  N1_8 
REMARK    2  A    between atoms: N1_8  and  C7_9 
REMARK    3  A    between atoms: C12_14  and  C13_15 
REMARK    4  A    between atoms: C13_15  and  C14_16 
REMARK    5  A    between atoms: C13_15  and  N3_19 
REMARK    6  A    between atoms: C15_17  and  N2_18 
REMARK    7  A    between atoms: C16_20  and  C17_21 
ROOT
HETATM    1  C7  UNL     1      26.663   5.920  49.113  1.00  0.00     0.035 A 
HETATM    2  C8  UNL     1      25.860   6.757  48.365  1.00  0.00     0.030 A 
HETATM    3  C9  UNL     1      26.511   7.499  47.389  1.00  0.00     0.009 A 
HETATM    4  C10 UNL     1      27.872   7.426  47.156  1.00  0.00    -0.053 A 
HETATM    5  C11 UNL     1      28.608   8.182  46.146  1.00  0.00     0.049 C 
HETATM    6  C12 UNL     1      28.654   6.582  47.918  1.00  0.00    -0.022 A 
HETATM    7  C22 UNL     1      28.024   5.818  48.914  1.00  0.00     0.039 A 
ENDROOT
BRANCH   6   8
HETATM    8  C13 UNL     1      30.106   6.332  47.860  1.00  0.00     0.165 C 
BRANCH   8   9
HETATM    9  C14 UNL     1      30.890   7.235  48.751  1.00  0.00     0.021 C 
HETATM   10  C15 UNL     1      31.894   8.022  48.315  1.00  0.00     0.078 C 
BRANCH  10  11
HETATM   11  N2  UNL     1      32.153   7.925  46.920  1.00  0.00    -0.408 N 
HETATM   12  H15 UNL     1      32.527   8.801  46.453  1.00  0.00     0.155 HD
HETATM   13  H16 UNL     1      32.010   7.070  46.311  1.00  0.00     0.155 HD
ENDBRANCH  10  11
ENDBRANCH   8   9
BRANCH   8  14
HETATM   14  N3  UNL     1      30.565   5.031  47.711  1.00  0.00    -0.287 NA
HETATM   15  C16 UNL     1      31.518   4.391  47.280  1.00  0.00     0.124 C 
BRANCH  15  16
HETATM   16  C17 UNL     1      32.811   4.146  46.658  1.00  0.00    -0.002 A 
HETATM   17  C18 UNL     1      33.773   3.506  47.406  1.00  0.00     0.016 A 
HETATM   18  C19 UNL     1      34.999   3.273  46.816  1.00  0.00     0.020 A 
HETATM   19  C20 UNL     1      35.137   3.718  45.505  1.00  0.00     0.116 A 
HETATM   20  N4  UNL     1      34.162   4.340  44.820  1.00  0.00    -0.272 NA
HETATM   21  C21 UNL     1      32.958   4.580  45.369  1.00  0.00     0.129 A 
ENDBRANCH  15  16
ENDBRANCH   8  14
ENDBRANCH   6   8
BRANCH   1  22
HETATM   22  N1  UNL     1      25.963   5.166  50.114  1.00  0.00    -0.323 N 
HETATM   23  C6  UNL     1      26.200   3.769  49.936  1.00  0.00     0.256 C 
HETATM   24  O1  UNL     1      26.956   3.542  48.956  1.00  0.00    -0.267 OA
HETATM   25  H6  UNL     1      25.341   5.489  50.906  1.00  0.00     0.169 HD
BRANCH  23  26
HETATM   26  C5  UNL     1      25.610   2.746  50.818  1.00  0.00     0.032 A 
HETATM   27  C4  UNL     1      24.261   2.615  51.082  1.00  0.00     0.017 A 
HETATM   28  C3  UNL     1      23.900   1.593  51.935  1.00  0.00     0.007 A 
HETATM   29  C2  UNL     1      24.768   0.711  52.530  1.00  0.00    -0.062 A 
HETATM   30  C1  UNL     1      24.318  -0.373  53.442  1.00  0.00     0.048 C 
HETATM   31  C24 UNL     1      26.100   0.889  52.230  1.00  0.00     0.007 A 
HETATM   32  C23 UNL     1      26.555   1.883  51.388  1.00  0.00     0.017 A 
ENDBRANCH  23  26
ENDBRANCH   1  22
TORSDOF 7
ENDMDL
