MODEL 1
REMARK VINA RESULT:      -7.7      0.000      0.000
REMARK  4 active torsions:
REMARK  status: ('A' for Active; 'I' for Inactive)
REMARK    1  A    between atoms: O1_2  and  C2_3 
REMARK    2  A    between atoms: C4_5  and  O2_6 
REMARK    3  A    between atoms: C13_16  and  N2_17 
REMARK    4  A    between atoms: N2_17  and  C14_18 
ROOT
HETATM    1  C2  UNL     1      21.852   1.813  51.804  1.00  0.00     0.049 C 
HETATM    2  C3  UNL     1      21.802   2.971  52.439  1.00  0.00     0.042 C 
HETATM    3  C4  UNL     1      23.019   3.647  52.821  1.00  0.00     0.178 C 
HETATM    4  C6  UNL     1      24.134   2.663  52.763  1.00  0.00    -0.005 C 
HETATM    5  C7  UNL     1      24.213   1.377  52.320  1.00  0.00    -0.036 C 
HETATM    6  C8  UNL     1      23.075   1.067  51.404  1.00  0.00     0.101 C 
HETATM    7  C9  UNL     1      25.412   0.655  52.922  1.00  0.00     0.069 C 
HETATM    8  C10 UNL     1      25.164  -0.749  53.231  1.00  0.00     0.045 C 
HETATM    9  C11 UNL     1      26.047   1.402  54.046  1.00  0.00     0.172 A 
HETATM   10  N1  UNL     1      26.770   2.666  53.657  1.00  0.00    -0.397 N 
HETATM   11  C12 UNL     1      25.509   2.619  53.209  1.00  0.00     0.129 A 
HETATM   12  C13 UNL     1      26.151   2.266  51.789  1.00  0.00     0.113 C 
HETATM   13  N3  UNL     1      26.403   0.834  51.818  1.00  0.00    -0.363 N 
HETATM   14  H16 UNL     1      27.763   2.726  53.998  1.00  0.00     0.154 HD
HETATM   15  H21 UNL     1      26.866  -0.030  51.502  1.00  0.00     0.162 HD
ENDROOT
BRANCH  12  16
HETATM   16  N2  UNL     1      26.663   2.682  50.339  1.00  0.00    -0.344 N 
HETATM   17  H17 UNL     1      27.179   1.973  49.802  1.00  0.00     0.167 HD
BRANCH  16  18
HETATM   18  C14 UNL     1      26.486   3.920  49.676  1.00  0.00     0.035 A 
HETATM   19  C15 UNL     1      25.213   4.474  49.651  1.00  0.00     0.032 A 
HETATM   20  C16 UNL     1      25.027   5.666  49.006  1.00  0.00     0.046 A 
HETATM   21  C17 UNL     1      26.065   6.323  48.389  1.00  0.00     0.138 A 
HETATM   22  F1  UNL     1      25.892   7.501  47.748  1.00  0.00    -0.204 F 
HETATM   23  C18 UNL     1      27.344   5.803  48.396  1.00  0.00     0.074 A 
HETATM   24 CL1  UNL     1      28.659   6.655  47.601  1.00  0.00    -0.081 Cl
HETATM   25  C19 UNL     1      27.530   4.600  49.046  1.00  0.00     0.056 A 
ENDBRANCH  16  18
ENDBRANCH  12  16
BRANCH   3  26
HETATM   26  O2  UNL     1      23.185   4.771  52.032  1.00  0.00    -0.382 OA
HETATM   27  C5  UNL     1      21.948   5.327  51.667  1.00  0.00     0.202 C 
ENDBRANCH   3  26
BRANCH   1  28
HETATM   28  O1  UNL     1      20.586   1.322  51.522  1.00  0.00    -0.360 OA
HETATM   29  C1  UNL     1      19.472   2.187  51.469  1.00  0.00     0.209 C 
ENDBRANCH   1  28
TORSDOF 4
ENDMDL
MODEL 2
REMARK VINA RESULT:      -7.7      4.292      6.715
REMARK  4 active torsions:
REMARK  status: ('A' for Active; 'I' for Inactive)
REMARK    1  A    between atoms: O1_2  and  C2_3 
REMARK    2  A    between atoms: C4_5  and  O2_6 
REMARK    3  A    between atoms: C13_16  and  N2_17 
REMARK    4  A    between atoms: N2_17  and  C14_18 
ROOT
HETATM    1  C2  UNL     1      26.119   4.356  49.225  1.00  0.00     0.049 C 
HETATM    2  C3  UNL     1      25.851   5.646  49.329  1.00  0.00     0.042 C 
HETATM    3  C4  UNL     1      24.526   6.089  49.691  1.00  0.00     0.178 C 
HETATM    4  C6  UNL     1      23.585   4.956  49.484  1.00  0.00    -0.005 C 
HETATM    5  C7  UNL     1      23.770   3.644  49.164  1.00  0.00    -0.036 C 
HETATM    6  C8  UNL     1      25.175   3.228  49.448  1.00  0.00     0.101 C 
HETATM    7  C9  UNL     1      22.500   3.028  48.588  1.00  0.00     0.069 C 
HETATM    8  C10 UNL     1      22.741   2.066  47.519  1.00  0.00     0.045 C 
HETATM    9  C11 UNL     1      21.458   4.038  48.247  1.00  0.00     0.172 A 
HETATM   10  N1  UNL     1      20.811   4.725  49.424  1.00  0.00    -0.397 N 
HETATM   11  C12 UNL     1      22.149   4.787  49.443  1.00  0.00     0.129 A 
HETATM   12  C13 UNL     1      22.068   3.641  50.554  1.00  0.00     0.113 C 
HETATM   13  N3  UNL     1      21.941   2.392  49.820  1.00  0.00    -0.363 N 
HETATM   14  H16 UNL     1      19.760   4.689  49.429  1.00  0.00     0.154 HD
HETATM   15  H21 UNL     1      21.688   1.399  49.721  1.00  0.00     0.162 HD
ENDROOT
BRANCH  12  16
HETATM   16  N2  UNL     1      22.056   3.157  52.072  1.00  0.00    -0.344 N 
HETATM   17  H17 UNL     1      21.470   3.689  52.728  1.00  0.00     0.167 HD
BRANCH  16  18
HETATM   18  C14 UNL     1      22.748   2.063  52.641  1.00  0.00     0.035 A 
HETATM   19  C15 UNL     1      24.134   2.127  52.709  1.00  0.00     0.032 A 
HETATM   20  C16 UNL     1      24.816   1.071  53.250  1.00  0.00     0.046 A 
HETATM   21  C17 UNL     1      24.165  -0.042  53.726  1.00  0.00     0.138 A 
HETATM   22  F1  UNL     1      24.828  -1.091  54.262  1.00  0.00    -0.204 F 
HETATM   23  C18 UNL     1      22.788  -0.139  53.677  1.00  0.00     0.074 A 
HETATM   24 CL1  UNL     1      21.971  -1.569  54.289  1.00  0.00    -0.081 Cl
HETATM   25  C19 UNL     1      22.102   0.926  53.131  1.00  0.00     0.056 A 
ENDBRANCH  16  18
ENDBRANCH  12  16
BRANCH   3  26
HETATM   26  O2  UNL     1      24.550   6.606  50.973  1.00  0.00    -0.382 OA
HETATM   27  C5  UNL     1      23.801   7.790  51.062  1.00  0.00     0.202 C 
ENDBRANCH   3  26
BRANCH   1  28
HETATM   28  O1  UNL     1      27.440   4.128  48.871  1.00  0.00    -0.360 OA
HETATM   29  C1  UNL     1      28.262   5.188  48.432  1.00  0.00     0.209 C 
ENDBRANCH   1  28
TORSDOF 4
ENDMDL
MODEL 3
REMARK VINA RESULT:      -7.5      2.739      4.463
REMARK  4 active torsions:
REMARK  status: ('A' for Active; 'I' for Inactive)
REMARK    1  A    between atoms: O1_2  and  C2_3 
REMARK    2  A    between atoms: C4_5  and  O2_6 
REMARK    3  A    between atoms: C13_16  and  N2_17 
REMARK    4  A    between atoms: N2_17  and  C14_18 
ROOT
HETATM    1  C2  UNL     1      26.616   1.942  53.432  1.00  0.00     0.049 C 
HETATM    2  C3  UNL     1      27.139   2.006  52.219  1.00  0.00     0.042 C 
HETATM    3  C4  UNL     1      26.319   2.369  51.089  1.00  0.00     0.178 C 
HETATM    4  C6  UNL     1      24.893   2.212  51.480  1.00  0.00    -0.005 C 
HETATM    5  C7  UNL     1      24.283   1.934  52.666  1.00  0.00    -0.036 C 
HETATM    6  C8  UNL     1      25.203   2.215  53.808  1.00  0.00     0.101 C 
HETATM    7  C9  UNL     1      22.872   1.396  52.453  1.00  0.00     0.069 C 
HETATM    8  C10 UNL     1      22.486   0.357  53.401  1.00  0.00     0.045 C 
HETATM    9  C11 UNL     1      22.588   1.034  51.036  1.00  0.00     0.172 A 
HETATM   10  N1  UNL     1      22.488   2.195  50.078  1.00  0.00    -0.397 N 
HETATM   11  C12 UNL     1      23.619   2.196  50.795  1.00  0.00     0.129 A 
HETATM   12  C13 UNL     1      22.928   3.345  51.664  1.00  0.00     0.113 C 
HETATM   13  N3  UNL     1      22.086   2.655  52.628  1.00  0.00    -0.363 N 
HETATM   14  H16 UNL     1      21.607   2.215  49.504  1.00  0.00     0.154 HD
HETATM   15  H21 UNL     1      21.307   2.593  53.298  1.00  0.00     0.162 HD
ENDROOT
BRANCH  12  16
HETATM   16  N2  UNL     1      22.686   4.879  52.022  1.00  0.00    -0.344 N 
HETATM   17  H17 UNL     1      22.199   5.082  52.905  1.00  0.00     0.167 HD
BRANCH  16  18
HETATM   18  C14 UNL     1      23.072   6.017  51.277  1.00  0.00     0.035 A 
HETATM   19  C15 UNL     1      22.073   6.822  50.744  1.00  0.00     0.032 A 
HETATM   20  C16 UNL     1      22.434   7.922  50.015  1.00  0.00     0.046 A 
HETATM   21  C17 UNL     1      23.753   8.246  49.801  1.00  0.00     0.138 A 
HETATM   22  F1  UNL     1      24.121   9.330  49.081  1.00  0.00    -0.204 F 
HETATM   23  C18 UNL     1      24.772   7.470  50.317  1.00  0.00     0.074 A 
HETATM   24 CL1  UNL     1      26.452   7.898  50.033  1.00  0.00    -0.081 Cl
HETATM   25  C19 UNL     1      24.406   6.361  51.052  1.00  0.00     0.056 A 
ENDBRANCH  16  18
ENDBRANCH  12  16
BRANCH   3  26
HETATM   26  O2  UNL     1      26.674   3.633  50.654  1.00  0.00    -0.382 OA
HETATM   27  C5  UNL     1      26.664   3.714  49.252  1.00  0.00     0.202 C 
ENDBRANCH   3  26
BRANCH   1  28
HETATM   28  O1  UNL     1      27.556   1.580  54.383  1.00  0.00    -0.360 OA
HETATM   29  C1  UNL     1      27.957   0.234  54.526  1.00  0.00     0.209 C 
ENDBRANCH   1  28
TORSDOF 4
ENDMDL
MODEL 4
REMARK VINA RESULT:      -7.5      3.735      5.861
REMARK  4 active torsions:
REMARK  status: ('A' for Active; 'I' for Inactive)
REMARK    1  A    between atoms: O1_2  and  C2_3 
REMARK    2  A    between atoms: C4_5  and  O2_6 
REMARK    3  A    between atoms: C13_16  and  N2_17 
REMARK    4  A    between atoms: N2_17  and  C14_18 
ROOT
HETATM    1  C2  UNL     1      20.531   4.610  49.603  1.00  0.00     0.049 C 
HETATM    2  C3  UNL     1      21.072   3.735  48.773  1.00  0.00     0.042 C 
HETATM    3  C4  UNL     1      22.465   3.377  48.896  1.00  0.00     0.178 C 
HETATM    4  C6  UNL     1      23.138   4.409  49.731  1.00  0.00    -0.005 C 
HETATM    5  C7  UNL     1      22.671   5.471  50.445  1.00  0.00    -0.036 C 
HETATM    6  C8  UNL     1      21.211   5.318  50.720  1.00  0.00     0.101 C 
HETATM    7  C9  UNL     1      23.773   6.491  50.708  1.00  0.00     0.069 C 
HETATM    8  C10 UNL     1      23.321   7.876  50.660  1.00  0.00     0.045 C 
HETATM    9  C11 UNL     1      25.005   6.246  49.906  1.00  0.00     0.172 A 
HETATM   10  N1  UNL     1      25.795   5.020  50.289  1.00  0.00    -0.397 N 
HETATM   11  C12 UNL     1      24.503   4.764  50.049  1.00  0.00     0.129 A 
HETATM   12  C13 UNL     1      24.345   4.692  51.638  1.00  0.00     0.113 C 
HETATM   13  N3  UNL     1      24.193   6.069  52.079  1.00  0.00    -0.363 N 
HETATM   14  H16 UNL     1      26.814   5.197  50.481  1.00  0.00     0.154 HD
HETATM   15  H21 UNL     1      24.225   6.826  52.777  1.00  0.00     0.162 HD
ENDROOT
BRANCH  12  16
HETATM   16  N2  UNL     1      24.266   3.876  53.004  1.00  0.00    -0.344 N 
HETATM   17  H17 UNL     1      23.883   4.368  53.822  1.00  0.00     0.167 HD
BRANCH  16  18
HETATM   18  C14 UNL     1      24.650   2.535  53.239  1.00  0.00     0.035 A 
HETATM   19  C15 UNL     1      23.756   1.528  52.898  1.00  0.00     0.032 A 
HETATM   20  C16 UNL     1      24.112   0.227  53.128  1.00  0.00     0.046 A 
HETATM   21  C17 UNL     1      25.326  -0.103  53.683  1.00  0.00     0.138 A 
HETATM   22  F1  UNL     1      25.687  -1.384  53.916  1.00  0.00    -0.204 F 
HETATM   23  C18 UNL     1      26.239   0.872  54.034  1.00  0.00     0.074 A 
HETATM   24 CL1  UNL     1      27.785   0.434  54.744  1.00  0.00    -0.081 Cl
HETATM   25  C19 UNL     1      25.878   2.184  53.802  1.00  0.00     0.056 A 
ENDBRANCH  16  18
ENDBRANCH  12  16
BRANCH   3  26
HETATM   26  O2  UNL     1      22.564   2.082  49.370  1.00  0.00    -0.382 OA
HETATM   27  C5  UNL     1      21.572   1.257  48.815  1.00  0.00     0.202 C 
ENDBRANCH   3  26
BRANCH   1  28
HETATM   28  O1  UNL     1      19.189   4.823  49.329  1.00  0.00    -0.360 OA
HETATM   29  C1  UNL     1      18.788   5.452  48.131  1.00  0.00     0.209 C 
ENDBRANCH   1  28
TORSDOF 4
ENDMDL
MODEL 5
REMARK VINA RESULT:      -7.5      3.907      5.468
REMARK  4 active torsions:
REMARK  status: ('A' for Active; 'I' for Inactive)
REMARK    1  A    between atoms: O1_2  and  C2_3 
REMARK    2  A    between atoms: C4_5  and  O2_6 
REMARK    3  A    between atoms: C13_16  and  N2_17 
REMARK    4  A    between atoms: N2_17  and  C14_18 
ROOT
HETATM    1  C2  UNL     1      22.627   3.758  47.855  1.00  0.00     0.049 C 
HETATM    2  C3  UNL     1      22.948   5.037  47.950  1.00  0.00     0.042 C 
HETATM    3  C4  UNL     1      23.675   5.523  49.098  1.00  0.00     0.178 C 
HETATM    4  C6  UNL     1      23.573   4.505  50.178  1.00  0.00    -0.005 C 
HETATM    5  C7  UNL     1      23.062   3.243  50.216  1.00  0.00    -0.036 C 
HETATM    6  C8  UNL     1      22.939   2.685  48.836  1.00  0.00     0.101 C 
HETATM    7  C9  UNL     1      22.748   2.813  51.644  1.00  0.00     0.069 C 
HETATM    8  C10 UNL     1      21.545   1.997  51.766  1.00  0.00     0.045 C 
HETATM    9  C11 UNL     1      22.798   3.936  52.622  1.00  0.00     0.172 A 
HETATM   10  N1  UNL     1      24.171   4.496  52.896  1.00  0.00    -0.397 N 
HETATM   11  C12 UNL     1      23.868   4.453  51.593  1.00  0.00     0.129 A 
HETATM   12  C13 UNL     1      24.818   3.170  51.535  1.00  0.00     0.113 C 
HETATM   13  N3  UNL     1      23.994   2.052  51.964  1.00  0.00    -0.363 N 
HETATM   14  H16 UNL     1      24.432   4.540  53.915  1.00  0.00     0.154 HD
HETATM   15  H21 UNL     1      23.842   1.105  52.339  1.00  0.00     0.162 HD
ENDROOT
BRANCH  12  16
HETATM   16  N2  UNL     1      26.223   2.477  51.243  1.00  0.00    -0.344 N 
HETATM   17  H17 UNL     1      26.676   2.695  50.346  1.00  0.00     0.167 HD
BRANCH  16  18
HETATM   18  C14 UNL     1      26.948   1.596  52.079  1.00  0.00     0.035 A 
HETATM   19  C15 UNL     1      27.814   2.144  53.016  1.00  0.00     0.032 A 
HETATM   20  C16 UNL     1      28.527   1.302  53.825  1.00  0.00     0.046 A 
HETATM   21  C17 UNL     1      28.405  -0.064  53.732  1.00  0.00     0.138 A 
HETATM   22  F1  UNL     1      29.105  -0.906  54.525  1.00  0.00    -0.204 F 
HETATM   23  C18 UNL     1      27.552  -0.645  52.814  1.00  0.00     0.074 A 
HETATM   24 CL1  UNL     1      27.409  -2.392  52.707  1.00  0.00    -0.081 Cl
HETATM   25  C19 UNL     1      26.834   0.207  51.998  1.00  0.00     0.056 A 
ENDBRANCH  16  18
ENDBRANCH  12  16
BRANCH   3  26
HETATM   26  O2  UNL     1      24.965   5.848  48.718  1.00  0.00    -0.382 OA
HETATM   27  C5  UNL     1      25.506   6.846  49.546  1.00  0.00     0.202 C 
ENDBRANCH   3  26
BRANCH   1  28
HETATM   28  O1  UNL     1      21.934   3.484  46.686  1.00  0.00    -0.360 OA
HETATM   29  C1  UNL     1      21.860   4.439  45.650  1.00  0.00     0.209 C 
ENDBRANCH   1  28
TORSDOF 4
ENDMDL
MODEL 6
REMARK VINA RESULT:      -7.5      3.974      6.131
REMARK  4 active torsions:
REMARK  status: ('A' for Active; 'I' for Inactive)
REMARK    1  A    between atoms: O1_2  and  C2_3 
REMARK    2  A    between atoms: C4_5  and  O2_6 
REMARK    3  A    between atoms: C13_16  and  N2_17 
REMARK    4  A    between atoms: N2_17  and  C14_18 
ROOT
HETATM    1  C2  UNL     1      20.649   4.574  49.346  1.00  0.00     0.049 C 
HETATM    2  C3  UNL     1      21.237   3.773  48.474  1.00  0.00     0.042 C 
HETATM    3  C4  UNL     1      22.621   3.401  48.642  1.00  0.00     0.178 C 
HETATM    4  C6  UNL     1      23.245   4.355  49.598  1.00  0.00    -0.005 C 
HETATM    5  C7  UNL     1      22.739   5.353  50.375  1.00  0.00    -0.036 C 
HETATM    6  C8  UNL     1      21.266   5.181  50.555  1.00  0.00     0.101 C 
HETATM    7  C9  UNL     1      23.823   6.343  50.785  1.00  0.00     0.069 C 
HETATM    8  C10 UNL     1      23.371   7.729  50.832  1.00  0.00     0.045 C 
HETATM    9  C11 UNL     1      25.097   6.165  50.033  1.00  0.00     0.172 A 
HETATM   10  N1  UNL     1      25.867   4.908  50.351  1.00  0.00    -0.397 N 
HETATM   11  C12 UNL     1      24.590   4.677  50.020  1.00  0.00     0.129 A 
HETATM   12  C13 UNL     1      24.345   4.470  51.586  1.00  0.00     0.113 C 
HETATM   13  N3  UNL     1      24.167   5.804  52.135  1.00  0.00    -0.363 N 
HETATM   14  H16 UNL     1      26.874   5.065  50.614  1.00  0.00     0.154 HD
HETATM   15  H21 UNL     1      24.159   6.497  52.897  1.00  0.00     0.162 HD
ENDROOT
BRANCH  12  16
HETATM   16  N2  UNL     1      24.193   3.539  52.870  1.00  0.00    -0.344 N 
HETATM   17  H17 UNL     1      24.485   3.935  53.773  1.00  0.00     0.167 HD
BRANCH  16  18
HETATM   18  C14 UNL     1      23.688   2.220  52.933  1.00  0.00     0.035 A 
HETATM   19  C15 UNL     1      24.526   1.218  53.406  1.00  0.00     0.032 A 
HETATM   20  C16 UNL     1      24.051  -0.064  53.463  1.00  0.00     0.046 A 
HETATM   21  C17 UNL     1      22.772  -0.379  53.070  1.00  0.00     0.138 A 
HETATM   22  F1  UNL     1      22.293  -1.642  53.122  1.00  0.00    -0.204 F 
HETATM   23  C18 UNL     1      21.911   0.591  52.597  1.00  0.00     0.074 A 
HETATM   24 CL1  UNL     1      20.280   0.171  52.096  1.00  0.00    -0.081 Cl
HETATM   25  C19 UNL     1      22.391   1.883  52.538  1.00  0.00     0.056 A 
ENDBRANCH  16  18
ENDBRANCH  12  16
BRANCH   3  26
HETATM   26  O2  UNL     1      22.696   2.069  49.007  1.00  0.00    -0.382 OA
HETATM   27  C5  UNL     1      21.567   1.355  48.572  1.00  0.00     0.202 C 
ENDBRANCH   3  26
BRANCH   1  28
HETATM   28  O1  UNL     1      19.324   4.814  49.018  1.00  0.00    -0.360 OA
HETATM   29  C1  UNL     1      18.317   4.773  50.006  1.00  0.00     0.209 C 
ENDBRANCH   1  28
TORSDOF 4
ENDMDL
MODEL 7
REMARK VINA RESULT:      -7.4      1.625      2.147
REMARK  4 active torsions:
REMARK  status: ('A' for Active; 'I' for Inactive)
REMARK    1  A    between atoms: O1_2  and  C2_3 
REMARK    2  A    between atoms: C4_5  and  O2_6 
REMARK    3  A    between atoms: C13_16  and  N2_17 
REMARK    4  A    between atoms: N2_17  and  C14_18 
ROOT
HETATM    1  C2  UNL     1      20.384   0.853  51.552  1.00  0.00     0.049 C 
HETATM    2  C3  UNL     1      19.925   1.984  52.058  1.00  0.00     0.042 C 
HETATM    3  C4  UNL     1      20.820   3.089  52.307  1.00  0.00     0.178 C 
HETATM    4  C6  UNL     1      22.213   2.567  52.304  1.00  0.00    -0.005 C 
HETATM    5  C7  UNL     1      22.746   1.351  52.001  1.00  0.00    -0.036 C 
HETATM    6  C8  UNL     1      21.791   0.549  51.179  1.00  0.00     0.101 C 
HETATM    7  C9  UNL     1      24.128   1.180  52.621  1.00  0.00     0.069 C 
HETATM    8  C10 UNL     1      24.402  -0.172  53.093  1.00  0.00     0.045 C 
HETATM    9  C11 UNL     1      24.457   2.231  53.625  1.00  0.00     0.172 A 
HETATM   10  N1  UNL     1      24.676   3.615  53.067  1.00  0.00    -0.397 N 
HETATM   11  C12 UNL     1      23.514   3.069  52.687  1.00  0.00     0.129 A 
HETATM   12  C13 UNL     1      24.234   2.802  51.286  1.00  0.00     0.113 C 
HETATM   13  N3  UNL     1      24.983   1.568  51.458  1.00  0.00    -0.363 N 
HETATM   14  H16 UNL     1      25.583   4.065  53.353  1.00  0.00     0.154 HD
HETATM   15  H21 UNL     1      25.724   0.894  51.218  1.00  0.00     0.162 HD
ENDROOT
BRANCH  12  16
HETATM   16  N2  UNL     1      24.555   3.198  49.776  1.00  0.00    -0.344 N 
HETATM   17  H17 UNL     1      24.061   2.678  49.040  1.00  0.00     0.167 HD
BRANCH  16  18
HETATM   18  C14 UNL     1      25.439   4.199  49.309  1.00  0.00     0.035 A 
HETATM   19  C15 UNL     1      26.793   3.898  49.239  1.00  0.00     0.032 A 
HETATM   20  C16 UNL     1      27.659   4.861  48.797  1.00  0.00     0.046 A 
HETATM   21  C17 UNL     1      27.222   6.109  48.421  1.00  0.00     0.138 A 
HETATM   22  F1  UNL     1      28.068   7.068  47.984  1.00  0.00    -0.204 F 
HETATM   23  C18 UNL     1      25.883   6.442  48.476  1.00  0.00     0.074 A 
HETATM   24 CL1  UNL     1      25.340   8.042  47.994  1.00  0.00    -0.081 Cl
HETATM   25  C19 UNL     1      25.011   5.470  48.923  1.00  0.00     0.056 A 
ENDBRANCH  16  18
ENDBRANCH  12  16
BRANCH   3  26
HETATM   26  O2  UNL     1      20.567   4.096  51.393  1.00  0.00    -0.382 OA
HETATM   27  C5  UNL     1      19.191   4.223  51.139  1.00  0.00     0.202 C 
ENDBRANCH   3  26
BRANCH   1  28
HETATM   28  O1  UNL     1      19.378  -0.086  51.385  1.00  0.00    -0.360 OA
HETATM   29  C1  UNL     1      18.561  -0.469  52.470  1.00  0.00     0.209 C 
ENDBRANCH   1  28
TORSDOF 4
ENDMDL
MODEL 8
REMARK VINA RESULT:      -7.2      8.638     10.786
REMARK  4 active torsions:
REMARK  status: ('A' for Active; 'I' for Inactive)
REMARK    1  A    between atoms: O1_2  and  C2_3 
REMARK    2  A    between atoms: C4_5  and  O2_6 
REMARK    3  A    between atoms: C13_16  and  N2_17 
REMARK    4  A    between atoms: N2_17  and  C14_18 
ROOT
HETATM    1  C2  UNL     1      31.724   8.613  44.985  1.00  0.00     0.049 C 
HETATM    2  C3  UNL     1      32.601   9.527  45.363  1.00  0.00     0.042 C 
HETATM    3  C4  UNL     1      32.769   9.844  46.761  1.00  0.00     0.178 C 
HETATM    4  C6  UNL     1      31.584   9.329  47.499  1.00  0.00    -0.005 C 
HETATM    5  C7  UNL     1      30.524   8.559  47.127  1.00  0.00    -0.036 C 
HETATM    6  C8  UNL     1      30.830   7.817  45.868  1.00  0.00     0.101 C 
HETATM    7  C9  UNL     1      29.353   8.723  48.090  1.00  0.00     0.069 C 
HETATM    8  C10 UNL     1      28.046   8.695  47.443  1.00  0.00     0.045 C 
HETATM    9  C11 UNL     1      29.519   9.868  49.030  1.00  0.00     0.172 A 
HETATM   10  N1  UNL     1      30.594   9.698  50.074  1.00  0.00    -0.397 N 
HETATM   11  C12 UNL     1      31.032   9.490  48.826  1.00  0.00     0.129 A 
HETATM   12  C13 UNL     1      30.966   7.935  49.187  1.00  0.00     0.113 C 
HETATM   13  N3  UNL     1      29.582   7.542  48.977  1.00  0.00    -0.363 N 
HETATM   14  H16 UNL     1      30.273   9.856  51.064  1.00  0.00     0.154 HD
HETATM   15  H21 UNL     1      28.762   6.934  49.113  1.00  0.00     0.162 HD
ENDROOT
BRANCH  12  16
HETATM   16  N2  UNL     1      31.646   6.576  49.665  1.00  0.00    -0.344 N 
HETATM   17  H17 UNL     1      31.417   6.244  50.611  1.00  0.00     0.167 HD
BRANCH  16  18
HETATM   18  C14 UNL     1      32.531   5.744  48.939  1.00  0.00     0.035 A 
HETATM   19  C15 UNL     1      33.872   6.100  48.887  1.00  0.00     0.032 A 
HETATM   20  C16 UNL     1      34.737   5.309  48.181  1.00  0.00     0.046 A 
HETATM   21  C17 UNL     1      34.310   4.177  47.528  1.00  0.00     0.138 A 
HETATM   22  F1  UNL     1      35.154   3.388  46.827  1.00  0.00    -0.204 F 
HETATM   23  C18 UNL     1      32.984   3.791  47.560  1.00  0.00     0.074 A 
HETATM   24 CL1  UNL     1      32.455   2.343  46.719  1.00  0.00    -0.081 Cl
HETATM   25  C19 UNL     1      32.114   4.591  48.272  1.00  0.00     0.056 A 
ENDBRANCH  16  18
ENDBRANCH  12  16
BRANCH   3  26
HETATM   26  O2  UNL     1      33.989   9.360  47.197  1.00  0.00    -0.382 OA
HETATM   27  C5  UNL     1      34.902   9.245  46.136  1.00  0.00     0.202 C 
ENDBRANCH   3  26
BRANCH   1  28
HETATM   28  O1  UNL     1      31.708   8.448  43.609  1.00  0.00    -0.360 OA
HETATM   29  C1  UNL     1      32.904   8.504  42.862  1.00  0.00     0.209 C 
ENDBRANCH   1  28
TORSDOF 4
ENDMDL
MODEL 9
REMARK VINA RESULT:      -7.2      6.101     10.057
REMARK  4 active torsions:
REMARK  status: ('A' for Active; 'I' for Inactive)
REMARK    1  A    between atoms: O1_2  and  C2_3 
REMARK    2  A    between atoms: C4_5  and  O2_6 
REMARK    3  A    between atoms: C13_16  and  N2_17 
REMARK    4  A    between atoms: N2_17  and  C14_18 
ROOT
HETATM    1  C2  UNL     1      32.549   7.537  46.661  1.00  0.00     0.049 C 
HETATM    2  C3  UNL     1      32.917   7.345  47.916  1.00  0.00     0.042 C 
HETATM    3  C4  UNL     1      32.185   7.967  48.994  1.00  0.00     0.178 C 
HETATM    4  C6  UNL     1      31.360   9.065  48.423  1.00  0.00    -0.005 C 
HETATM    5  C7  UNL     1      31.102   9.461  47.145  1.00  0.00    -0.036 C 
HETATM    6  C8  UNL     1      31.407   8.361  46.183  1.00  0.00     0.101 C 
HETATM    7  C9  UNL     1      30.617  10.906  47.099  1.00  0.00     0.069 C 
HETATM    8  C10 UNL     1      31.098  11.654  45.943  1.00  0.00     0.045 C 
HETATM    9  C11 UNL     1      30.802  11.631  48.387  1.00  0.00     0.172 A 
HETATM   10  N1  UNL     1      29.916  11.176  49.520  1.00  0.00    -0.397 N 
HETATM   11  C12 UNL     1      30.597  10.176  48.947  1.00  0.00     0.129 A 
HETATM   12  C13 UNL     1      29.219   9.809  48.225  1.00  0.00     0.113 C 
HETATM   13  N3  UNL     1      29.140  10.681  47.065  1.00  0.00    -0.363 N 
HETATM   14  H16 UNL     1      29.370  11.946  49.986  1.00  0.00     0.154 HD
HETATM   15  H21 UNL     1      28.641  11.175  46.311  1.00  0.00     0.162 HD
ENDROOT
BRANCH  12  16
HETATM   16  N2  UNL     1      27.871   8.966  48.121  1.00  0.00    -0.344 N 
HETATM   17  H17 UNL     1      27.020   9.475  47.852  1.00  0.00     0.167 HD
BRANCH  16  18
HETATM   18  C14 UNL     1      27.693   7.580  48.344  1.00  0.00     0.035 A 
HETATM   19  C15 UNL     1      28.744   6.726  48.035  1.00  0.00     0.032 A 
HETATM   20  C16 UNL     1      28.580   5.382  48.238  1.00  0.00     0.046 A 
HETATM   21  C17 UNL     1      27.410   4.864  48.738  1.00  0.00     0.138 A 
HETATM   22  F1  UNL     1      27.237   3.539  48.941  1.00  0.00    -0.204 F 
HETATM   23  C18 UNL     1      26.345   5.684  49.058  1.00  0.00     0.074 A 
HETATM   24 CL1  UNL     1      24.855   5.006  49.694  1.00  0.00    -0.081 Cl
HETATM   25  C19 UNL     1      26.511   7.038  48.852  1.00  0.00     0.056 A 
ENDBRANCH  16  18
ENDBRANCH  12  16
BRANCH   3  26
HETATM   26  O2  UNL     1      31.479   6.999  49.685  1.00  0.00    -0.382 OA
HETATM   27  C5  UNL     1      32.128   5.754  49.629  1.00  0.00     0.202 C 
ENDBRANCH   3  26
BRANCH   1  28
HETATM   28  O1  UNL     1      33.369   6.860  45.772  1.00  0.00    -0.360 OA
HETATM   29  C1  UNL     1      33.346   5.451  45.698  1.00  0.00     0.209 C 
ENDBRANCH   1  28
TORSDOF 4
ENDMDL
