MODEL 1
REMARK VINA RESULT:      -7.8      0.000      0.000
REMARK  9 active torsions:
REMARK  status: ('A' for Active; 'I' for Inactive)
REMARK    1  A    between atoms: C2_2  and  N1_3 
REMARK    2  A    between atoms: C6_9  and  N4_10 
REMARK    3  A    between atoms: N4_10  and  C7_11 
REMARK    4  A    between atoms: C7_11  and  C8_12 
REMARK    5  A    between atoms: C8_12  and  C9_13 
REMARK    6  A    between atoms: C9_13  and  C10_14 
REMARK    7  A    between atoms: C10_14  and  C11_15 
REMARK    8  A    between atoms: C11_15  and  N5_16 
REMARK    9  A    between atoms: C13_19  and  C14_20 
ROOT
HETATM    1  C11 UNL     1      23.900   5.917  51.227  1.00  0.00     0.323 C 
HETATM    2  C12 UNL     1      22.461   6.001  50.975  1.00  0.00     0.095 C 
HETATM    3  N6  UNL     1      21.320   6.080  50.768  1.00  0.00    -0.195 NA
ENDROOT
BRANCH   1   4
HETATM    4  C10 UNL     1      24.667   5.865  49.940  1.00  0.00     0.050 C 
BRANCH   4   5
HETATM    5  C9  UNL     1      24.901   4.440  49.472  1.00  0.00     0.005 C 
BRANCH   5   6
HETATM    6  C8  UNL     1      26.349   4.137  49.725  1.00  0.00     0.030 C 
BRANCH   6   7
HETATM    7  C7  UNL     1      26.586   3.015  50.699  1.00  0.00     0.273 C 
BRANCH   7   8
HETATM    8  N4  UNL     1      25.537   2.917  51.695  1.00  0.00     0.113 N 
HETATM    9  H8  UNL     1      26.054   2.918  52.625  1.00  0.00     0.319 HD
BRANCH   8  10
HETATM   10  C6  UNL     1      24.974   1.592  51.576  1.00  0.00     0.380 A 
HETATM   11  N3  UNL     1      23.560   1.560  51.795  1.00  0.00    -0.229 NA
HETATM   12  C5  UNL     1      23.265   0.747  52.752  1.00  0.00     0.158 A 
HETATM   13  N1  UNL     1      22.169   0.303  53.396  1.00  0.00    -0.325 N 
HETATM   14  C4  UNL     1      24.412   0.162  53.264  1.00  0.00     0.115 A 
HETATM   15  C3  UNL     1      22.613  -0.565  54.321  1.00  0.00     0.212 A 
HETATM   16  N2  UNL     1      23.954  -0.654  54.247  1.00  0.00    -0.239 NA
HETATM   17  C13 UNL     1      25.469   0.637  52.591  1.00  0.00     0.039 A 
BRANCH  13  18
HETATM   18  C2  UNL     1      20.769   0.632  53.207  1.00  0.00     0.127 C 
HETATM   19  C1  UNL     1      20.269   0.086  51.863  1.00  0.00     0.027 C 
ENDBRANCH  13  18
BRANCH  17  20
HETATM   20  C14 UNL     1      26.812   0.149  52.969  1.00  0.00    -0.022 A 
HETATM   21  C15 UNL     1      27.349  -1.085  52.750  1.00  0.00     0.012 A 
HETATM   22  C16 UNL     1      28.631  -1.356  53.179  1.00  0.00     0.003 A 
HETATM   23  C17 UNL     1      29.411  -0.428  53.830  1.00  0.00     0.024 A 
HETATM   24  C18 UNL     1      28.904   0.833  54.071  1.00  0.00     0.034 A 
HETATM   25 CL1  UNL     1      29.829   2.071  54.891  1.00  0.00    -0.084 Cl
HETATM   26  C19 UNL     1      27.620   1.078  53.631  1.00  0.00     0.036 A 
ENDBRANCH  17  20
ENDBRANCH   8  10
ENDBRANCH   7   8
ENDBRANCH   6   7
ENDBRANCH   5   6
ENDBRANCH   4   5
ENDBRANCH   1   4
BRANCH   1  27
HETATM   27  N5  UNL     1      24.381   7.018  52.020  1.00  0.00     0.096 N 
HETATM   28  H18 UNL     1      25.029   7.580  51.394  1.00  0.00     0.314 HD
HETATM   29  H19 UNL     1      25.010   6.635  52.776  1.00  0.00     0.314 HD
ENDBRANCH   1  27
TORSDOF 9
ENDMDL
MODEL 2
REMARK VINA RESULT:      -7.5      2.372      5.023
REMARK  9 active torsions:
REMARK  status: ('A' for Active; 'I' for Inactive)
REMARK    1  A    between atoms: C2_2  and  N1_3 
REMARK    2  A    between atoms: C6_9  and  N4_10 
REMARK    3  A    between atoms: N4_10  and  C7_11 
REMARK    4  A    between atoms: C7_11  and  C8_12 
REMARK    5  A    between atoms: C8_12  and  C9_13 
REMARK    6  A    between atoms: C9_13  and  C10_14 
REMARK    7  A    between atoms: C10_14  and  C11_15 
REMARK    8  A    between atoms: C11_15  and  N5_16 
REMARK    9  A    between atoms: C13_19  and  C14_20 
ROOT
HETATM    1  C11 UNL     1      21.761   5.782  51.290  1.00  0.00     0.323 C 
HETATM    2  C12 UNL     1      21.050   5.160  50.172  1.00  0.00     0.095 C 
HETATM    3  N6  UNL     1      20.494   4.673  49.276  1.00  0.00    -0.195 NA
ENDROOT
BRANCH   1   4
HETATM    4  C10 UNL     1      23.151   5.233  51.411  1.00  0.00     0.050 C 
BRANCH   4   5
HETATM    5  C9  UNL     1      24.113   5.895  50.441  1.00  0.00     0.005 C 
BRANCH   5   6
HETATM    6  C8  UNL     1      24.531   4.838  49.461  1.00  0.00     0.030 C 
BRANCH   6   7
HETATM    7  C7  UNL     1      25.974   4.429  49.570  1.00  0.00     0.273 C 
BRANCH   7   8
HETATM    8  N4  UNL     1      26.129   3.014  49.845  1.00  0.00     0.113 N 
HETATM    9  H8  UNL     1      25.233   2.574  49.479  1.00  0.00     0.319 HD
BRANCH   8  10
HETATM   10  C6  UNL     1      26.069   2.861  51.280  1.00  0.00     0.380 A 
HETATM   11  N3  UNL     1      27.309   2.436  51.853  1.00  0.00    -0.229 NA
HETATM   12  C5  UNL     1      27.154   1.340  52.516  1.00  0.00     0.158 A 
HETATM   13  N1  UNL     1      27.901   0.487  53.242  1.00  0.00    -0.325 N 
HETATM   14  C4  UNL     1      25.834   0.922  52.463  1.00  0.00     0.115 A 
HETATM   15  C3  UNL     1      27.060  -0.478  53.654  1.00  0.00     0.212 A 
HETATM   16  N2  UNL     1      25.822  -0.223  53.191  1.00  0.00    -0.239 NA
HETATM   17  C13 UNL     1      25.138   1.802  51.730  1.00  0.00     0.039 A 
BRANCH  13  18
HETATM   18  C2  UNL     1      29.315   0.516  53.567  1.00  0.00     0.127 C 
HETATM   19  C1  UNL     1      29.894  -0.905  53.553  1.00  0.00     0.027 C 
ENDBRANCH  13  18
BRANCH  17  20
HETATM   20  C14 UNL     1      23.694   1.558  51.536  1.00  0.00    -0.022 A 
HETATM   21  C15 UNL     1      22.973   1.657  50.383  1.00  0.00     0.012 A 
HETATM   22  C16 UNL     1      21.621   1.386  50.399  1.00  0.00     0.003 A 
HETATM   23  C17 UNL     1      20.948   1.015  51.541  1.00  0.00     0.024 A 
HETATM   24  C18 UNL     1      21.642   0.904  52.729  1.00  0.00     0.034 A 
HETATM   25 CL1  UNL     1      20.864   0.437  54.225  1.00  0.00    -0.084 Cl
HETATM   26  C19 UNL     1      22.993   1.179  52.685  1.00  0.00     0.036 A 
ENDBRANCH  17  20
ENDBRANCH   8  10
ENDBRANCH   7   8
ENDBRANCH   6   7
ENDBRANCH   5   6
ENDBRANCH   4   5
ENDBRANCH   1   4
BRANCH   1  27
HETATM   27  N5  UNL     1      21.827   7.215  51.167  1.00  0.00     0.096 N 
HETATM   28  H18 UNL     1      20.841   7.545  50.950  1.00  0.00     0.314 HD
HETATM   29  H19 UNL     1      22.382   7.451  50.300  1.00  0.00     0.314 HD
ENDBRANCH   1  27
TORSDOF 9
ENDMDL
MODEL 3
REMARK VINA RESULT:      -7.5      1.581      1.916
REMARK  9 active torsions:
REMARK  status: ('A' for Active; 'I' for Inactive)
REMARK    1  A    between atoms: C2_2  and  N1_3 
REMARK    2  A    between atoms: C6_9  and  N4_10 
REMARK    3  A    between atoms: N4_10  and  C7_11 
REMARK    4  A    between atoms: C7_11  and  C8_12 
REMARK    5  A    between atoms: C8_12  and  C9_13 
REMARK    6  A    between atoms: C9_13  and  C10_14 
REMARK    7  A    between atoms: C10_14  and  C11_15 
REMARK    8  A    between atoms: C11_15  and  N5_16 
REMARK    9  A    between atoms: C13_19  and  C14_20 
ROOT
HETATM    1  C11 UNL     1      22.535   5.427  50.267  1.00  0.00     0.323 C 
HETATM    2  C12 UNL     1      21.956   6.770  50.306  1.00  0.00     0.095 C 
HETATM    3  N6  UNL     1      21.508   7.842  50.341  1.00  0.00    -0.195 NA
ENDROOT
BRANCH   1   4
HETATM    4  C10 UNL     1      23.703   5.374  49.328  1.00  0.00     0.050 C 
BRANCH   4   5
HETATM    5  C9  UNL     1      25.006   5.735  50.017  1.00  0.00     0.005 C 
BRANCH   5   6
HETATM    6  C8  UNL     1      26.113   5.249  49.126  1.00  0.00     0.030 C 
BRANCH   6   7
HETATM    7  C7  UNL     1      26.695   3.923  49.532  1.00  0.00     0.273 C 
BRANCH   7   8
HETATM    8  N4  UNL     1      26.359   3.565  50.896  1.00  0.00     0.113 N 
HETATM    9  H8  UNL     1      27.300   3.459  51.381  1.00  0.00     0.319 HD
BRANCH   8  10
HETATM   10  C6  UNL     1      25.804   2.232  50.850  1.00  0.00     0.380 A 
HETATM   11  N3  UNL     1      24.375   2.220  50.768  1.00  0.00    -0.229 NA
HETATM   12  C5  UNL     1      23.867   1.551  51.747  1.00  0.00     0.158 A 
HETATM   13  N1  UNL     1      22.650   1.197  52.200  1.00  0.00    -0.325 N 
HETATM   14  C4  UNL     1      24.867   1.056  52.568  1.00  0.00     0.115 A 
HETATM   15  C3  UNL     1      22.870   0.474  53.313  1.00  0.00     0.212 A 
HETATM   16  N2  UNL     1      24.194   0.387  53.539  1.00  0.00    -0.239 NA
HETATM   17  C13 UNL     1      26.053   1.438  52.074  1.00  0.00     0.039 A 
BRANCH  13  18
HETATM   18  C2  UNL     1      21.329   1.483  51.674  1.00  0.00     0.127 C 
HETATM   19  C1  UNL     1      21.018   0.565  50.485  1.00  0.00     0.027 C 
ENDBRANCH  13  18
BRANCH  17  20
HETATM   20  C14 UNL     1      27.274   1.020  52.793  1.00  0.00    -0.022 A 
HETATM   21  C15 UNL     1      28.136   1.798  53.507  1.00  0.00     0.012 A 
HETATM   22  C16 UNL     1      29.231   1.222  54.114  1.00  0.00     0.003 A 
HETATM   23  C17 UNL     1      29.505  -0.125  54.034  1.00  0.00     0.024 A 
HETATM   24  C18 UNL     1      28.657  -0.947  53.321  1.00  0.00     0.034 A 
HETATM   25 CL1  UNL     1      28.933  -2.668  53.171  1.00  0.00    -0.084 Cl
HETATM   26  C19 UNL     1      27.569  -0.345  52.724  1.00  0.00     0.036 A 
ENDBRANCH  17  20
ENDBRANCH   8  10
ENDBRANCH   7   8
ENDBRANCH   6   7
ENDBRANCH   5   6
ENDBRANCH   4   5
ENDBRANCH   1   4
BRANCH   1  27
HETATM   27  N5  UNL     1      22.954   4.974  51.568  1.00  0.00     0.096 N 
HETATM   28  H18 UNL     1      22.153   5.187  52.233  1.00  0.00     0.314 HD
HETATM   29  H19 UNL     1      23.744   5.592  51.899  1.00  0.00     0.314 HD
ENDBRANCH   1  27
TORSDOF 9
ENDMDL
MODEL 4
REMARK VINA RESULT:      -7.4      2.524      5.053
REMARK  9 active torsions:
REMARK  status: ('A' for Active; 'I' for Inactive)
REMARK    1  A    between atoms: C2_2  and  N1_3 
REMARK    2  A    between atoms: C6_9  and  N4_10 
REMARK    3  A    between atoms: N4_10  and  C7_11 
REMARK    4  A    between atoms: C7_11  and  C8_12 
REMARK    5  A    between atoms: C8_12  and  C9_13 
REMARK    6  A    between atoms: C9_13  and  C10_14 
REMARK    7  A    between atoms: C10_14  and  C11_15 
REMARK    8  A    between atoms: C11_15  and  N5_16 
REMARK    9  A    between atoms: C13_19  and  C14_20 
ROOT
HETATM    1  C11 UNL     1      22.717   5.817  51.163  1.00  0.00     0.323 C 
HETATM    2  C12 UNL     1      21.587   4.904  51.334  1.00  0.00     0.095 C 
HETATM    3  N6  UNL     1      20.683   4.184  51.458  1.00  0.00    -0.195 NA
ENDROOT
BRANCH   1   4
HETATM    4  C10 UNL     1      23.433   5.547  49.874  1.00  0.00     0.050 C 
BRANCH   4   5
HETATM    5  C9  UNL     1      23.862   4.096  49.753  1.00  0.00     0.005 C 
BRANCH   5   6
HETATM    6  C8  UNL     1      25.324   4.050  50.089  1.00  0.00     0.030 C 
BRANCH   6   7
HETATM    7  C7  UNL     1      25.663   3.164  51.256  1.00  0.00     0.273 C 
BRANCH   7   8
HETATM    8  N4  UNL     1      24.957   3.544  52.463  1.00  0.00     0.113 N 
HETATM    9  H8  UNL     1      25.498   4.383  52.833  1.00  0.00     0.319 HD
BRANCH   8  10
HETATM   10  C6  UNL     1      25.183   2.492  53.426  1.00  0.00     0.380 A 
HETATM   11  N3  UNL     1      26.564   2.141  53.561  1.00  0.00    -0.229 NA
HETATM   12  C5  UNL     1      26.740   0.885  53.321  1.00  0.00     0.158 A 
HETATM   13  N1  UNL     1      27.754  -0.001  53.286  1.00  0.00    -0.325 N 
HETATM   14  C4  UNL     1      25.536   0.276  53.009  1.00  0.00     0.115 A 
HETATM   15  C3  UNL     1      27.198  -1.179  52.950  1.00  0.00     0.212 A 
HETATM   16  N2  UNL     1      25.872  -1.020  52.783  1.00  0.00    -0.239 NA
HETATM   17  C13 UNL     1      24.566   1.199  53.058  1.00  0.00     0.039 A 
BRANCH  13  18
HETATM   18  C2  UNL     1      29.171   0.178  53.538  1.00  0.00     0.127 C 
HETATM   19  C1  UNL     1      29.860  -1.183  53.699  1.00  0.00     0.027 C 
ENDBRANCH  13  18
BRANCH  17  20
HETATM   20  C14 UNL     1      23.184   0.773  52.758  1.00  0.00    -0.022 A 
HETATM   21  C15 UNL     1      22.284   0.186  53.598  1.00  0.00     0.012 A 
HETATM   22  C16 UNL     1      21.029  -0.141  53.132  1.00  0.00     0.003 A 
HETATM   23  C17 UNL     1      20.629   0.097  51.836  1.00  0.00     0.024 A 
HETATM   24  C18 UNL     1      21.510   0.689  50.954  1.00  0.00     0.034 A 
HETATM   25 CL1  UNL     1      21.081   1.027  49.292  1.00  0.00    -0.084 Cl
HETATM   26  C19 UNL     1      22.759   1.008  51.446  1.00  0.00     0.036 A 
ENDBRANCH  17  20
ENDBRANCH   8  10
ENDBRANCH   7   8
ENDBRANCH   6   7
ENDBRANCH   5   6
ENDBRANCH   4   5
ENDBRANCH   1   4
BRANCH   1  27
HETATM   27  N5  UNL     1      22.314   7.199  51.200  1.00  0.00     0.096 N 
HETATM   28  H18 UNL     1      22.548   7.555  52.173  1.00  0.00     0.314 HD
HETATM   29  H19 UNL     1      21.260   7.241  51.149  1.00  0.00     0.314 HD
ENDBRANCH   1  27
TORSDOF 9
ENDMDL
MODEL 5
REMARK VINA RESULT:      -7.4      2.725      5.100
REMARK  9 active torsions:
REMARK  status: ('A' for Active; 'I' for Inactive)
REMARK    1  A    between atoms: C2_2  and  N1_3 
REMARK    2  A    between atoms: C6_9  and  N4_10 
REMARK    3  A    between atoms: N4_10  and  C7_11 
REMARK    4  A    between atoms: C7_11  and  C8_12 
REMARK    5  A    between atoms: C8_12  and  C9_13 
REMARK    6  A    between atoms: C9_13  and  C10_14 
REMARK    7  A    between atoms: C10_14  and  C11_15 
REMARK    8  A    between atoms: C11_15  and  N5_16 
REMARK    9  A    between atoms: C13_19  and  C14_20 
ROOT
HETATM    1  C11 UNL     1      25.324   6.962  49.990  1.00  0.00     0.323 C 
HETATM    2  C12 UNL     1      24.460   7.861  49.224  1.00  0.00     0.095 C 
HETATM    3  N6  UNL     1      23.785   8.581  48.610  1.00  0.00    -0.195 NA
ENDROOT
BRANCH   1   4
HETATM    4  C10 UNL     1      26.058   6.022  49.080  1.00  0.00     0.050 C 
BRANCH   4   5
HETATM    5  C9  UNL     1      25.509   4.609  49.156  1.00  0.00     0.005 C 
BRANCH   5   6
HETATM    6  C8  UNL     1      26.570   3.770  49.808  1.00  0.00     0.030 C 
BRANCH   6   7
HETATM    7  C7  UNL     1      26.075   2.925  50.949  1.00  0.00     0.273 C 
BRANCH   7   8
HETATM    8  N4  UNL     1      25.162   3.644  51.815  1.00  0.00     0.113 N 
HETATM    9  H8  UNL     1      25.739   4.453  52.195  1.00  0.00     0.319 HD
BRANCH   8  10
HETATM   10  C6  UNL     1      24.911   2.791  52.954  1.00  0.00     0.380 A 
HETATM   11  N3  UNL     1      26.109   2.327  53.584  1.00  0.00    -0.229 NA
HETATM   12  C5  UNL     1      26.137   1.038  53.617  1.00  0.00     0.158 A 
HETATM   13  N1  UNL     1      26.951   0.059  54.054  1.00  0.00    -0.325 N 
HETATM   14  C4  UNL     1      24.997   0.512  53.031  1.00  0.00     0.115 A 
HETATM   15  C3  UNL     1      26.334  -1.096  53.748  1.00  0.00     0.212 A 
HETATM   16  N2  UNL     1      25.164  -0.832  53.135  1.00  0.00    -0.239 NA
HETATM   17  C13 UNL     1      24.225   1.524  52.614  1.00  0.00     0.039 A 
BRANCH  13  18
HETATM   18  C2  UNL     1      28.237   0.131  54.722  1.00  0.00     0.127 C 
HETATM   19  C1  UNL     1      29.368   0.238  53.692  1.00  0.00     0.027 C 
ENDBRANCH  13  18
BRANCH  17  20
HETATM   20  C14 UNL     1      22.945   1.198  51.952  1.00  0.00    -0.022 A 
HETATM   21  C15 UNL     1      22.575   1.455  50.666  1.00  0.00     0.012 A 
HETATM   22  C16 UNL     1      21.327   1.070  50.225  1.00  0.00     0.003 A 
HETATM   23  C17 UNL     1      20.417   0.428  51.034  1.00  0.00     0.024 A 
HETATM   24  C18 UNL     1      20.753   0.150  52.343  1.00  0.00     0.034 A 
HETATM   25 CL1  UNL     1      19.654  -0.663  53.436  1.00  0.00    -0.084 Cl
HETATM   26  C19 UNL     1      22.008   0.545  52.758  1.00  0.00     0.036 A 
ENDBRANCH  17  20
ENDBRANCH   8  10
ENDBRANCH   7   8
ENDBRANCH   6   7
ENDBRANCH   5   6
ENDBRANCH   4   5
ENDBRANCH   1   4
BRANCH   1  27
HETATM   27  N5  UNL     1      26.276   7.677  50.800  1.00  0.00     0.096 N 
HETATM   28  H18 UNL     1      26.098   8.711  50.632  1.00  0.00     0.314 HD
HETATM   29  H19 UNL     1      27.241   7.507  50.409  1.00  0.00     0.314 HD
ENDBRANCH   1  27
TORSDOF 9
ENDMDL
MODEL 6
REMARK VINA RESULT:      -7.3      2.648      6.865
REMARK  9 active torsions:
REMARK  status: ('A' for Active; 'I' for Inactive)
REMARK    1  A    between atoms: C2_2  and  N1_3 
REMARK    2  A    between atoms: C6_9  and  N4_10 
REMARK    3  A    between atoms: N4_10  and  C7_11 
REMARK    4  A    between atoms: C7_11  and  C8_12 
REMARK    5  A    between atoms: C8_12  and  C9_13 
REMARK    6  A    between atoms: C9_13  and  C10_14 
REMARK    7  A    between atoms: C10_14  and  C11_15 
REMARK    8  A    between atoms: C11_15  and  N5_16 
REMARK    9  A    between atoms: C13_19  and  C14_20 
ROOT
HETATM    1  C11 UNL     1      29.030  -1.967  52.788  1.00  0.00     0.323 C 
HETATM    2  C12 UNL     1      27.577  -1.918  52.626  1.00  0.00     0.095 C 
HETATM    3  N6  UNL     1      26.421  -1.877  52.512  1.00  0.00    -0.195 NA
ENDROOT
BRANCH   1   4
HETATM    4  C10 UNL     1      29.565  -0.635  53.223  1.00  0.00     0.050 C 
BRANCH   4   5
HETATM    5  C9  UNL     1      29.159  -0.294  54.645  1.00  0.00     0.005 C 
BRANCH   5   6
HETATM    6  C8  UNL     1      28.532   1.069  54.599  1.00  0.00     0.030 C 
BRANCH   6   7
HETATM    7  C7  UNL     1      27.029   1.058  54.540  1.00  0.00     0.273 C 
BRANCH   7   8
HETATM    8  N4  UNL     1      26.496   2.182  53.797  1.00  0.00     0.113 N 
HETATM    9  H8  UNL     1      25.492   2.273  54.139  1.00  0.00     0.319 HD
BRANCH   8  10
HETATM   10  C6  UNL     1      26.390   1.758  52.421  1.00  0.00     0.380 A 
HETATM   11  N3  UNL     1      27.055   2.637  51.508  1.00  0.00    -0.229 NA
HETATM   12  C5  UNL     1      26.232   3.076  50.616  1.00  0.00     0.158 A 
HETATM   13  N1  UNL     1      26.249   3.890  49.544  1.00  0.00    -0.325 N 
HETATM   14  C4  UNL     1      24.965   2.555  50.825  1.00  0.00     0.115 A 
HETATM   15  C3  UNL     1      24.992   3.893  49.067  1.00  0.00     0.212 A 
HETATM   16  N2  UNL     1      24.219   3.096  49.828  1.00  0.00    -0.239 NA
HETATM   17  C13 UNL     1      25.005   1.756  51.900  1.00  0.00     0.039 A 
BRANCH  13  18
HETATM   18  C2  UNL     1      27.336   4.648  48.954  1.00  0.00     0.127 C 
HETATM   19  C1  UNL     1      26.855   6.049  48.554  1.00  0.00     0.027 C 
ENDBRANCH  13  18
BRANCH  17  20
HETATM   20  C14 UNL     1      23.756   1.085  52.315  1.00  0.00    -0.022 A 
HETATM   21  C15 UNL     1      22.532   1.143  51.717  1.00  0.00     0.012 A 
HETATM   22  C16 UNL     1      21.476   0.440  52.256  1.00  0.00     0.003 A 
HETATM   23  C17 UNL     1      21.595  -0.332  53.389  1.00  0.00     0.024 A 
HETATM   24  C18 UNL     1      22.817  -0.417  54.024  1.00  0.00     0.034 A 
HETATM   25 CL1  UNL     1      23.054  -1.377  55.469  1.00  0.00    -0.084 Cl
HETATM   26  C19 UNL     1      23.857   0.295  53.464  1.00  0.00     0.036 A 
ENDBRANCH  17  20
ENDBRANCH   8  10
ENDBRANCH   7   8
ENDBRANCH   6   7
ENDBRANCH   5   6
ENDBRANCH   4   5
ENDBRANCH   1   4
BRANCH   1  27
HETATM   27  N5  UNL     1      29.442  -2.974  53.731  1.00  0.00     0.096 N 
HETATM   28  H18 UNL     1      30.365  -3.361  53.373  1.00  0.00     0.314 HD
HETATM   29  H19 UNL     1      28.771  -3.786  53.667  1.00  0.00     0.314 HD
ENDBRANCH   1  27
TORSDOF 9
ENDMDL
MODEL 7
REMARK VINA RESULT:      -7.2      2.453      3.119
REMARK  9 active torsions:
REMARK  status: ('A' for Active; 'I' for Inactive)
REMARK    1  A    between atoms: C2_2  and  N1_3 
REMARK    2  A    between atoms: C6_9  and  N4_10 
REMARK    3  A    between atoms: N4_10  and  C7_11 
REMARK    4  A    between atoms: C7_11  and  C8_12 
REMARK    5  A    between atoms: C8_12  and  C9_13 
REMARK    6  A    between atoms: C9_13  and  C10_14 
REMARK    7  A    between atoms: C10_14  and  C11_15 
REMARK    8  A    between atoms: C11_15  and  N5_16 
REMARK    9  A    between atoms: C13_19  and  C14_20 
ROOT
HETATM    1  C11 UNL     1      26.943   8.686  49.403  1.00  0.00     0.323 C 
HETATM    2  C12 UNL     1      27.307   9.771  48.491  1.00  0.00     0.095 C 
HETATM    3  N6  UNL     1      27.610  10.629  47.769  1.00  0.00    -0.195 NA
ENDROOT
BRANCH   1   4
HETATM    4  C10 UNL     1      27.414   7.363  48.877  1.00  0.00     0.050 C 
BRANCH   4   5
HETATM    5  C9  UNL     1      26.260   6.417  48.599  1.00  0.00     0.005 C 
BRANCH   5   6
HETATM    6  C8  UNL     1      25.608   6.134  49.921  1.00  0.00     0.030 C 
BRANCH   6   7
HETATM    7  C7  UNL     1      25.156   4.710  50.096  1.00  0.00     0.273 C 
BRANCH   7   8
HETATM    8  N4  UNL     1      26.138   3.900  50.790  1.00  0.00     0.113 N 
HETATM    9  H8  UNL     1      26.988   3.907  50.149  1.00  0.00     0.319 HD
BRANCH   8  10
HETATM   10  C6  UNL     1      25.652   2.540  50.757  1.00  0.00     0.380 A 
HETATM   11  N3  UNL     1      24.226   2.454  50.672  1.00  0.00    -0.229 NA
HETATM   12  C5  UNL     1      23.750   1.769  51.657  1.00  0.00     0.158 A 
HETATM   13  N1  UNL     1      22.552   1.357  52.111  1.00  0.00    -0.325 N 
HETATM   14  C4  UNL     1      24.772   1.334  52.485  1.00  0.00     0.115 A 
HETATM   15  C3  UNL     1      22.805   0.658  53.232  1.00  0.00     0.212 A 
HETATM   16  N2  UNL     1      24.132   0.641  53.460  1.00  0.00    -0.239 NA
HETATM   17  C13 UNL     1      25.938   1.771  51.989  1.00  0.00     0.039 A 
BRANCH  13  18
HETATM   18  C2  UNL     1      21.219   1.570  51.580  1.00  0.00     0.127 C 
HETATM   19  C1  UNL     1      20.795   0.380  50.709  1.00  0.00     0.027 C 
ENDBRANCH  13  18
BRANCH  17  20
HETATM   20  C14 UNL     1      27.177   1.424  52.714  1.00  0.00    -0.022 A 
HETATM   21  C15 UNL     1      28.011   2.257  53.400  1.00  0.00     0.012 A 
HETATM   22  C16 UNL     1      29.130   1.743  54.019  1.00  0.00     0.003 A 
HETATM   23  C17 UNL     1      29.456   0.406  53.979  1.00  0.00     0.024 A 
HETATM   24  C18 UNL     1      28.638  -0.470  53.296  1.00  0.00     0.034 A 
HETATM   25 CL1  UNL     1      28.980  -2.183  53.197  1.00  0.00    -0.084 Cl
HETATM   26  C19 UNL     1      27.525   0.070  52.686  1.00  0.00     0.036 A 
ENDBRANCH  17  20
ENDBRANCH   8  10
ENDBRANCH   7   8
ENDBRANCH   6   7
ENDBRANCH   5   6
ENDBRANCH   4   5
ENDBRANCH   1   4
BRANCH   1  27
HETATM   27  N5  UNL     1      27.473   8.884  50.728  1.00  0.00     0.096 N 
HETATM   28  H18 UNL     1      27.692   7.918  51.112  1.00  0.00     0.314 HD
HETATM   29  H19 UNL     1      26.699   9.246  51.347  1.00  0.00     0.314 HD
ENDBRANCH   1  27
TORSDOF 9
ENDMDL
MODEL 8
REMARK VINA RESULT:      -7.0      3.045      6.645
REMARK  9 active torsions:
REMARK  status: ('A' for Active; 'I' for Inactive)
REMARK    1  A    between atoms: C2_2  and  N1_3 
REMARK    2  A    between atoms: C6_9  and  N4_10 
REMARK    3  A    between atoms: N4_10  and  C7_11 
REMARK    4  A    between atoms: C7_11  and  C8_12 
REMARK    5  A    between atoms: C8_12  and  C9_13 
REMARK    6  A    between atoms: C9_13  and  C10_14 
REMARK    7  A    between atoms: C10_14  and  C11_15 
REMARK    8  A    between atoms: C11_15  and  N5_16 
REMARK    9  A    between atoms: C13_19  and  C14_20 
ROOT
HETATM    1  C11 UNL     1      18.863   1.118  51.777  1.00  0.00     0.323 C 
HETATM    2  C12 UNL     1      17.914   0.016  51.940  1.00  0.00     0.095 C 
HETATM    3  N6  UNL     1      17.167  -0.866  52.059  1.00  0.00    -0.195 NA
ENDROOT
BRANCH   1   4
HETATM    4  C10 UNL     1      20.269   0.654  52.015  1.00  0.00     0.050 C 
BRANCH   4   5
HETATM    5  C9  UNL     1      20.521   0.323  53.475  1.00  0.00     0.005 C 
BRANCH   5   6
HETATM    6  C8  UNL     1      21.113  -1.056  53.507  1.00  0.00     0.030 C 
BRANCH   6   7
HETATM    7  C7  UNL     1      22.283  -1.205  54.441  1.00  0.00     0.273 C 
BRANCH   7   8
HETATM    8  N4  UNL     1      23.101  -0.009  54.499  1.00  0.00     0.113 N 
HETATM    9  H8  UNL     1      22.455   0.769  54.169  1.00  0.00     0.319 HD
BRANCH   8  10
HETATM   10  C6  UNL     1      24.099  -0.138  53.464  1.00  0.00     0.380 A 
HETATM   11  N3  UNL     1      25.391  -0.493  53.968  1.00  0.00    -0.229 NA
HETATM   12  C5  UNL     1      26.272   0.382  53.619  1.00  0.00     0.158 A 
HETATM   13  N1  UNL     1      27.592   0.599  53.775  1.00  0.00    -0.325 N 
HETATM   14  C4  UNL     1      25.689   1.387  52.866  1.00  0.00     0.115 A 
HETATM   15  C3  UNL     1      27.854   1.745  53.122  1.00  0.00     0.212 A 
HETATM   16  N2  UNL     1      26.720   2.221  52.576  1.00  0.00    -0.239 NA
HETATM   17  C13 UNL     1      24.381   1.123  52.742  1.00  0.00     0.039 A 
BRANCH  13  18
HETATM   18  C2  UNL     1      28.598  -0.175  54.478  1.00  0.00     0.127 C 
HETATM   19  C1  UNL     1      29.500  -0.910  53.479  1.00  0.00     0.027 C 
ENDBRANCH  13  18
BRANCH  17  20
HETATM   20  C14 UNL     1      23.549   2.069  51.971  1.00  0.00    -0.022 A 
HETATM   21  C15 UNL     1      22.949   3.212  52.410  1.00  0.00     0.012 A 
HETATM   22  C16 UNL     1      22.206   3.972  51.533  1.00  0.00     0.003 A 
HETATM   23  C17 UNL     1      22.033   3.630  50.211  1.00  0.00     0.024 A 
HETATM   24  C18 UNL     1      22.623   2.479  49.727  1.00  0.00     0.034 A 
HETATM   25 CL1  UNL     1      22.453   1.973  48.061  1.00  0.00    -0.084 Cl
HETATM   26  C19 UNL     1      23.362   1.738  50.625  1.00  0.00     0.036 A 
ENDBRANCH  17  20
ENDBRANCH   8  10
ENDBRANCH   7   8
ENDBRANCH   6   7
ENDBRANCH   5   6
ENDBRANCH   4   5
ENDBRANCH   1   4
BRANCH   1  27
HETATM   27  N5  UNL     1      18.779   1.723  50.473  1.00  0.00     0.096 N 
HETATM   28  H18 UNL     1      18.229   1.049  49.863  1.00  0.00     0.314 HD
HETATM   29  H19 UNL     1      19.745   1.736  50.048  1.00  0.00     0.314 HD
ENDBRANCH   1  27
TORSDOF 9
ENDMDL
MODEL 9
REMARK VINA RESULT:      -6.9      2.479      6.534
REMARK  9 active torsions:
REMARK  status: ('A' for Active; 'I' for Inactive)
REMARK    1  A    between atoms: C2_2  and  N1_3 
REMARK    2  A    between atoms: C6_9  and  N4_10 
REMARK    3  A    between atoms: N4_10  and  C7_11 
REMARK    4  A    between atoms: C7_11  and  C8_12 
REMARK    5  A    between atoms: C8_12  and  C9_13 
REMARK    6  A    between atoms: C9_13  and  C10_14 
REMARK    7  A    between atoms: C10_14  and  C11_15 
REMARK    8  A    between atoms: C11_15  and  N5_16 
REMARK    9  A    between atoms: C13_19  and  C14_20 
ROOT
HETATM    1  C11 UNL     1      26.945  -1.254  53.568  1.00  0.00     0.323 C 
HETATM    2  C12 UNL     1      28.068  -0.448  54.046  1.00  0.00     0.095 C 
HETATM    3  N6  UNL     1      28.964   0.195  54.412  1.00  0.00    -0.195 NA
ENDROOT
BRANCH   1   4
HETATM    4  C10 UNL     1      25.971  -0.413  52.797  1.00  0.00     0.050 C 
BRANCH   4   5
HETATM    5  C9  UNL     1      26.665   0.476  51.781  1.00  0.00     0.005 C 
BRANCH   5   6
HETATM    6  C8  UNL     1      26.054   1.841  51.916  1.00  0.00     0.030 C 
BRANCH   6   7
HETATM    7  C7  UNL     1      25.769   2.253  53.334  1.00  0.00     0.273 C 
BRANCH   7   8
HETATM    8  N4  UNL     1      24.624   3.137  53.433  1.00  0.00     0.113 N 
HETATM    9  H8  UNL     1      23.956   2.633  54.090  1.00  0.00     0.319 HD
BRANCH   8  10
HETATM   10  C6  UNL     1      23.973   3.120  52.144  1.00  0.00     0.380 A 
HETATM   11  N3  UNL     1      23.869   4.417  51.548  1.00  0.00    -0.229 NA
HETATM   12  C5  UNL     1      22.638   4.703  51.290  1.00  0.00     0.158 A 
HETATM   13  N1  UNL     1      21.930   5.718  50.759  1.00  0.00    -0.325 N 
HETATM   14  C4  UNL     1      21.807   3.663  51.672  1.00  0.00     0.115 A 
HETATM   15  C3  UNL     1      20.644   5.328  50.802  1.00  0.00     0.212 A 
HETATM   16  N2  UNL     1      20.563   4.100  51.346  1.00  0.00    -0.239 NA
HETATM   17  C13 UNL     1      22.559   2.684  52.193  1.00  0.00     0.039 A 
BRANCH  13  18
HETATM   18  C2  UNL     1      22.367   6.996  50.229  1.00  0.00     0.127 C 
HETATM   19  C1  UNL     1      21.169   7.936  50.047  1.00  0.00     0.027 C 
ENDBRANCH  13  18
BRANCH  17  20
HETATM   20  C14 UNL     1      21.880   1.463  52.672  1.00  0.00    -0.022 A 
HETATM   21  C15 UNL     1      20.648   0.995  52.323  1.00  0.00     0.012 A 
HETATM   22  C16 UNL     1      20.180  -0.175  52.881  1.00  0.00     0.003 A 
HETATM   23  C17 UNL     1      20.906  -0.909  53.791  1.00  0.00     0.024 A 
HETATM   24  C18 UNL     1      22.158  -0.469  54.171  1.00  0.00     0.034 A 
HETATM   25 CL1  UNL     1      23.145  -1.343  55.321  1.00  0.00    -0.084 Cl
HETATM   26  C19 UNL     1      22.603   0.703  53.597  1.00  0.00     0.036 A 
ENDBRANCH  17  20
ENDBRANCH   8  10
ENDBRANCH   7   8
ENDBRANCH   6   7
ENDBRANCH   5   6
ENDBRANCH   4   5
ENDBRANCH   1   4
BRANCH   1  27
HETATM   27  N5  UNL     1      27.373  -2.356  52.745  1.00  0.00     0.096 N 
HETATM   28  H18 UNL     1      28.335  -2.099  52.374  1.00  0.00     0.314 HD
HETATM   29  H19 UNL     1      26.759  -2.390  51.887  1.00  0.00     0.314 HD
ENDBRANCH   1  27
TORSDOF 9
ENDMDL
