MODEL 1
REMARK VINA RESULT:      -7.3      0.000      0.000
REMARK  5 active torsions:
REMARK  status: ('A' for Active; 'I' for Inactive)
REMARK    1  A    between atoms: O1_2  and  C2_3 
REMARK    2  A    between atoms: C6_9  and  N3_10 
REMARK    3  A    between atoms: N3_10  and  C7_11 
REMARK    4  A    between atoms: C8_12  and  C9_13 
REMARK    5  A    between atoms: C10_14  and  C11_15 
ROOT
HETATM    1  C2  UNL     1      24.574   3.353  51.525  1.00  0.00     0.073 C 
HETATM    2  C3  UNL     1      25.391   2.430  51.893  1.00  0.00     0.066 C 
HETATM    3  C4  UNL     1      25.767   1.075  51.993  1.00  0.00     0.092 A 
HETATM    4  N1  UNL     1      26.463   0.343  51.197  1.00  0.00    -0.242 NA
HETATM    5  C5  UNL     1      26.539  -0.954  51.780  1.00  0.00     0.230 A 
HETATM    6  N2  UNL     1      25.889  -0.982  52.919  1.00  0.00    -0.240 NA
HETATM    7  C6  UNL     1      25.317   0.334  53.190  1.00  0.00     0.192 A 
HETATM    8  C12 UNL     1      23.878   0.201  53.352  1.00  0.00     0.059 C 
HETATM    9  C13 UNL     1      22.573   0.009  53.503  1.00  0.00     0.135 C 
HETATM   10  O2  UNL     1      21.441   0.854  53.576  1.00  0.00    -0.362 OA
HETATM   11  C14 UNL     1      20.590   0.997  52.449  1.00  0.00     0.186 C 
HETATM   12  C15 UNL     1      20.033   2.409  52.365  1.00  0.00     0.121 C 
HETATM   13  C16 UNL     1      21.073   3.370  52.211  1.00  0.00    -0.088 C 
HETATM   14  S1  UNL     1      22.006   4.212  52.060  1.00  0.00     0.024 SA
HETATM   15  N4  UNL     1      23.096   5.210  51.858  1.00  0.00    -0.331 N 
HETATM   16  C17 UNL     1      22.708   6.353  51.054  1.00  0.00     0.158 C 
HETATM   17  C18 UNL     1      23.802   7.372  51.037  1.00  0.00     0.188 C 
HETATM   18  O3  UNL     1      24.996   6.854  50.527  1.00  0.00    -0.387 OA
HETATM   19  C19 UNL     1      24.865   5.475  50.275  1.00  0.00     0.200 C 
HETATM   20  C20 UNL     1      24.430   4.793  51.554  1.00  0.00     0.172 C 
ENDROOT
BRANCH   7  21
HETATM   21  N3  UNL     1      26.008   0.808  54.392  1.00  0.00    -0.363 N 
HETATM   22  H6  UNL     1      25.992   1.855  54.546  1.00  0.00     0.162 HD
BRANCH  21  23
HETATM   23  C7  UNL     1      26.734   0.201  55.477  1.00  0.00     0.086 C 
HETATM   24  C8  UNL     1      28.039   0.289  55.367  1.00  0.00     0.017 C 
BRANCH  24  25
HETATM   25  C9  UNL     1      28.599   0.954  54.221  1.00  0.00    -0.000 C 
HETATM   26  C10 UNL     1      29.511   0.366  53.492  1.00  0.00     0.004 C 
BRANCH  26  27
HETATM   27  C11 UNL     1      30.086  -0.969  53.685  1.00  0.00     0.249 C 
HETATM   28  F1  UNL     1      29.389  -1.990  53.100  1.00  0.00    -0.251 F 
ENDBRANCH  26  27
ENDBRANCH  24  25
ENDBRANCH  21  23
ENDBRANCH   7  21
BRANCH   1  29
HETATM   29  O1  UNL     1      23.522   2.757  50.922  1.00  0.00    -0.358 OA
HETATM   30  C1  UNL     1      23.434   2.350  49.586  1.00  0.00     0.209 C 
ENDBRANCH   1  29
TORSDOF 5
ENDMDL
MODEL 2
REMARK VINA RESULT:      -7.2      3.228      6.730
REMARK  5 active torsions:
REMARK  status: ('A' for Active; 'I' for Inactive)
REMARK    1  A    between atoms: O1_2  and  C2_3 
REMARK    2  A    between atoms: C6_9  and  N3_10 
REMARK    3  A    between atoms: N3_10  and  C7_11 
REMARK    4  A    between atoms: C8_12  and  C9_13 
REMARK    5  A    between atoms: C10_14  and  C11_15 
ROOT
HETATM    1  C2  UNL     1      23.745   4.214  51.258  1.00  0.00     0.073 C 
HETATM    2  C3  UNL     1      23.884   5.382  50.739  1.00  0.00     0.066 C 
HETATM    3  C4  UNL     1      23.357   6.539  50.128  1.00  0.00     0.092 A 
HETATM    4  N1  UNL     1      22.934   7.635  50.650  1.00  0.00    -0.242 NA
HETATM    5  C5  UNL     1      22.508   8.471  49.578  1.00  0.00     0.230 A 
HETATM    6  N2  UNL     1      22.684   7.865  48.428  1.00  0.00    -0.240 NA
HETATM    7  C6  UNL     1      23.260   6.542  48.654  1.00  0.00     0.192 A 
HETATM    8  C12 UNL     1      22.383   5.538  48.072  1.00  0.00     0.059 C 
HETATM    9  C13 UNL     1      21.549   4.674  47.508  1.00  0.00     0.135 C 
HETATM   10  O2  UNL     1      21.398   3.267  47.535  1.00  0.00    -0.362 OA
HETATM   11  C14 UNL     1      20.378   2.680  48.327  1.00  0.00     0.186 C 
HETATM   12  C15 UNL     1      20.836   1.349  48.902  1.00  0.00     0.121 C 
HETATM   13  C16 UNL     1      21.967   1.512  49.753  1.00  0.00    -0.088 C 
HETATM   14  S1  UNL     1      22.962   1.672  50.518  1.00  0.00     0.024 SA
HETATM   15  N4  UNL     1      24.121   1.854  51.440  1.00  0.00    -0.331 N 
HETATM   16  C17 UNL     1      24.149   0.914  52.545  1.00  0.00     0.158 C 
HETATM   17  C18 UNL     1      25.418   1.063  53.321  1.00  0.00     0.188 C 
HETATM   18  O3  UNL     1      25.576   2.354  53.832  1.00  0.00    -0.387 OA
HETATM   19  C19 UNL     1      24.542   3.193  53.373  1.00  0.00     0.200 C 
HETATM   20  C20 UNL     1      24.531   3.158  51.861  1.00  0.00     0.172 C 
ENDROOT
BRANCH   7  21
HETATM   21  N3  UNL     1      24.589   6.597  48.039  1.00  0.00    -0.363 N 
HETATM   22  H6  UNL     1      24.873   5.740  47.487  1.00  0.00     0.162 HD
BRANCH  21  23
HETATM   23  C7  UNL     1      25.663   7.552  47.978  1.00  0.00     0.086 C 
HETATM   24  C8  UNL     1      26.843   7.058  48.274  1.00  0.00     0.017 C 
BRANCH  24  25
HETATM   25  C9  UNL     1      26.947   5.665  48.620  1.00  0.00    -0.000 C 
HETATM   26  C10 UNL     1      28.094   5.044  48.537  1.00  0.00     0.004 C 
BRANCH  26  27
HETATM   27  C11 UNL     1      29.383   5.601  48.114  1.00  0.00     0.249 C 
HETATM   28  F1  UNL     1      30.284   4.682  47.647  1.00  0.00    -0.251 F 
ENDBRANCH  26  27
ENDBRANCH  24  25
ENDBRANCH  21  23
ENDBRANCH   7  21
BRANCH   1  29
HETATM   29  O1  UNL     1      22.432   3.896  51.213  1.00  0.00    -0.358 OA
HETATM   30  C1  UNL     1      21.402   4.448  51.983  1.00  0.00     0.209 C 
ENDBRANCH   1  29
TORSDOF 5
ENDMDL
MODEL 3
REMARK VINA RESULT:      -7.0      6.852     10.136
REMARK  5 active torsions:
REMARK  status: ('A' for Active; 'I' for Inactive)
REMARK    1  A    between atoms: O1_2  and  C2_3 
REMARK    2  A    between atoms: C6_9  and  N3_10 
REMARK    3  A    between atoms: N3_10  and  C7_11 
REMARK    4  A    between atoms: C8_12  and  C9_13 
REMARK    5  A    between atoms: C10_14  and  C11_15 
ROOT
HETATM    1  C2  UNL     1      28.759   7.854  47.834  1.00  0.00     0.073 C 
HETATM    2  C3  UNL     1      27.497   7.863  47.584  1.00  0.00     0.066 C 
HETATM    3  C4  UNL     1      26.354   8.439  46.993  1.00  0.00     0.092 A 
HETATM    4  N1  UNL     1      25.828   8.243  45.836  1.00  0.00    -0.242 NA
HETATM    5  C5  UNL     1      24.683   9.085  45.751  1.00  0.00     0.230 A 
HETATM    6  N2  UNL     1      24.536   9.773  46.858  1.00  0.00    -0.240 NA
HETATM    7  C6  UNL     1      25.603   9.428  47.794  1.00  0.00     0.192 A 
HETATM    8  C12 UNL     1      26.327  10.637  48.154  1.00  0.00     0.059 C 
HETATM    9  C13 UNL     1      26.936  11.777  48.452  1.00  0.00     0.135 C 
HETATM   10  O2  UNL     1      28.138  12.126  49.112  1.00  0.00    -0.362 OA
HETATM   11  C14 UNL     1      29.273  12.517  48.356  1.00  0.00     0.186 C 
HETATM   12  C15 UNL     1      30.557  12.047  49.022  1.00  0.00     0.121 C 
HETATM   13  C16 UNL     1      30.602  10.626  49.117  1.00  0.00    -0.088 C 
HETATM   14  S1  UNL     1      30.638   9.363  49.181  1.00  0.00     0.024 SA
HETATM   15  N4  UNL     1      30.699   7.873  49.241  1.00  0.00    -0.331 N 
HETATM   16  C17 UNL     1      32.040   7.333  49.125  1.00  0.00     0.158 C 
HETATM   17  C18 UNL     1      32.026   5.856  49.355  1.00  0.00     0.188 C 
HETATM   18  O3  UNL     1      31.199   5.189  48.447  1.00  0.00    -0.387 OA
HETATM   19  C19 UNL     1      30.514   6.114  47.636  1.00  0.00     0.200 C 
HETATM   20  C20 UNL     1      29.754   7.067  48.531  1.00  0.00     0.172 C 
ENDROOT
BRANCH   7  21
HETATM   21  N3  UNL     1      24.924   8.785  48.923  1.00  0.00    -0.363 N 
HETATM   22  H6  UNL     1      23.892   8.594  48.786  1.00  0.00     0.162 HD
BRANCH  21  23
HETATM   23  C7  UNL     1      25.304   8.316  50.229  1.00  0.00     0.086 C 
HETATM   24  C8  UNL     1      25.103   7.033  50.421  1.00  0.00     0.017 C 
BRANCH  24  25
HETATM   25  C9  UNL     1      24.544   6.248  49.353  1.00  0.00    -0.000 C 
HETATM   26  C10 UNL     1      25.172   5.193  48.905  1.00  0.00     0.004 C 
BRANCH  26  27
HETATM   27  C11 UNL     1      26.455   4.654  49.365  1.00  0.00     0.249 C 
HETATM   28  F1  UNL     1      27.445   4.630  48.420  1.00  0.00    -0.251 F 
ENDBRANCH  26  27
ENDBRANCH  24  25
ENDBRANCH  21  23
ENDBRANCH   7  21
BRANCH   1  29
HETATM   29  O1  UNL     1      29.304   8.941  47.244  1.00  0.00    -0.358 OA
HETATM   30  C1  UNL     1      29.494   9.152  45.874  1.00  0.00     0.209 C 
ENDBRANCH   1  29
TORSDOF 5
ENDMDL
MODEL 4
REMARK VINA RESULT:      -6.9      8.979     11.652
REMARK  5 active torsions:
REMARK  status: ('A' for Active; 'I' for Inactive)
REMARK    1  A    between atoms: O1_2  and  C2_3 
REMARK    2  A    between atoms: C6_9  and  N3_10 
REMARK    3  A    between atoms: N3_10  and  C7_11 
REMARK    4  A    between atoms: C8_12  and  C9_13 
REMARK    5  A    between atoms: C10_14  and  C11_15 
ROOT
HETATM    1  C2  UNL     1      32.196   7.385  44.830  1.00  0.00     0.073 C 
HETATM    2  C3  UNL     1      31.383   7.832  45.721  1.00  0.00     0.066 C 
HETATM    3  C4  UNL     1      31.088   8.237  47.039  1.00  0.00     0.092 A 
HETATM    4  N1  UNL     1      31.158   9.399  47.587  1.00  0.00    -0.242 NA
HETATM    5  C5  UNL     1      30.745   9.246  48.942  1.00  0.00     0.230 A 
HETATM    6  N2  UNL     1      30.432   7.996  49.186  1.00  0.00    -0.240 NA
HETATM    7  C6  UNL     1      30.614   7.199  47.977  1.00  0.00     0.192 A 
HETATM    8  C12 UNL     1      31.549   6.120  48.257  1.00  0.00     0.059 C 
HETATM    9  C13 UNL     1      32.395   5.151  48.581  1.00  0.00     0.135 C 
HETATM   10  O2  UNL     1      33.136   4.187  47.857  1.00  0.00    -0.362 OA
HETATM   11  C14 UNL     1      34.523   4.383  47.632  1.00  0.00     0.186 C 
HETATM   12  C15 UNL     1      34.936   3.833  46.276  1.00  0.00     0.121 C 
HETATM   13  C16 UNL     1      34.256   4.499  45.216  1.00  0.00    -0.088 C 
HETATM   14  S1  UNL     1      33.657   5.108  44.283  1.00  0.00     0.024 SA
HETATM   15  N4  UNL     1      32.973   5.836  43.175  1.00  0.00    -0.331 N 
HETATM   16  C17 UNL     1      33.769   5.957  41.968  1.00  0.00     0.158 C 
HETATM   17  C18 UNL     1      32.954   6.553  40.866  1.00  0.00     0.188 C 
HETATM   18  O3  UNL     1      32.459   7.816  41.200  1.00  0.00    -0.387 OA
HETATM   19  C19 UNL     1      32.774   8.129  42.537  1.00  0.00     0.200 C 
HETATM   20  C20 UNL     1      32.231   7.033  43.426  1.00  0.00     0.172 C 
ENDROOT
BRANCH   7  21
HETATM   21  N3  UNL     1      29.269   6.740  47.618  1.00  0.00    -0.363 N 
HETATM   22  H6  UNL     1      29.227   5.853  47.042  1.00  0.00     0.162 HD
BRANCH  21  23
HETATM   23  C7  UNL     1      27.924   7.192  47.855  1.00  0.00     0.086 C 
HETATM   24  C8  UNL     1      27.126   6.275  48.351  1.00  0.00     0.017 C 
BRANCH  24  25
HETATM   25  C9  UNL     1      27.649   4.958  48.600  1.00  0.00    -0.000 C 
HETATM   26  C10 UNL     1      26.956   4.086  49.284  1.00  0.00     0.004 C 
BRANCH  26  27
HETATM   27  C11 UNL     1      25.627   4.268  49.876  1.00  0.00     0.249 C 
HETATM   28  F1  UNL     1      24.603   3.670  49.193  1.00  0.00    -0.251 F 
ENDBRANCH  26  27
ENDBRANCH  24  25
ENDBRANCH  21  23
ENDBRANCH   7  21
BRANCH   1  29
HETATM   29  O1  UNL     1      33.394   7.190  45.425  1.00  0.00    -0.358 OA
HETATM   30  C1  UNL     1      34.259   8.170  45.922  1.00  0.00     0.209 C 
ENDBRANCH   1  29
TORSDOF 5
ENDMDL
MODEL 5
REMARK VINA RESULT:      -6.8      2.894      6.718
REMARK  5 active torsions:
REMARK  status: ('A' for Active; 'I' for Inactive)
REMARK    1  A    between atoms: O1_2  and  C2_3 
REMARK    2  A    between atoms: C6_9  and  N3_10 
REMARK    3  A    between atoms: N3_10  and  C7_11 
REMARK    4  A    between atoms: C8_12  and  C9_13 
REMARK    5  A    between atoms: C10_14  and  C11_15 
ROOT
HETATM    1  C2  UNL     1      24.604   3.459  51.431  1.00  0.00     0.073 C 
HETATM    2  C3  UNL     1      24.487   4.533  50.733  1.00  0.00     0.066 C 
HETATM    3  C4  UNL     1      23.920   5.802  50.495  1.00  0.00     0.092 A 
HETATM    4  N1  UNL     1      24.311   6.970  50.864  1.00  0.00    -0.242 NA
HETATM    5  C5  UNL     1      23.369   7.907  50.351  1.00  0.00     0.230 A 
HETATM    6  N2  UNL     1      22.427   7.288  49.680  1.00  0.00    -0.240 NA
HETATM    7  C6  UNL     1      22.680   5.849  49.692  1.00  0.00     0.192 A 
HETATM    8  C12 UNL     1      21.527   5.170  50.262  1.00  0.00     0.059 C 
HETATM    9  C13 UNL     1      20.439   4.611  50.776  1.00  0.00     0.135 C 
HETATM   10  O2  UNL     1      20.107   3.319  51.247  1.00  0.00    -0.362 OA
HETATM   11  C14 UNL     1      20.059   3.066  52.643  1.00  0.00     0.186 C 
HETATM   12  C15 UNL     1      20.525   1.653  52.955  1.00  0.00     0.121 C 
HETATM   13  C16 UNL     1      21.877   1.451  52.553  1.00  0.00    -0.088 C 
HETATM   14  S1  UNL     1      23.083   1.290  52.206  1.00  0.00     0.024 SA
HETATM   15  N4  UNL     1      24.511   1.096  51.822  1.00  0.00    -0.331 N 
HETATM   16  C17 UNL     1      25.236   0.182  52.684  1.00  0.00     0.158 C 
HETATM   17  C18 UNL     1      26.603  -0.075  52.136  1.00  0.00     0.188 C 
HETATM   18  O3  UNL     1      27.349   1.100  52.006  1.00  0.00    -0.387 OA
HETATM   19  C19 UNL     1      26.558   2.221  52.324  1.00  0.00     0.200 C 
HETATM   20  C20 UNL     1      25.329   2.206  51.441  1.00  0.00     0.172 C 
ENDROOT
BRANCH   7  21
HETATM   21  N3  UNL     1      22.945   5.499  48.294  1.00  0.00    -0.363 N 
HETATM   22  H6  UNL     1      23.958   5.555  47.993  1.00  0.00     0.162 HD
BRANCH  21  23
HETATM   23  C7  UNL     1      22.159   5.074  47.166  1.00  0.00     0.086 C 
HETATM   24  C8  UNL     1      22.182   3.779  46.950  1.00  0.00     0.017 C 
BRANCH  24  25
HETATM   25  C9  UNL     1      22.961   2.941  47.822  1.00  0.00    -0.000 C 
HETATM   26  C10 UNL     1      22.392   1.983  48.505  1.00  0.00     0.004 C 
BRANCH  26  27
HETATM   27  C11 UNL     1      20.973   1.610  48.512  1.00  0.00     0.249 C 
HETATM   28  F1  UNL     1      20.608   0.744  49.505  1.00  0.00    -0.251 F 
ENDBRANCH  26  27
ENDBRANCH  24  25
ENDBRANCH  21  23
ENDBRANCH   7  21
BRANCH   1  29
HETATM   29  O1  UNL     1      23.768   3.561  52.488  1.00  0.00    -0.358 OA
HETATM   30  C1  UNL     1      23.788   4.538  53.490  1.00  0.00     0.209 C 
ENDBRANCH   1  29
TORSDOF 5
ENDMDL
MODEL 6
REMARK VINA RESULT:      -6.4      3.826      6.514
REMARK  5 active torsions:
REMARK  status: ('A' for Active; 'I' for Inactive)
REMARK    1  A    between atoms: O1_2  and  C2_3 
REMARK    2  A    between atoms: C6_9  and  N3_10 
REMARK    3  A    between atoms: N3_10  and  C7_11 
REMARK    4  A    between atoms: C8_12  and  C9_13 
REMARK    5  A    between atoms: C10_14  and  C11_15 
ROOT
HETATM    1  C2  UNL     1      19.240   3.613  50.812  1.00  0.00     0.073 C 
HETATM    2  C3  UNL     1      20.389   3.568  51.388  1.00  0.00     0.066 C 
HETATM    3  C4  UNL     1      21.735   3.973  51.504  1.00  0.00     0.092 A 
HETATM    4  N1  UNL     1      22.259   4.932  52.181  1.00  0.00    -0.242 NA
HETATM    5  C5  UNL     1      23.662   4.895  51.939  1.00  0.00     0.230 A 
HETATM    6  N2  UNL     1      23.960   3.913  51.122  1.00  0.00    -0.240 NA
HETATM    7  C6  UNL     1      22.742   3.199  50.749  1.00  0.00     0.192 A 
HETATM    8  C12 UNL     1      22.605   3.218  49.301  1.00  0.00     0.059 C 
HETATM    9  C13 UNL     1      22.547   3.260  47.977  1.00  0.00     0.135 C 
HETATM   10  O2  UNL     1      21.560   2.956  47.010  1.00  0.00    -0.362 OA
HETATM   11  C14 UNL     1      20.833   4.003  46.386  1.00  0.00     0.186 C 
HETATM   12  C15 UNL     1      19.402   3.576  46.101  1.00  0.00     0.121 C 
HETATM   13  C16 UNL     1      18.705   3.259  47.302  1.00  0.00    -0.088 C 
HETATM   14  S1  UNL     1      18.093   2.995  48.378  1.00  0.00     0.024 SA
HETATM   15  N4  UNL     1      17.356   2.704  49.642  1.00  0.00    -0.331 N 
HETATM   16  C17 UNL     1      15.943   3.029  49.589  1.00  0.00     0.158 C 
HETATM   17  C18 UNL     1      15.256   2.560  50.831  1.00  0.00     0.188 C 
HETATM   18  O3  UNL     1      15.801   3.133  51.984  1.00  0.00    -0.387 OA
HETATM   19  C19 UNL     1      16.929   3.911  51.659  1.00  0.00     0.200 C 
HETATM   20  C20 UNL     1      17.915   3.037  50.916  1.00  0.00     0.172 C 
ENDROOT
BRANCH   7  21
HETATM   21  N3  UNL     1      22.903   1.855  51.312  1.00  0.00    -0.363 N 
HETATM   22  H6  UNL     1      22.098   1.189  51.142  1.00  0.00     0.162 HD
BRANCH  21  23
HETATM   23  C7  UNL     1      23.914   1.163  52.066  1.00  0.00     0.086 C 
HETATM   24  C8  UNL     1      23.470   0.585  53.159  1.00  0.00     0.017 C 
BRANCH  24  25
HETATM   25  C9  UNL     1      22.074   0.696  53.488  1.00  0.00    -0.000 C 
HETATM   26  C10 UNL     1      21.482  -0.233  54.191  1.00  0.00     0.004 C 
BRANCH  26  27
HETATM   27  C11 UNL     1      22.076  -1.458  54.734  1.00  0.00     0.249 C 
HETATM   28  F1  UNL     1      22.903  -1.273  55.808  1.00  0.00    -0.251 F 
ENDBRANCH  26  27
ENDBRANCH  24  25
ENDBRANCH  21  23
ENDBRANCH   7  21
BRANCH   1  29
HETATM   29  O1  UNL     1      19.328   4.483  49.782  1.00  0.00    -0.358 OA
HETATM   30  C1  UNL     1      19.496   5.870  49.860  1.00  0.00     0.209 C 
ENDBRANCH   1  29
TORSDOF 5
ENDMDL
MODEL 7
REMARK VINA RESULT:      -6.3      2.664      5.665
REMARK  5 active torsions:
REMARK  status: ('A' for Active; 'I' for Inactive)
REMARK    1  A    between atoms: O1_2  and  C2_3 
REMARK    2  A    between atoms: C6_9  and  N3_10 
REMARK    3  A    between atoms: N3_10  and  C7_11 
REMARK    4  A    between atoms: C8_12  and  C9_13 
REMARK    5  A    between atoms: C10_14  and  C11_15 
ROOT
HETATM    1  C2  UNL     1      21.583   2.695  51.477  1.00  0.00     0.073 C 
HETATM    2  C3  UNL     1      22.695   3.341  51.482  1.00  0.00     0.066 C 
HETATM    3  C4  UNL     1      23.473   4.472  51.164  1.00  0.00     0.092 A 
HETATM    4  N1  UNL     1      23.705   5.540  51.842  1.00  0.00    -0.242 NA
HETATM    5  C5  UNL     1      24.557   6.362  51.050  1.00  0.00     0.230 A 
HETATM    6  N2  UNL     1      24.825   5.775  49.908  1.00  0.00    -0.240 NA
HETATM    7  C6  UNL     1      24.156   4.478  49.853  1.00  0.00     0.192 A 
HETATM    8  C12 UNL     1      23.290   4.440  48.685  1.00  0.00     0.059 C 
HETATM    9  C13 UNL     1      22.533   4.465  47.597  1.00  0.00     0.135 C 
HETATM   10  O2  UNL     1      21.501   3.647  47.078  1.00  0.00    -0.362 OA
HETATM   11  C14 UNL     1      20.148   4.056  47.192  1.00  0.00     0.186 C 
HETATM   12  C15 UNL     1      19.233   2.859  47.394  1.00  0.00     0.121 C 
HETATM   13  C16 UNL     1      19.548   2.162  48.596  1.00  0.00    -0.088 C 
HETATM   14  S1  UNL     1      19.828   1.560  49.673  1.00  0.00     0.024 SA
HETATM   15  N4  UNL     1      20.135   0.858  50.953  1.00  0.00    -0.331 N 
HETATM   16  C17 UNL     1      18.976   0.266  51.595  1.00  0.00     0.158 C 
HETATM   17  C18 UNL     1      19.396  -0.547  52.777  1.00  0.00     0.188 C 
HETATM   18  O3  UNL     1      20.086   0.215  53.723  1.00  0.00    -0.387 OA
HETATM   19  C19 UNL     1      20.295   1.522  53.242  1.00  0.00     0.200 C 
HETATM   20  C20 UNL     1      21.020   1.436  51.918  1.00  0.00     0.172 C 
ENDROOT
BRANCH   7  21
HETATM   21  N3  UNL     1      25.240   3.492  49.821  1.00  0.00    -0.363 N 
HETATM   22  H6  UNL     1      25.031   2.601  49.289  1.00  0.00     0.162 HD
BRANCH  21  23
HETATM   23  C7  UNL     1      26.579   3.408  50.340  1.00  0.00     0.086 C 
HETATM   24  C8  UNL     1      26.774   2.411  51.170  1.00  0.00     0.017 C 
BRANCH  24  25
HETATM   25  C9  UNL     1      25.676   1.532  51.474  1.00  0.00    -0.000 C 
HETATM   26  C10 UNL     1      25.823   0.558  52.333  1.00  0.00     0.004 C 
BRANCH  26  27
HETATM   27  C11 UNL     1      27.029   0.205  53.087  1.00  0.00     0.249 C 
HETATM   28  F1  UNL     1      27.796  -0.779  52.525  1.00  0.00    -0.251 F 
ENDBRANCH  26  27
ENDBRANCH  24  25
ENDBRANCH  21  23
ENDBRANCH   7  21
BRANCH   1  29
HETATM   29  O1  UNL     1      20.662   3.463  50.854  1.00  0.00    -0.358 OA
HETATM   30  C1  UNL     1      20.227   4.737  51.234  1.00  0.00     0.209 C 
ENDBRANCH   1  29
TORSDOF 5
ENDMDL
MODEL 8
REMARK VINA RESULT:      -6.3      7.271     11.755
REMARK  5 active torsions:
REMARK  status: ('A' for Active; 'I' for Inactive)
REMARK    1  A    between atoms: O1_2  and  C2_3 
REMARK    2  A    between atoms: C6_9  and  N3_10 
REMARK    3  A    between atoms: N3_10  and  C7_11 
REMARK    4  A    between atoms: C8_12  and  C9_13 
REMARK    5  A    between atoms: C10_14  and  C11_15 
ROOT
HETATM    1  C2  UNL     1      15.852  -0.247  52.066  1.00  0.00     0.073 C 
HETATM    2  C3  UNL     1      15.030   0.735  51.945  1.00  0.00     0.066 C 
HETATM    3  C4  UNL     1      14.609   1.931  51.329  1.00  0.00     0.092 A 
HETATM    4  N1  UNL     1      13.826   2.119  50.326  1.00  0.00    -0.242 NA
HETATM    5  C5  UNL     1      13.743   3.526  50.120  1.00  0.00     0.230 A 
HETATM    6  N2  UNL     1      14.475   4.162  51.002  1.00  0.00    -0.240 NA
HETATM    7  C6  UNL     1      15.119   3.198  51.892  1.00  0.00     0.192 A 
HETATM    8  C12 UNL     1      16.560   3.387  51.832  1.00  0.00     0.059 C 
HETATM    9  C13 UNL     1      17.863   3.620  51.744  1.00  0.00     0.135 C 
HETATM   10  O2  UNL     1      19.030   2.941  52.165  1.00  0.00    -0.362 OA
HETATM   11  C14 UNL     1      19.798   2.204  51.226  1.00  0.00     0.186 C 
HETATM   12  C15 UNL     1      20.403   0.967  51.871  1.00  0.00     0.121 C 
HETATM   13  C16 UNL     1      19.393   0.084  52.351  1.00  0.00    -0.088 C 
HETATM   14  S1  UNL     1      18.486  -0.698  52.759  1.00  0.00     0.024 SA
HETATM   15  N4  UNL     1      17.425  -1.638  53.222  1.00  0.00    -0.331 N 
HETATM   16  C17 UNL     1      17.796  -3.038  53.134  1.00  0.00     0.158 C 
HETATM   17  C18 UNL     1      16.745  -3.894  53.763  1.00  0.00     0.188 C 
HETATM   18  O3  UNL     1      15.496  -3.727  53.159  1.00  0.00    -0.387 OA
HETATM   19  C19 UNL     1      15.552  -2.705  52.192  1.00  0.00     0.200 C 
HETATM   20  C20 UNL     1      16.055  -1.443  52.857  1.00  0.00     0.172 C 
ENDROOT
BRANCH   7  21
HETATM   21  N3  UNL     1      14.541   3.457  53.213  1.00  0.00    -0.363 N 
HETATM   22  H6  UNL     1      14.806   2.768  53.971  1.00  0.00     0.162 HD
BRANCH  21  23
HETATM   23  C7  UNL     1      13.669   4.448  53.787  1.00  0.00     0.086 C 
HETATM   24  C8  UNL     1      12.431   4.045  53.954  1.00  0.00     0.017 C 
BRANCH  24  25
HETATM   25  C9  UNL     1      12.075   2.708  53.563  1.00  0.00    -0.000 C 
HETATM   26  C10 UNL     1      11.731   1.822  54.461  1.00  0.00     0.004 C 
BRANCH  26  27
HETATM   27  C11 UNL     1      11.649   2.007  55.913  1.00  0.00     0.249 C 
HETATM   28  F1  UNL     1      10.516   1.508  56.496  1.00  0.00    -0.251 F 
ENDBRANCH  26  27
ENDBRANCH  24  25
ENDBRANCH  21  23
ENDBRANCH   7  21
BRANCH   1  29
HETATM   29  O1  UNL     1      16.831  -0.081  51.150  1.00  0.00    -0.358 OA
HETATM   30  C1  UNL     1      16.726  -0.241  49.764  1.00  0.00     0.209 C 
ENDBRANCH   1  29
TORSDOF 5
ENDMDL
MODEL 9
REMARK VINA RESULT:      -6.3      4.194      6.253
REMARK  5 active torsions:
REMARK  status: ('A' for Active; 'I' for Inactive)
REMARK    1  A    between atoms: O1_2  and  C2_3 
REMARK    2  A    between atoms: C6_9  and  N3_10 
REMARK    3  A    between atoms: N3_10  and  C7_11 
REMARK    4  A    between atoms: C8_12  and  C9_13 
REMARK    5  A    between atoms: C10_14  and  C11_15 
ROOT
HETATM    1  C2  UNL     1      21.682   3.747  48.223  1.00  0.00     0.073 C 
HETATM    2  C3  UNL     1      22.469   4.087  49.182  1.00  0.00     0.066 C 
HETATM    3  C4  UNL     1      23.063   3.857  50.440  1.00  0.00     0.092 A 
HETATM    4  N1  UNL     1      24.159   3.258  50.745  1.00  0.00    -0.242 NA
HETATM    5  C5  UNL     1      24.283   3.309  52.162  1.00  0.00     0.230 A 
HETATM    6  N2  UNL     1      23.260   3.939  52.688  1.00  0.00    -0.240 NA
HETATM    7  C6  UNL     1      22.353   4.372  51.629  1.00  0.00     0.192 A 
HETATM    8  C12 UNL     1      21.034   3.810  51.875  1.00  0.00     0.059 C 
HETATM    9  C13 UNL     1      19.853   3.279  52.164  1.00  0.00     0.135 C 
HETATM   10  O2  UNL     1      18.628   3.130  51.473  1.00  0.00    -0.362 OA
HETATM   11  C14 UNL     1      18.282   1.875  50.908  1.00  0.00     0.186 C 
HETATM   12  C15 UNL     1      17.507   2.057  49.613  1.00  0.00     0.121 C 
HETATM   13  C16 UNL     1      18.285   2.741  48.634  1.00  0.00    -0.088 C 
HETATM   14  S1  UNL     1      18.991   3.335  47.769  1.00  0.00     0.024 SA
HETATM   15  N4  UNL     1      19.823   4.015  46.734  1.00  0.00    -0.331 N 
HETATM   16  C17 UNL     1      19.543   3.588  45.376  1.00  0.00     0.158 C 
HETATM   17  C18 UNL     1      20.301   4.429  44.401  1.00  0.00     0.188 C 
HETATM   18  O3  UNL     1      21.682   4.364  44.610  1.00  0.00    -0.387 OA
HETATM   19  C19 UNL     1      21.968   3.608  45.764  1.00  0.00     0.200 C 
HETATM   20  C20 UNL     1      21.226   4.218  46.932  1.00  0.00     0.172 C 
ENDROOT
BRANCH   7  21
HETATM   21  N3  UNL     1      22.391   5.836  51.671  1.00  0.00    -0.363 N 
HETATM   22  H6  UNL     1      22.711   6.259  52.587  1.00  0.00     0.162 HD
BRANCH  21  23
HETATM   23  C7  UNL     1      22.100   6.907  50.755  1.00  0.00     0.086 C 
HETATM   24  C8  UNL     1      23.135   7.658  50.456  1.00  0.00     0.017 C 
BRANCH  24  25
HETATM   25  C9  UNL     1      24.410   7.354  51.050  1.00  0.00    -0.000 C 
HETATM   26  C10 UNL     1      25.379   6.859  50.326  1.00  0.00     0.004 C 
BRANCH  26  27
HETATM   27  C11 UNL     1      25.354   6.547  48.893  1.00  0.00     0.249 C 
HETATM   28  F1  UNL     1      25.618   5.240  48.582  1.00  0.00    -0.251 F 
ENDBRANCH  26  27
ENDBRANCH  24  25
ENDBRANCH  21  23
ENDBRANCH   7  21
BRANCH   1  29
HETATM   29  O1  UNL     1      21.112   2.568  48.556  1.00  0.00    -0.358 OA
HETATM   30  C1  UNL     1      21.724   1.310  48.573  1.00  0.00     0.209 C 
ENDBRANCH   1  29
TORSDOF 5
ENDMDL
