MODEL 1
REMARK VINA RESULT:      -8.0      0.000      0.000
REMARK  1 active torsions:
REMARK  status: ('A' for Active; 'I' for Inactive)
REMARK    1  A    between atoms: C7_9  and  C8_10 
ROOT
HETATM    1  C1  UNL     1      22.041   4.448  52.322  1.00  0.00     0.119 C 
HETATM    2  N1  UNL     1      21.958   4.448  51.032  1.00  0.00    -0.282 NA
HETATM    3  C2  UNL     1      20.704   4.139  50.365  1.00  0.00     0.264 C 
HETATM    4  N2  UNL     1      20.455   2.763  50.517  1.00  0.00    -0.404 N 
HETATM    5  C3  UNL     1      21.214   1.782  49.866  1.00  0.00     0.119 C 
HETATM    6  C4  UNL     1      22.606   1.632  50.285  1.00  0.00     0.053 C 
HETATM    7  C5  UNL     1      23.602   2.640  50.006  1.00  0.00    -0.074 C 
HETATM    8  C6  UNL     1      24.554   2.414  50.941  1.00  0.00     0.035 C 
HETATM    9  C7  UNL     1      26.027   2.592  50.958  1.00  0.00     0.063 C 
HETATM   10  N3  UNL     1      26.800   3.371  50.235  1.00  0.00    -0.274 NA
HETATM   11  C14 UNL     1      26.471   4.406  49.230  1.00  0.00     0.253 C 
HETATM   12  N4  UNL     1      25.436   5.265  49.696  1.00  0.00    -0.228 NA
HETATM   13  C15 UNL     1      24.099   5.023  49.328  1.00  0.00     0.145 A 
HETATM   14  C16 UNL     1      23.664   3.674  48.966  1.00  0.00     0.066 C 
HETATM   15  S1  UNL     1      24.482   5.088  51.090  1.00  0.00    -0.102 SA
HETATM   16  C17 UNL     1      23.451   4.807  52.299  1.00  0.00     0.070 C 
HETATM   17  H4  UNL     1      19.597   2.475  51.013  1.00  0.00     0.154 HD
ENDROOT
BRANCH   9  18
HETATM   18  C8  UNL     1      26.768   1.792  51.916  1.00  0.00    -0.008 A 
HETATM   19  C9  UNL     1      26.471   0.446  51.868  1.00  0.00     0.014 A 
HETATM   20  C10 UNL     1      27.100  -0.452  52.734  1.00  0.00     0.001 A 
HETATM   21  C11 UNL     1      28.030  -0.032  53.660  1.00  0.00     0.000 A 
HETATM   22  C12 UNL     1      28.316   1.314  53.697  1.00  0.00     0.001 A 
HETATM   23  C13 UNL     1      27.683   2.166  52.835  1.00  0.00     0.014 A 
ENDBRANCH   9  18
TORSDOF 1
ENDMDL
MODEL 2
REMARK VINA RESULT:      -7.8      2.340      2.918
REMARK  1 active torsions:
REMARK  status: ('A' for Active; 'I' for Inactive)
REMARK    1  A    between atoms: C7_9  and  C8_10 
ROOT
HETATM    1  C1  UNL     1      20.827   4.662  51.089  1.00  0.00     0.119 C 
HETATM    2  N1  UNL     1      21.472   4.548  49.975  1.00  0.00    -0.282 NA
HETATM    3  C2  UNL     1      20.782   4.643  48.699  1.00  0.00     0.264 C 
HETATM    4  N2  UNL     1      20.012   3.478  48.530  1.00  0.00    -0.404 N 
HETATM    5  C3  UNL     1      20.586   2.222  48.294  1.00  0.00     0.119 C 
HETATM    6  C4  UNL     1      21.349   1.624  49.388  1.00  0.00     0.053 C 
HETATM    7  C5  UNL     1      22.619   2.163  49.819  1.00  0.00    -0.074 C 
HETATM    8  C6  UNL     1      22.740   1.713  51.089  1.00  0.00     0.035 C 
HETATM    9  C7  UNL     1      23.904   1.344  51.931  1.00  0.00     0.063 C 
HETATM   10  N3  UNL     1      25.166   1.703  51.847  1.00  0.00    -0.274 NA
HETATM   11  C14 UNL     1      25.845   2.667  50.953  1.00  0.00     0.253 C 
HETATM   12  N4  UNL     1      25.121   3.890  50.870  1.00  0.00    -0.228 NA
HETATM   13  C15 UNL     1      24.229   4.110  49.803  1.00  0.00     0.145 A 
HETATM   14  C16 UNL     1      23.611   2.980  49.110  1.00  0.00     0.066 C 
HETATM   15  S1  UNL     1      23.573   4.229  51.480  1.00  0.00    -0.102 SA
HETATM   16  C17 UNL     1      22.032   4.480  51.884  1.00  0.00     0.070 C 
HETATM   17  H4  UNL     1      18.989   3.579  48.438  1.00  0.00     0.154 HD
ENDROOT
BRANCH   9  18
HETATM   18  C8  UNL     1      23.646   0.443  53.039  1.00  0.00    -0.008 A 
HETATM   19  C9  UNL     1      22.308   0.292  53.336  1.00  0.00     0.014 A 
HETATM   20  C10 UNL     1      21.901  -0.540  54.383  1.00  0.00     0.001 A 
HETATM   21  C11 UNL     1      22.812  -1.233  55.150  1.00  0.00     0.000 A 
HETATM   22  C12 UNL     1      24.143  -1.073  54.842  1.00  0.00     0.001 A 
HETATM   23  C13 UNL     1      24.508  -0.252  53.811  1.00  0.00     0.014 A 
ENDBRANCH   9  18
TORSDOF 1
ENDMDL
MODEL 3
REMARK VINA RESULT:      -7.7      2.715      4.372
REMARK  1 active torsions:
REMARK  status: ('A' for Active; 'I' for Inactive)
REMARK    1  A    between atoms: C7_9  and  C8_10 
ROOT
HETATM    1  C1  UNL     1      21.221   2.248  48.997  1.00  0.00     0.119 C 
HETATM    2  N1  UNL     1      20.469   2.759  49.914  1.00  0.00    -0.282 NA
HETATM    3  C2  UNL     1      19.931   4.103  49.775  1.00  0.00     0.264 C 
HETATM    4  N2  UNL     1      20.988   5.016  49.942  1.00  0.00    -0.404 N 
HETATM    5  C3  UNL     1      21.611   5.233  51.178  1.00  0.00     0.119 C 
HETATM    6  C4  UNL     1      22.403   4.134  51.725  1.00  0.00     0.053 C 
HETATM    7  C5  UNL     1      21.792   2.916  52.205  1.00  0.00    -0.074 C 
HETATM    8  C6  UNL     1      22.792   2.008  52.132  1.00  0.00     0.035 C 
HETATM    9  C7  UNL     1      23.133   0.803  52.927  1.00  0.00     0.063 C 
HETATM   10  N3  UNL     1      22.377   0.035  53.680  1.00  0.00    -0.274 NA
HETATM   11  C14 UNL     1      20.916   0.044  53.920  1.00  0.00     0.253 C 
HETATM   12  N4  UNL     1      20.195   0.167  52.698  1.00  0.00    -0.228 NA
HETATM   13  C15 UNL     1      19.749   1.431  52.267  1.00  0.00     0.145 A 
HETATM   14  C16 UNL     1      20.436   2.646  52.700  1.00  0.00     0.066 C 
HETATM   15  S1  UNL     1      20.812   0.493  51.150  1.00  0.00    -0.102 SA
HETATM   16  C17 UNL     1      21.381   1.000  49.728  1.00  0.00     0.070 C 
HETATM   17  H4  UNL     1      21.216   5.647  49.156  1.00  0.00     0.154 HD
ENDROOT
BRANCH   9  18
HETATM   18  C8  UNL     1      24.518   0.369  52.890  1.00  0.00    -0.008 A 
HETATM   19  C9  UNL     1      25.311   1.106  52.036  1.00  0.00     0.014 A 
HETATM   20  C10 UNL     1      26.668   0.804  51.888  1.00  0.00     0.001 A 
HETATM   21  C11 UNL     1      27.257  -0.229  52.581  1.00  0.00     0.000 A 
HETATM   22  C12 UNL     1      26.454  -0.956  53.429  1.00  0.00     0.001 A 
HETATM   23  C13 UNL     1      25.130  -0.635  53.552  1.00  0.00     0.014 A 
ENDBRANCH   9  18
TORSDOF 1
ENDMDL
MODEL 4
REMARK VINA RESULT:      -7.6      5.406      8.420
REMARK  1 active torsions:
REMARK  status: ('A' for Active; 'I' for Inactive)
REMARK    1  A    between atoms: C7_9  and  C8_10 
ROOT
HETATM    1  C1  UNL     1      29.733  10.416  48.585  1.00  0.00     0.119 C 
HETATM    2  N1  UNL     1      30.497  10.070  47.602  1.00  0.00    -0.282 NA
HETATM    3  C2  UNL     1      30.708  10.959  46.471  1.00  0.00     0.264 C 
HETATM    4  N2  UNL     1      29.522  10.994  45.715  1.00  0.00    -0.404 N 
HETATM    5  C3  UNL     1      29.076   9.900  44.962  1.00  0.00     0.119 C 
HETATM    6  C4  UNL     1      28.633   8.721  45.701  1.00  0.00     0.053 C 
HETATM    7  C5  UNL     1      29.558   7.885  46.433  1.00  0.00    -0.074 C 
HETATM    8  C6  UNL     1      28.774   7.269  47.347  1.00  0.00     0.035 C 
HETATM    9  C7  UNL     1      28.829   5.940  48.005  1.00  0.00     0.063 C 
HETATM   10  N3  UNL     1      29.841   5.125  48.197  1.00  0.00    -0.274 NA
HETATM   11  C14 UNL     1      31.286   5.285  47.918  1.00  0.00     0.253 C 
HETATM   12  N4  UNL     1      31.758   6.552  48.364  1.00  0.00    -0.228 NA
HETATM   13  C15 UNL     1      31.851   7.628  47.460  1.00  0.00     0.145 A 
HETATM   14  C16 UNL     1      31.001   7.672  46.271  1.00  0.00     0.066 C 
HETATM   15  S1  UNL     1      30.845   7.863  48.939  1.00  0.00    -0.102 SA
HETATM   16  C17 UNL     1      29.961   9.165  49.292  1.00  0.00     0.070 C 
HETATM   17  H4  UNL     1      29.043  11.901  45.602  1.00  0.00     0.154 HD
ENDROOT
BRANCH   9  18
HETATM   18  C8  UNL     1      27.580   5.424  48.535  1.00  0.00    -0.008 A 
HETATM   19  C9  UNL     1      26.540   6.329  48.494  1.00  0.00     0.014 A 
HETATM   20  C10 UNL     1      25.274   5.980  48.975  1.00  0.00     0.001 A 
HETATM   21  C11 UNL     1      25.021   4.734  49.502  1.00  0.00     0.000 A 
HETATM   22  C12 UNL     1      26.067   3.841  49.537  1.00  0.00     0.001 A 
HETATM   23  C13 UNL     1      27.293   4.213  49.058  1.00  0.00     0.014 A 
ENDBRANCH   9  18
TORSDOF 1
ENDMDL
MODEL 5
REMARK VINA RESULT:      -7.4      2.877      4.445
REMARK  1 active torsions:
REMARK  status: ('A' for Active; 'I' for Inactive)
REMARK    1  A    between atoms: C7_9  and  C8_10 
ROOT
HETATM    1  C1  UNL     1      23.246   2.037  51.720  1.00  0.00     0.119 C 
HETATM    2  N1  UNL     1      22.145   2.448  51.184  1.00  0.00    -0.282 NA
HETATM    3  C2  UNL     1      21.146   1.503  50.712  1.00  0.00     0.264 C 
HETATM    4  N2  UNL     1      21.641   0.887  49.549  1.00  0.00    -0.404 N 
HETATM    5  C3  UNL     1      21.782   1.570  48.335  1.00  0.00     0.119 C 
HETATM    6  C4  UNL     1      22.798   2.619  48.276  1.00  0.00     0.053 C 
HETATM    7  C5  UNL     1      22.657   3.861  49.001  1.00  0.00    -0.074 C 
HETATM    8  C6  UNL     1      23.930   4.304  49.122  1.00  0.00     0.035 C 
HETATM    9  C7  UNL     1      24.535   5.657  49.186  1.00  0.00     0.063 C 
HETATM   10  N3  UNL     1      24.010   6.811  49.532  1.00  0.00    -0.274 NA
HETATM   11  C14 UNL     1      22.673   7.149  50.070  1.00  0.00     0.253 C 
HETATM   12  N4  UNL     1      22.299   6.259  51.116  1.00  0.00    -0.228 NA
HETATM   13  C15 UNL     1      21.486   5.143  50.836  1.00  0.00     0.145 A 
HETATM   14  C16 UNL     1      21.465   4.561  49.495  1.00  0.00     0.066 C 
HETATM   15  S1  UNL     1      23.088   4.838  51.609  1.00  0.00    -0.102 SA
HETATM   16  C17 UNL     1      23.727   3.393  51.936  1.00  0.00     0.070 C 
HETATM   17  H4  UNL     1      21.771  -0.137  49.558  1.00  0.00     0.154 HD
ENDROOT
BRANCH   9  18
HETATM   18  C8  UNL     1      25.934   5.763  48.813  1.00  0.00    -0.008 A 
HETATM   19  C9  UNL     1      26.280   6.990  48.287  1.00  0.00     0.014 A 
HETATM   20  C10 UNL     1      27.592   7.243  47.876  1.00  0.00     0.001 A 
HETATM   21  C11 UNL     1      28.577   6.286  47.979  1.00  0.00     0.000 A 
HETATM   22  C12 UNL     1      28.218   5.067  48.505  1.00  0.00     0.001 A 
HETATM   23  C13 UNL     1      26.926   4.852  48.899  1.00  0.00     0.014 A 
ENDBRANCH   9  18
TORSDOF 1
ENDMDL
MODEL 6
REMARK VINA RESULT:      -7.3      6.791     10.100
REMARK  1 active torsions:
REMARK  status: ('A' for Active; 'I' for Inactive)
REMARK    1  A    between atoms: C7_9  and  C8_10 
ROOT
HETATM    1  C1  UNL     1      33.019   5.027  44.540  1.00  0.00     0.119 C 
HETATM    2  N1  UNL     1      33.942   5.147  45.435  1.00  0.00    -0.282 NA
HETATM    3  C2  UNL     1      34.978   4.137  45.580  1.00  0.00     0.264 C 
HETATM    4  N2  UNL     1      34.393   2.988  46.142  1.00  0.00    -0.404 N 
HETATM    5  C3  UNL     1      33.952   2.939  47.471  1.00  0.00     0.119 C 
HETATM    6  C4  UNL     1      32.796   3.763  47.818  1.00  0.00     0.053 C 
HETATM    7  C5  UNL     1      32.870   5.206  47.858  1.00  0.00    -0.074 C 
HETATM    8  C6  UNL     1      31.584   5.594  47.698  1.00  0.00     0.035 C 
HETATM    9  C7  UNL     1      30.804   6.758  48.184  1.00  0.00     0.063 C 
HETATM   10  N3  UNL     1      31.203   7.946  48.581  1.00  0.00    -0.274 NA
HETATM   11  C14 UNL     1      32.545   8.568  48.591  1.00  0.00     0.253 C 
HETATM   12  N4  UNL     1      33.216   8.364  47.352  1.00  0.00    -0.228 NA
HETATM   13  C15 UNL     1      34.127   7.299  47.211  1.00  0.00     0.145 A 
HETATM   14  C16 UNL     1      34.011   6.109  48.052  1.00  0.00     0.066 C 
HETATM   15  S1  UNL     1      32.740   7.371  46.059  1.00  0.00    -0.102 SA
HETATM   16  C17 UNL     1      32.385   6.278  44.927  1.00  0.00     0.070 C 
HETATM   17  H4  UNL     1      34.420   2.111  45.598  1.00  0.00     0.154 HD
ENDROOT
BRANCH   9  18
HETATM   18  C8  UNL     1      29.363   6.598  48.243  1.00  0.00    -0.008 A 
HETATM   19  C9  UNL     1      28.955   5.303  48.488  1.00  0.00     0.014 A 
HETATM   20  C10 UNL     1      27.595   4.988  48.567  1.00  0.00     0.001 A 
HETATM   21  C11 UNL     1      26.622   5.949  48.406  1.00  0.00     0.000 A 
HETATM   22  C12 UNL     1      27.043   7.236  48.163  1.00  0.00     0.001 A 
HETATM   23  C13 UNL     1      28.381   7.511  48.092  1.00  0.00     0.014 A 
ENDBRANCH   9  18
TORSDOF 1
ENDMDL
MODEL 7
REMARK VINA RESULT:      -7.2      3.098      4.634
REMARK  1 active torsions:
REMARK  status: ('A' for Active; 'I' for Inactive)
REMARK    1  A    between atoms: C7_9  and  C8_10 
ROOT
HETATM    1  C1  UNL     1      20.493   3.161  52.761  1.00  0.00     0.119 C 
HETATM    2  N1  UNL     1      20.353   1.963  52.297  1.00  0.00    -0.282 NA
HETATM    3  C2  UNL     1      20.216   0.826  53.193  1.00  0.00     0.264 C 
HETATM    4  N2  UNL     1      21.465   0.592  53.796  1.00  0.00    -0.404 N 
HETATM    5  C3  UNL     1      22.564   0.090  53.087  1.00  0.00     0.119 C 
HETATM    6  C4  UNL     1      23.156   0.962  52.075  1.00  0.00     0.053 C 
HETATM    7  C5  UNL     1      22.466   1.287  50.847  1.00  0.00    -0.074 C 
HETATM    8  C6  UNL     1      23.046   2.444  50.454  1.00  0.00     0.035 C 
HETATM    9  C7  UNL     1      23.315   3.048  49.126  1.00  0.00     0.063 C 
HETATM   10  N3  UNL     1      22.738   2.843  47.963  1.00  0.00    -0.274 NA
HETATM   11  C14 UNL     1      21.566   2.019  47.591  1.00  0.00     0.253 C 
HETATM   12  N4  UNL     1      20.484   2.226  48.494  1.00  0.00    -0.228 NA
HETATM   13  C15 UNL     1      20.286   1.341  49.572  1.00  0.00     0.145 A 
HETATM   14  C16 UNL     1      21.408   0.578  50.118  1.00  0.00     0.066 C 
HETATM   15  S1  UNL     1      20.495   3.092  49.955  1.00  0.00    -0.102 SA
HETATM   16  C17 UNL     1      20.566   3.742  51.429  1.00  0.00     0.070 C 
HETATM   17  H4  UNL     1      21.530   0.661  54.824  1.00  0.00     0.154 HD
ENDROOT
BRANCH   9  18
HETATM   18  C8  UNL     1      24.380   4.032  49.061  1.00  0.00    -0.008 A 
HETATM   19  C9  UNL     1      25.626   3.527  49.371  1.00  0.00     0.014 A 
HETATM   20  C10 UNL     1      26.752   4.355  49.358  1.00  0.00     0.001 A 
HETATM   21  C11 UNL     1      26.661   5.692  49.040  1.00  0.00     0.000 A 
HETATM   22  C12 UNL     1      25.413   6.182  48.733  1.00  0.00     0.001 A 
HETATM   23  C13 UNL     1      24.331   5.345  48.754  1.00  0.00     0.014 A 
ENDBRANCH   9  18
TORSDOF 1
ENDMDL
MODEL 8
REMARK VINA RESULT:      -7.2      6.555      8.568
REMARK  1 active torsions:
REMARK  status: ('A' for Active; 'I' for Inactive)
REMARK    1  A    between atoms: C7_9  and  C8_10 
ROOT
HETATM    1  C1  UNL     1      30.162   9.174  49.585  1.00  0.00     0.119 C 
HETATM    2  N1  UNL     1      29.290   9.168  48.631  1.00  0.00    -0.282 NA
HETATM    3  C2  UNL     1      27.867   9.225  48.920  1.00  0.00     0.264 C 
HETATM    4  N2  UNL     1      27.481   7.986  49.464  1.00  0.00    -0.404 N 
HETATM    5  C3  UNL     1      27.431   6.811  48.703  1.00  0.00     0.119 C 
HETATM    6  C4  UNL     1      28.703   6.269  48.233  1.00  0.00     0.053 C 
HETATM    7  C5  UNL     1      29.490   6.934  47.219  1.00  0.00    -0.074 C 
HETATM    8  C6  UNL     1      30.740   6.461  47.427  1.00  0.00     0.035 C 
HETATM    9  C7  UNL     1      31.891   6.199  46.528  1.00  0.00     0.063 C 
HETATM   10  N3  UNL     1      32.184   6.699  45.349  1.00  0.00    -0.274 NA
HETATM   11  C14 UNL     1      31.529   7.762  44.553  1.00  0.00     0.253 C 
HETATM   12  N4  UNL     1      31.231   8.897  45.358  1.00  0.00    -0.228 NA
HETATM   13  C15 UNL     1      29.946   9.049  45.915  1.00  0.00     0.145 A 
HETATM   14  C16 UNL     1      29.105   7.879  46.165  1.00  0.00     0.066 C 
HETATM   15  S1  UNL     1      31.353   9.041  47.046  1.00  0.00    -0.102 SA
HETATM   16  C17 UNL     1      31.280   9.104  48.656  1.00  0.00     0.070 C 
HETATM   17  H4  UNL     1      27.089   7.974  50.419  1.00  0.00     0.154 HD
ENDROOT
BRANCH   9  18
HETATM   18  C8  UNL     1      32.876   5.240  46.995  1.00  0.00    -0.008 A 
HETATM   19  C9  UNL     1      32.473   3.926  46.883  1.00  0.00     0.014 A 
HETATM   20  C10 UNL     1      33.311   2.887  47.297  1.00  0.00     0.001 A 
HETATM   21  C11 UNL     1      34.559   3.134  47.827  1.00  0.00     0.000 A 
HETATM   22  C12 UNL     1      34.948   4.449  47.932  1.00  0.00     0.001 A 
HETATM   23  C13 UNL     1      34.104   5.442  47.517  1.00  0.00     0.014 A 
ENDBRANCH   9  18
TORSDOF 1
ENDMDL
MODEL 9
REMARK VINA RESULT:      -7.0      2.565      4.654
REMARK  1 active torsions:
REMARK  status: ('A' for Active; 'I' for Inactive)
REMARK    1  A    between atoms: C7_9  and  C8_10 
ROOT
HETATM    1  C1  UNL     1      21.999   5.900  50.625  1.00  0.00     0.119 C 
HETATM    2  N1  UNL     1      23.017   5.545  49.913  1.00  0.00    -0.282 NA
HETATM    3  C2  UNL     1      23.228   6.097  48.584  1.00  0.00     0.264 C 
HETATM    4  N2  UNL     1      22.261   5.547  47.724  1.00  0.00    -0.404 N 
HETATM    5  C3  UNL     1      22.280   4.203  47.329  1.00  0.00     0.119 C 
HETATM    6  C4  UNL     1      22.008   3.204  48.360  1.00  0.00     0.053 C 
HETATM    7  C5  UNL     1      22.939   2.939  49.433  1.00  0.00    -0.074 C 
HETATM    8  C6  UNL     1      22.164   2.396  50.399  1.00  0.00     0.035 C 
HETATM    9  C7  UNL     1      22.417   1.393  51.463  1.00  0.00     0.063 C 
HETATM   10  N3  UNL     1      23.540   1.022  52.036  1.00  0.00    -0.274 NA
HETATM   11  C14 UNL     1      24.921   1.536  51.894  1.00  0.00     0.253 C 
HETATM   12  N4  UNL     1      24.947   2.959  51.946  1.00  0.00    -0.228 NA
HETATM   13  C15 UNL     1      24.950   3.708  50.754  1.00  0.00     0.145 A 
HETATM   14  C16 UNL     1      24.389   3.148  49.526  1.00  0.00     0.066 C 
HETATM   15  S1  UNL     1      23.628   4.028  51.939  1.00  0.00    -0.102 SA
HETATM   16  C17 UNL     1      22.385   5.035  51.730  1.00  0.00     0.070 C 
HETATM   17  H4  UNL     1      21.601   6.190  47.258  1.00  0.00     0.154 HD
ENDROOT
BRANCH   9  18
HETATM   18  C8  UNL     1      21.259   0.687  51.981  1.00  0.00    -0.008 A 
HETATM   19  C9  UNL     1      21.489   0.040  53.177  1.00  0.00     0.014 A 
HETATM   20  C10 UNL     1      20.470  -0.688  53.799  1.00  0.00     0.001 A 
HETATM   21  C11 UNL     1      19.212  -0.786  53.246  1.00  0.00     0.000 A 
HETATM   22  C12 UNL     1      18.997  -0.135  52.054  1.00  0.00     0.001 A 
HETATM   23  C13 UNL     1      20.015   0.570  51.471  1.00  0.00     0.014 A 
ENDBRANCH   9  18
TORSDOF 1
ENDMDL
