MODEL 1
REMARK VINA RESULT:      -9.0      0.000      0.000
REMARK  5 active torsions:
REMARK  status: ('A' for Active; 'I' for Inactive)
REMARK    1  A    between atoms: N1_1  and  C1_2 
REMARK    2  A    between atoms: C2_4  and  N3_5 
REMARK    3  A    between atoms: N3_5  and  C3_6 
REMARK    4  A    between atoms: C11_15  and  C12_16 
REMARK    5  A    between atoms: C12_16  and  C13_17 
ROOT
HETATM    1  C1  UNL     1      21.110   3.160  51.652  1.00  0.00     0.719 C 
HETATM    2  N2  UNL     1      22.088   3.903  51.245  1.00  0.00    -0.079 NA
HETATM    3  C2  UNL     1      23.475   3.404  51.329  1.00  0.00     0.240 C 
HETATM    4  C9  UNL     1      23.592   2.531  52.488  1.00  0.00     0.125 C 
HETATM    5  C10 UNL     1      24.835   1.772  52.697  1.00  0.00     0.015 C 
HETATM    6  C11 UNL     1      24.576   0.614  53.275  1.00  0.00     0.012 C 
HETATM    7  N4  UNL     1      23.156   0.433  53.273  1.00  0.00    -0.347 N 
HETATM    8  C19 UNL     1      22.510   1.549  52.634  1.00  0.00     0.135 C 
HETATM    9  N5  UNL     1      21.325   1.950  52.352  1.00  0.00    -0.049 NA
HETATM   10  H17 UNL     1      22.481  -0.302  53.618  1.00  0.00     0.167 HD
ENDROOT
BRANCH   3  11
HETATM   11  N3  UNL     1      24.313   4.598  51.415  1.00  0.00    -0.366 N 
HETATM   12  H4  UNL     1      24.146   5.231  52.199  1.00  0.00     0.162 HD
BRANCH  11  13
HETATM   13  C3  UNL     1      25.317   4.860  50.445  1.00  0.00     0.030 A 
HETATM   14  C4  UNL     1      26.164   3.871  49.991  1.00  0.00     0.029 A 
HETATM   15  C5  UNL     1      27.129   4.173  49.043  1.00  0.00     0.004 A 
HETATM   16  C6  UNL     1      27.246   5.455  48.552  1.00  0.00     0.019 A 
HETATM   17  C7  UNL     1      26.400   6.460  49.000  1.00  0.00     0.013 A 
HETATM   18 BR1  UNL     1      26.519   8.265  48.353  1.00  0.00    -0.051 Br
HETATM   19  C8  UNL     1      25.445   6.137  49.945  1.00  0.00     0.048 A 
ENDBRANCH  11  13
ENDBRANCH   3  11
BRANCH   1  20
HETATM   20  N1  UNL     1      19.683   3.410  51.662  1.00  0.00    -0.231 N 
HETATM   21  H1  UNL     1      18.869   2.733  51.565  1.00  0.00     0.174 HD
HETATM   22  H2  UNL     1      19.186   4.323  51.770  1.00  0.00     0.174 HD
ENDBRANCH   1  20
BRANCH   6  23
HETATM   23  C12 UNL     1      25.296  -0.566  53.762  1.00  0.00     0.097 C 
BRANCH  23  24
HETATM   24  C13 UNL     1      26.739  -0.411  53.941  1.00  0.00    -0.031 A 
HETATM   25  C14 UNL     1      27.466   0.431  54.756  1.00  0.00     0.009 A 
HETATM   26  C15 UNL     1      28.839   0.428  54.786  1.00  0.00     0.001 A 
HETATM   27  C16 UNL     1      29.564  -0.443  53.980  1.00  0.00     0.002 A 
HETATM   28  C17 UNL     1      28.851  -1.295  53.157  1.00  0.00     0.024 A 
HETATM   29  C18 UNL     1      27.470  -1.289  53.129  1.00  0.00     0.040 A 
HETATM   30 CL1  UNL     1      26.769  -2.454  52.009  1.00  0.00    -0.084 Cl
ENDBRANCH  23  24
ENDBRANCH   6  23
TORSDOF 5
ENDMDL
MODEL 2
REMARK VINA RESULT:      -8.8      3.445      5.642
REMARK  5 active torsions:
REMARK  status: ('A' for Active; 'I' for Inactive)
REMARK    1  A    between atoms: N1_1  and  C1_2 
REMARK    2  A    between atoms: C2_4  and  N3_5 
REMARK    3  A    between atoms: N3_5  and  C3_6 
REMARK    4  A    between atoms: C11_15  and  C12_16 
REMARK    5  A    between atoms: C12_16  and  C13_17 
ROOT
HETATM    1  C1  UNL     1      22.257   5.376  51.792  1.00  0.00     0.719 C 
HETATM    2  N2  UNL     1      21.538   4.341  52.086  1.00  0.00    -0.079 NA
HETATM    3  C2  UNL     1      22.184   3.028  52.279  1.00  0.00     0.240 C 
HETATM    4  C9  UNL     1      23.348   2.943  51.410  1.00  0.00     0.125 C 
HETATM    5  C10 UNL     1      24.262   1.797  51.538  1.00  0.00     0.015 C 
HETATM    6  C11 UNL     1      25.500   2.163  51.263  1.00  0.00     0.012 C 
HETATM    7  N4  UNL     1      25.524   3.591  51.167  1.00  0.00    -0.347 N 
HETATM    8  C19 UNL     1      24.213   4.130  51.419  1.00  0.00     0.135 C 
HETATM    9  N5  UNL     1      23.628   5.270  51.463  1.00  0.00    -0.049 NA
HETATM   10  H17 UNL     1      26.250   4.329  50.962  1.00  0.00     0.167 HD
ENDROOT
BRANCH   3  11
HETATM   11  N3  UNL     1      21.154   2.039  51.967  1.00  0.00    -0.366 N 
HETATM   12  H4  UNL     1      20.574   2.211  51.144  1.00  0.00     0.162 HD
BRANCH  11  13
HETATM   13  C3  UNL     1      20.974   0.887  52.779  1.00  0.00     0.030 A 
HETATM   14  C4  UNL     1      21.964   0.434  53.626  1.00  0.00     0.029 A 
HETATM   15  C5  UNL     1      21.743  -0.694  54.400  1.00  0.00     0.004 A 
HETATM   16  C6  UNL     1      20.541  -1.365  54.327  1.00  0.00     0.019 A 
HETATM   17  C7  UNL     1      19.538  -0.920  53.478  1.00  0.00     0.013 A 
HETATM   18 BR1  UNL     1      17.845  -1.817  53.333  1.00  0.00    -0.051 Br
HETATM   19  C8  UNL     1      19.778   0.207  52.716  1.00  0.00     0.048 A 
ENDBRANCH  11  13
ENDBRANCH   3  11
BRANCH   1  20
HETATM   20  N1  UNL     1      21.870   6.755  51.570  1.00  0.00    -0.231 N 
HETATM   21  H1  UNL     1      21.928   7.349  50.691  1.00  0.00     0.174 HD
HETATM   22  H2  UNL     1      21.455   7.428  52.253  1.00  0.00     0.174 HD
ENDBRANCH   1  20
BRANCH   6  23
HETATM   23  C12 UNL     1      26.838   1.568  51.182  1.00  0.00     0.097 C 
BRANCH  23  24
HETATM   24  C13 UNL     1      27.561   1.434  52.446  1.00  0.00    -0.031 A 
HETATM   25  C14 UNL     1      28.299   2.347  53.169  1.00  0.00     0.009 A 
HETATM   26  C15 UNL     1      28.911   2.029  54.356  1.00  0.00     0.001 A 
HETATM   27  C16 UNL     1      28.806   0.748  54.887  1.00  0.00     0.002 A 
HETATM   28  C17 UNL     1      28.069  -0.180  54.175  1.00  0.00     0.024 A 
HETATM   29  C18 UNL     1      27.455   0.144  52.981  1.00  0.00     0.040 A 
HETATM   30 CL1  UNL     1      26.570  -1.190  52.244  1.00  0.00    -0.084 Cl
ENDBRANCH  23  24
ENDBRANCH   6  23
TORSDOF 5
ENDMDL
MODEL 3
REMARK VINA RESULT:      -8.7      2.961      6.401
REMARK  5 active torsions:
REMARK  status: ('A' for Active; 'I' for Inactive)
REMARK    1  A    between atoms: N1_1  and  C1_2 
REMARK    2  A    between atoms: C2_4  and  N3_5 
REMARK    3  A    between atoms: N3_5  and  C3_6 
REMARK    4  A    between atoms: C11_15  and  C12_16 
REMARK    5  A    between atoms: C12_16  and  C13_17 
ROOT
HETATM    1  C1  UNL     1      22.255  -0.435  54.071  1.00  0.00     0.719 C 
HETATM    2  N2  UNL     1      23.447  -0.895  53.867  1.00  0.00    -0.079 NA
HETATM    3  C2  UNL     1      24.483  -0.022  53.282  1.00  0.00     0.240 C 
HETATM    4  C9  UNL     1      23.846   0.917  52.370  1.00  0.00     0.125 C 
HETATM    5  C10 UNL     1      24.643   2.007  51.784  1.00  0.00     0.015 C 
HETATM    6  C11 UNL     1      23.893   3.077  51.600  1.00  0.00     0.012 C 
HETATM    7  N4  UNL     1      22.639   2.851  52.253  1.00  0.00    -0.347 N 
HETATM    8  C19 UNL     1      22.635   1.561  52.892  1.00  0.00     0.135 C 
HETATM    9  N5  UNL     1      21.843   0.826  53.583  1.00  0.00    -0.049 NA
HETATM   10  H17 UNL     1      21.737   3.385  52.378  1.00  0.00     0.167 HD
ENDROOT
BRANCH   3  11
HETATM   11  N3  UNL     1      25.424  -0.924  52.622  1.00  0.00    -0.366 N 
HETATM   12  H4  UNL     1      25.048  -1.558  51.915  1.00  0.00     0.162 HD
BRANCH  11  13
HETATM   13  C3  UNL     1      26.805  -0.913  52.955  1.00  0.00     0.030 A 
HETATM   14  C4  UNL     1      27.591  -2.040  52.828  1.00  0.00     0.029 A 
HETATM   15  C5  UNL     1      28.935  -1.983  53.163  1.00  0.00     0.004 A 
HETATM   16  C6  UNL     1      29.488  -0.807  53.624  1.00  0.00     0.019 A 
HETATM   17  C7  UNL     1      28.709   0.333  53.756  1.00  0.00     0.013 A 
HETATM   18 BR1  UNL     1      29.426   1.997  54.394  1.00  0.00    -0.051 Br
HETATM   19  C8  UNL     1      27.372   0.254  53.416  1.00  0.00     0.048 A 
ENDBRANCH  11  13
ENDBRANCH   3  11
BRANCH   1  20
HETATM   20  N1  UNL     1      21.085  -1.076  54.637  1.00  0.00    -0.231 N 
HETATM   21  H1  UNL     1      20.317  -1.638  54.164  1.00  0.00     0.174 HD
HETATM   22  H2  UNL     1      20.781  -1.102  55.636  1.00  0.00     0.174 HD
ENDBRANCH   1  20
BRANCH   6  23
HETATM   23  C12 UNL     1      24.019   4.441  51.074  1.00  0.00     0.097 C 
BRANCH  23  24
HETATM   24  C13 UNL     1      25.186   4.700  50.232  1.00  0.00    -0.031 A 
HETATM   25  C14 UNL     1      26.126   3.844  49.698  1.00  0.00     0.009 A 
HETATM   26  C15 UNL     1      27.166   4.284  48.916  1.00  0.00     0.001 A 
HETATM   27  C16 UNL     1      27.313   5.636  48.626  1.00  0.00     0.002 A 
HETATM   28  C17 UNL     1      26.379   6.507  49.153  1.00  0.00     0.024 A 
HETATM   29  C18 UNL     1      25.334   6.062  49.940  1.00  0.00     0.040 A 
HETATM   30 CL1  UNL     1      24.265   7.343  50.505  1.00  0.00    -0.084 Cl
ENDBRANCH  23  24
ENDBRANCH   6  23
TORSDOF 5
ENDMDL
MODEL 4
REMARK VINA RESULT:      -8.7      2.920      5.532
REMARK  5 active torsions:
REMARK  status: ('A' for Active; 'I' for Inactive)
REMARK    1  A    between atoms: N1_1  and  C1_2 
REMARK    2  A    between atoms: C2_4  and  N3_5 
REMARK    3  A    between atoms: N3_5  and  C3_6 
REMARK    4  A    between atoms: C11_15  and  C12_16 
REMARK    5  A    between atoms: C12_16  and  C13_17 
ROOT
HETATM    1  C1  UNL     1      28.266   1.955  53.595  1.00  0.00     0.719 C 
HETATM    2  N2  UNL     1      27.987   2.527  52.468  1.00  0.00    -0.079 NA
HETATM    3  C2  UNL     1      26.623   2.428  51.911  1.00  0.00     0.240 C 
HETATM    4  C9  UNL     1      26.049   1.147  52.296  1.00  0.00     0.125 C 
HETATM    5  C10 UNL     1      24.632   0.875  52.006  1.00  0.00     0.015 C 
HETATM    6  C11 UNL     1      24.111   0.101  52.940  1.00  0.00     0.012 C 
HETATM    7  N4  UNL     1      25.060   0.005  54.007  1.00  0.00    -0.347 N 
HETATM    8  C19 UNL     1      26.230   0.788  53.708  1.00  0.00     0.135 C 
HETATM    9  N5  UNL     1      27.363   1.076  54.236  1.00  0.00    -0.049 NA
HETATM   10  H17 UNL     1      25.112  -0.490  54.938  1.00  0.00     0.167 HD
ENDROOT
BRANCH   3  11
HETATM   11  N3  UNL     1      26.781   2.582  50.467  1.00  0.00    -0.366 N 
HETATM   12  H4  UNL     1      27.214   1.809  49.958  1.00  0.00     0.162 HD
BRANCH  11  13
HETATM   13  C3  UNL     1      26.349   3.761  49.804  1.00  0.00     0.030 A 
HETATM   14  C4  UNL     1      25.012   4.086  49.699  1.00  0.00     0.029 A 
HETATM   15  C5  UNL     1      24.636   5.248  49.043  1.00  0.00     0.004 A 
HETATM   16  C6  UNL     1      25.590   6.079  48.495  1.00  0.00     0.019 A 
HETATM   17  C7  UNL     1      26.937   5.763  48.593  1.00  0.00     0.013 A 
HETATM   18 BR1  UNL     1      28.309   6.882  47.847  1.00  0.00    -0.051 Br
HETATM   19  C8  UNL     1      27.291   4.601  49.251  1.00  0.00     0.048 A 
ENDBRANCH  11  13
ENDBRANCH   3  11
BRANCH   1  20
HETATM   20  N1  UNL     1      29.503   1.917  54.347  1.00  0.00    -0.231 N 
HETATM   21  H1  UNL     1      30.027   2.699  54.843  1.00  0.00     0.174 HD
HETATM   22  H2  UNL     1      30.118   1.095  54.542  1.00  0.00     0.174 HD
ENDBRANCH   1  20
BRANCH   6  23
HETATM   23  C12 UNL     1      22.832  -0.539  53.260  1.00  0.00     0.097 C 
BRANCH  23  24
HETATM   24  C13 UNL     1      21.681  -0.110  52.467  1.00  0.00    -0.031 A 
HETATM   25  C14 UNL     1      21.603   0.661  51.326  1.00  0.00     0.009 A 
HETATM   26  C15 UNL     1      20.410   0.959  50.715  1.00  0.00     0.001 A 
HETATM   27  C16 UNL     1      19.210   0.485  51.234  1.00  0.00     0.002 A 
HETATM   28  C17 UNL     1      19.270  -0.290  52.377  1.00  0.00     0.024 A 
HETATM   29  C18 UNL     1      20.471  -0.587  52.989  1.00  0.00     0.040 A 
HETATM   30 CL1  UNL     1      20.314  -1.587  54.431  1.00  0.00    -0.084 Cl
ENDBRANCH  23  24
ENDBRANCH   6  23
TORSDOF 5
ENDMDL
MODEL 5
REMARK VINA RESULT:      -8.6      3.605      6.373
REMARK  5 active torsions:
REMARK  status: ('A' for Active; 'I' for Inactive)
REMARK    1  A    between atoms: N1_1  and  C1_2 
REMARK    2  A    between atoms: C2_4  and  N3_5 
REMARK    3  A    between atoms: N3_5  and  C3_6 
REMARK    4  A    between atoms: C11_15  and  C12_16 
REMARK    5  A    between atoms: C12_16  and  C13_17 
ROOT
HETATM    1  C1  UNL     1      26.357   4.522  49.319  1.00  0.00     0.719 C 
HETATM    2  N2  UNL     1      26.999   3.971  50.298  1.00  0.00    -0.079 NA
HETATM    3  C2  UNL     1      26.417   2.808  50.997  1.00  0.00     0.240 C 
HETATM    4  C9  UNL     1      24.968   2.931  50.991  1.00  0.00     0.125 C 
HETATM    5  C10 UNL     1      24.146   1.812  51.479  1.00  0.00     0.015 C 
HETATM    6  C11 UNL     1      23.006   1.755  50.815  1.00  0.00     0.012 C 
HETATM    7  N4  UNL     1      23.095   2.663  49.712  1.00  0.00    -0.347 N 
HETATM    8  C19 UNL     1      24.385   3.302  49.695  1.00  0.00     0.135 C 
HETATM    9  N5  UNL     1      25.024   4.172  49.002  1.00  0.00    -0.049 NA
HETATM   10  H17 UNL     1      22.462   2.972  48.927  1.00  0.00     0.167 HD
ENDROOT
BRANCH   3  11
HETATM   11  N3  UNL     1      26.996   2.831  52.338  1.00  0.00    -0.366 N 
HETATM   12  H4  UNL     1      26.881   3.688  52.883  1.00  0.00     0.162 HD
BRANCH  11  13
HETATM   13  C3  UNL     1      27.688   1.705  52.858  1.00  0.00     0.030 A 
HETATM   14  C4  UNL     1      28.788   1.844  53.679  1.00  0.00     0.029 A 
HETATM   15  C5  UNL     1      29.431   0.716  54.164  1.00  0.00     0.004 A 
HETATM   16  C6  UNL     1      28.979  -0.542  53.830  1.00  0.00     0.019 A 
HETATM   17  C7  UNL     1      27.874  -0.696  53.004  1.00  0.00     0.013 A 
HETATM   18 BR1  UNL     1      27.201  -2.424  52.504  1.00  0.00    -0.051 Br
HETATM   19  C8  UNL     1      27.247   0.442  52.532  1.00  0.00     0.048 A 
ENDBRANCH  11  13
ENDBRANCH   3  11
BRANCH   1  20
HETATM   20  N1  UNL     1      26.714   5.646  48.477  1.00  0.00    -0.231 N 
HETATM   21  H1  UNL     1      26.453   5.855  47.468  1.00  0.00     0.174 HD
HETATM   22  H2  UNL     1      27.306   6.472  48.718  1.00  0.00     0.174 HD
ENDBRANCH   1  20
BRANCH   6  23
HETATM   23  C12 UNL     1      21.780   0.951  50.789  1.00  0.00     0.097 C 
BRANCH  23  24
HETATM   24  C13 UNL     1      21.526   0.125  51.969  1.00  0.00    -0.031 A 
HETATM   25  C14 UNL     1      22.374  -0.651  52.731  1.00  0.00     0.009 A 
HETATM   26  C15 UNL     1      21.942  -1.364  53.822  1.00  0.00     0.001 A 
HETATM   27  C16 UNL     1      20.607  -1.329  54.209  1.00  0.00     0.002 A 
HETATM   28  C17 UNL     1      19.744  -0.556  53.456  1.00  0.00     0.024 A 
HETATM   29  C18 UNL     1      20.181   0.160  52.359  1.00  0.00     0.040 A 
HETATM   30 CL1  UNL     1      18.914   1.075  51.547  1.00  0.00    -0.084 Cl
ENDBRANCH  23  24
ENDBRANCH   6  23
TORSDOF 5
ENDMDL
MODEL 6
REMARK VINA RESULT:      -8.5      3.510      5.526
REMARK  5 active torsions:
REMARK  status: ('A' for Active; 'I' for Inactive)
REMARK    1  A    between atoms: N1_1  and  C1_2 
REMARK    2  A    between atoms: C2_4  and  N3_5 
REMARK    3  A    between atoms: N3_5  and  C3_6 
REMARK    4  A    between atoms: C11_15  and  C12_16 
REMARK    5  A    between atoms: C12_16  and  C13_17 
ROOT
HETATM    1  C1  UNL     1      22.917   4.472  52.153  1.00  0.00     0.719 C 
HETATM    2  N2  UNL     1      21.949   3.695  51.786  1.00  0.00    -0.079 NA
HETATM    3  C2  UNL     1      21.950   2.277  52.197  1.00  0.00     0.240 C 
HETATM    4  C9  UNL     1      23.326   1.813  52.290  1.00  0.00     0.125 C 
HETATM    5  C10 UNL     1      23.602   0.478  52.844  1.00  0.00     0.015 C 
HETATM    6  C11 UNL     1      24.756   0.476  53.485  1.00  0.00     0.012 C 
HETATM    7  N4  UNL     1      25.198   1.833  53.596  1.00  0.00    -0.347 N 
HETATM    8  C19 UNL     1      24.237   2.722  52.997  1.00  0.00     0.135 C 
HETATM    9  N5  UNL     1      24.082   3.977  52.784  1.00  0.00    -0.049 NA
HETATM   10  H17 UNL     1      26.037   2.331  53.999  1.00  0.00     0.167 HD
ENDROOT
BRANCH   3  11
HETATM   11  N3  UNL     1      21.170   1.578  51.178  1.00  0.00    -0.366 N 
HETATM   12  H4  UNL     1      21.464   1.688  50.205  1.00  0.00     0.162 HD
BRANCH  11  13
HETATM   13  C3  UNL     1      20.051   0.777  51.532  1.00  0.00     0.030 A 
HETATM   14  C4  UNL     1      19.987   0.112  52.738  1.00  0.00     0.029 A 
HETATM   15  C5  UNL     1      18.874  -0.657  53.042  1.00  0.00     0.004 A 
HETATM   16  C6  UNL     1      17.834  -0.761  52.144  1.00  0.00     0.019 A 
HETATM   17  C7  UNL     1      17.886  -0.098  50.926  1.00  0.00     0.013 A 
HETATM   18 BR1  UNL     1      16.466  -0.208  49.637  1.00  0.00    -0.051 Br
HETATM   19  C8  UNL     1      19.004   0.664  50.644  1.00  0.00     0.048 A 
ENDBRANCH  11  13
ENDBRANCH   3  11
BRANCH   1  20
HETATM   20  N1  UNL     1      23.137   5.881  51.897  1.00  0.00    -0.231 N 
HETATM   21  H1  UNL     1      23.140   6.418  50.980  1.00  0.00     0.174 HD
HETATM   22  H2  UNL     1      23.337   6.640  52.587  1.00  0.00     0.174 HD
ENDBRANCH   1  20
BRANCH   6  23
HETATM   23  C12 UNL     1      25.611  -0.460  54.223  1.00  0.00     0.097 C 
BRANCH  23  24
HETATM   24  C13 UNL     1      27.052  -0.240  54.111  1.00  0.00    -0.031 A 
HETATM   25  C14 UNL     1      27.882   0.667  54.737  1.00  0.00     0.009 A 
HETATM   26  C15 UNL     1      29.233   0.718  54.499  1.00  0.00     0.001 A 
HETATM   27  C16 UNL     1      29.829  -0.159  53.600  1.00  0.00     0.002 A 
HETATM   28  C17 UNL     1      29.012  -1.075  52.964  1.00  0.00     0.024 A 
HETATM   29  C18 UNL     1      27.653  -1.124  53.205  1.00  0.00     0.040 A 
HETATM   30 CL1  UNL     1      26.806  -2.366  52.287  1.00  0.00    -0.084 Cl
ENDBRANCH  23  24
ENDBRANCH   6  23
TORSDOF 5
ENDMDL
MODEL 7
REMARK VINA RESULT:      -8.5      2.731      3.799
REMARK  5 active torsions:
REMARK  status: ('A' for Active; 'I' for Inactive)
REMARK    1  A    between atoms: N1_1  and  C1_2 
REMARK    2  A    between atoms: C2_4  and  N3_5 
REMARK    3  A    between atoms: N3_5  and  C3_6 
REMARK    4  A    between atoms: C11_15  and  C12_16 
REMARK    5  A    between atoms: C12_16  and  C13_17 
ROOT
HETATM    1  C1  UNL     1      19.074  -0.941  53.320  1.00  0.00     0.719 C 
HETATM    2  N2  UNL     1      19.301  -0.096  52.366  1.00  0.00    -0.079 NA
HETATM    3  C2  UNL     1      20.690   0.227  51.985  1.00  0.00     0.240 C 
HETATM    4  C9  UNL     1      21.534   0.145  53.168  1.00  0.00     0.125 C 
HETATM    5  C10 UNL     1      22.994   0.259  53.022  1.00  0.00     0.015 C 
HETATM    6  C11 UNL     1      23.606  -0.480  53.928  1.00  0.00     0.012 C 
HETATM    7  N4  UNL     1      22.619  -1.296  54.568  1.00  0.00    -0.347 N 
HETATM    8  C19 UNL     1      21.321  -1.048  53.998  1.00  0.00     0.135 C 
HETATM    9  N5  UNL     1      20.108  -1.438  54.146  1.00  0.00    -0.049 NA
HETATM   10  H17 UNL     1      22.609  -2.018  55.338  1.00  0.00     0.167 HD
ENDROOT
BRANCH   3  11
HETATM   11  N3  UNL     1      20.632   1.567  51.406  1.00  0.00    -0.366 N 
HETATM   12  H4  UNL     1      20.040   2.255  51.875  1.00  0.00     0.162 HD
BRANCH  11  13
HETATM   13  C3  UNL     1      21.373   1.893  50.239  1.00  0.00     0.030 A 
HETATM   14  C4  UNL     1      21.175   1.232  49.044  1.00  0.00     0.029 A 
HETATM   15  C5  UNL     1      21.920   1.586  47.930  1.00  0.00     0.004 A 
HETATM   16  C6  UNL     1      22.858   2.593  48.010  1.00  0.00     0.019 A 
HETATM   17  C7  UNL     1      23.067   3.266  49.206  1.00  0.00     0.013 A 
HETATM   18 BR1  UNL     1      24.361   4.676  49.376  1.00  0.00    -0.051 Br
HETATM   19  C8  UNL     1      22.313   2.898  50.304  1.00  0.00     0.048 A 
ENDBRANCH  11  13
ENDBRANCH   3  11
BRANCH   1  20
HETATM   20  N1  UNL     1      17.823  -1.429  53.863  1.00  0.00    -0.231 N 
HETATM   21  H1  UNL     1      17.576  -2.382  54.264  1.00  0.00     0.174 HD
HETATM   22  H2  UNL     1      16.917  -0.918  53.961  1.00  0.00     0.174 HD
ENDBRANCH   1  20
BRANCH   6  23
HETATM   23  C12 UNL     1      24.972  -0.809  54.351  1.00  0.00     0.097 C 
BRANCH  23  24
HETATM   24  C13 UNL     1      26.008   0.157  53.987  1.00  0.00    -0.031 A 
HETATM   25  C14 UNL     1      26.142   1.497  54.282  1.00  0.00     0.009 A 
HETATM   26  C15 UNL     1      27.204   2.248  53.844  1.00  0.00     0.001 A 
HETATM   27  C16 UNL     1      28.208   1.674  53.072  1.00  0.00     0.002 A 
HETATM   28  C17 UNL     1      28.089   0.331  52.766  1.00  0.00     0.024 A 
HETATM   29  C18 UNL     1      27.019  -0.421  53.208  1.00  0.00     0.040 A 
HETATM   30 CL1  UNL     1      27.069  -2.108  52.702  1.00  0.00    -0.084 Cl
ENDBRANCH  23  24
ENDBRANCH   6  23
TORSDOF 5
ENDMDL
MODEL 8
REMARK VINA RESULT:      -8.5      3.326      5.470
REMARK  5 active torsions:
REMARK  status: ('A' for Active; 'I' for Inactive)
REMARK    1  A    between atoms: N1_1  and  C1_2 
REMARK    2  A    between atoms: C2_4  and  N3_5 
REMARK    3  A    between atoms: N3_5  and  C3_6 
REMARK    4  A    between atoms: C11_15  and  C12_16 
REMARK    5  A    between atoms: C12_16  and  C13_17 
ROOT
HETATM    1  C1  UNL     1      24.156   4.492  49.479  1.00  0.00     0.719 C 
HETATM    2  N2  UNL     1      23.145   3.683  49.497  1.00  0.00    -0.079 NA
HETATM    3  C2  UNL     1      23.057   2.639  50.536  1.00  0.00     0.240 C 
HETATM    4  C9  UNL     1      24.401   2.209  50.888  1.00  0.00     0.125 C 
HETATM    5  C10 UNL     1      24.593   1.293  52.024  1.00  0.00     0.015 C 
HETATM    6  C11 UNL     1      25.741   1.541  52.626  1.00  0.00     0.012 C 
HETATM    7  N4  UNL     1      26.264   2.760  52.088  1.00  0.00    -0.347 N 
HETATM    8  C19 UNL     1      25.362   3.299  51.104  1.00  0.00     0.135 C 
HETATM    9  N5  UNL     1      25.284   4.303  50.310  1.00  0.00    -0.049 NA
HETATM   10  H17 UNL     1      27.129   3.347  52.232  1.00  0.00     0.167 HD
ENDROOT
BRANCH   3  11
HETATM   11  N3  UNL     1      22.242   1.577  49.951  1.00  0.00    -0.366 N 
HETATM   12  H4  UNL     1      22.495   1.254  49.015  1.00  0.00     0.162 HD
BRANCH  11  13
HETATM   13  C3  UNL     1      21.145   1.019  50.661  1.00  0.00     0.030 A 
HETATM   14  C4  UNL     1      19.845   1.173  50.226  1.00  0.00     0.029 A 
HETATM   15  C5  UNL     1      18.806   0.610  50.950  1.00  0.00     0.004 A 
HETATM   16  C6  UNL     1      19.065  -0.102  52.102  1.00  0.00     0.019 A 
HETATM   17  C7  UNL     1      20.368  -0.264  52.550  1.00  0.00     0.013 A 
HETATM   18 BR1  UNL     1      20.788  -1.244  54.148  1.00  0.00    -0.051 Br
HETATM   19  C8  UNL     1      21.389   0.305  51.813  1.00  0.00     0.048 A 
ENDBRANCH  11  13
ENDBRANCH   3  11
BRANCH   1  20
HETATM   20  N1  UNL     1      24.462   5.591  48.587  1.00  0.00    -0.231 N 
HETATM   21  H1  UNL     1      24.058   6.573  48.546  1.00  0.00     0.174 HD
HETATM   22  H2  UNL     1      25.154   5.616  47.804  1.00  0.00     0.174 HD
ENDBRANCH   1  20
BRANCH   6  23
HETATM   23  C12 UNL     1      26.533   1.033  53.751  1.00  0.00     0.097 C 
BRANCH  23  24
HETATM   24  C13 UNL     1      27.337  -0.159  53.486  1.00  0.00    -0.031 A 
HETATM   25  C14 UNL     1      26.990  -1.391  52.973  1.00  0.00     0.009 A 
HETATM   26  C15 UNL     1      27.902  -2.400  52.792  1.00  0.00     0.001 A 
HETATM   27  C16 UNL     1      29.239  -2.215  53.126  1.00  0.00     0.002 A 
HETATM   28  C17 UNL     1      29.605  -0.987  53.642  1.00  0.00     0.024 A 
HETATM   29  C18 UNL     1      28.684   0.027  53.823  1.00  0.00     0.040 A 
HETATM   30 CL1  UNL     1      29.367   1.506  54.493  1.00  0.00    -0.084 Cl
ENDBRANCH  23  24
ENDBRANCH   6  23
TORSDOF 5
ENDMDL
MODEL 9
REMARK VINA RESULT:      -8.3      3.252      6.123
REMARK  5 active torsions:
REMARK  status: ('A' for Active; 'I' for Inactive)
REMARK    1  A    between atoms: N1_1  and  C1_2 
REMARK    2  A    between atoms: C2_4  and  N3_5 
REMARK    3  A    between atoms: N3_5  and  C3_6 
REMARK    4  A    between atoms: C11_15  and  C12_16 
REMARK    5  A    between atoms: C12_16  and  C13_17 
ROOT
HETATM    1  C1  UNL     1      26.958   0.150  54.383  1.00  0.00     0.719 C 
HETATM    2  N2  UNL     1      26.844   0.874  53.316  1.00  0.00    -0.079 NA
HETATM    3  C2  UNL     1      25.506   1.170  52.769  1.00  0.00     0.240 C 
HETATM    4  C9  UNL     1      24.625   0.045  53.042  1.00  0.00     0.125 C 
HETATM    5  C10 UNL     1      23.189   0.163  52.745  1.00  0.00     0.015 C 
HETATM    6  C11 UNL     1      22.480  -0.538  53.610  1.00  0.00     0.012 C 
HETATM    7  N4  UNL     1      23.362  -0.966  54.653  1.00  0.00    -0.347 N 
HETATM    8  C19 UNL     1      24.694  -0.476  54.413  1.00  0.00     0.135 C 
HETATM    9  N5  UNL     1      25.857  -0.530  54.952  1.00  0.00    -0.049 NA
HETATM   10  H17 UNL     1      23.278  -1.540  55.534  1.00  0.00     0.167 HD
ENDROOT
BRANCH   3  11
HETATM   11  N3  UNL     1      25.715   1.411  51.343  1.00  0.00    -0.366 N 
HETATM   12  H4  UNL     1      25.945   0.604  50.760  1.00  0.00     0.162 HD
BRANCH  11  13
HETATM   13  C3  UNL     1      25.599   2.717  50.795  1.00  0.00     0.030 A 
HETATM   14  C4  UNL     1      26.518   3.210  49.892  1.00  0.00     0.029 A 
HETATM   15  C5  UNL     1      26.364   4.490  49.383  1.00  0.00     0.004 A 
HETATM   16  C6  UNL     1      25.299   5.272  49.775  1.00  0.00     0.019 A 
HETATM   17  C7  UNL     1      24.368   4.788  50.683  1.00  0.00     0.013 A 
HETATM   18 BR1  UNL     1      22.866   5.835  51.266  1.00  0.00    -0.051 Br
HETATM   19  C8  UNL     1      24.539   3.510  51.178  1.00  0.00     0.048 A 
ENDBRANCH  11  13
ENDBRANCH   3  11
BRANCH   1  20
HETATM   20  N1  UNL     1      28.138  -0.265  55.114  1.00  0.00    -0.231 N 
HETATM   21  H1  UNL     1      28.370  -1.197  55.569  1.00  0.00     0.174 HD
HETATM   22  H2  UNL     1      28.995   0.293  55.330  1.00  0.00     0.174 HD
ENDBRANCH   1  20
BRANCH   6  23
HETATM   23  C12 UNL     1      21.077  -0.864  53.885  1.00  0.00     0.097 C 
BRANCH  23  24
HETATM   24  C13 UNL     1      20.084  -0.184  53.056  1.00  0.00    -0.031 A 
HETATM   25  C14 UNL     1      20.156   0.987  52.332  1.00  0.00     0.009 A 
HETATM   26  C15 UNL     1      19.099   1.471  51.600  1.00  0.00     0.001 A 
HETATM   27  C16 UNL     1      17.891   0.783  51.560  1.00  0.00     0.002 A 
HETATM   28  C17 UNL     1      17.801  -0.393  52.280  1.00  0.00     0.024 A 
HETATM   29  C18 UNL     1      18.866  -0.877  53.015  1.00  0.00     0.040 A 
HETATM   30 CL1  UNL     1      18.532  -2.389  53.854  1.00  0.00    -0.084 Cl
ENDBRANCH  23  24
ENDBRANCH   6  23
TORSDOF 5
ENDMDL
