MODEL 1
REMARK VINA RESULT:      -6.4      0.000      0.000
REMARK  6 active torsions:
REMARK  status: ('A' for Active; 'I' for Inactive)
REMARK    1  A    between atoms: N1_2  and  C2_3 
REMARK    2  A    between atoms: C2_3  and  C3_4 
REMARK    3  A    between atoms: C7_9  and  N3_10 
REMARK    4  A    between atoms: N3_10  and  C8_11 
REMARK    5  A    between atoms: C9_12  and  C10_13 
REMARK    6  A    between atoms: C10_13  and  N4_14 
ROOT
HETATM    1  N3  UNL     1      25.426  -0.115  53.056  1.00  0.00    -0.365 N 
HETATM    2  H10 UNL     1      25.790  -0.847  52.390  1.00  0.00     0.165 HD
ENDROOT
BRANCH   1   3
HETATM    3  C7  UNL     1      26.634   0.571  53.341  1.00  0.00     0.057 A 
HETATM    4  C3  UNL     1      27.269   1.531  52.595  1.00  0.00    -0.001 A 
HETATM    5  C4  UNL     1      28.453   2.055  53.110  1.00  0.00     0.030 A 
HETATM    6  C5  UNL     1      28.954   1.616  54.316  1.00  0.00     0.117 A 
HETATM    7  N2  UNL     1      28.312   0.661  55.047  1.00  0.00    -0.271 NA
HETATM    8  C6  UNL     1      27.147   0.131  54.564  1.00  0.00     0.146 A 
BRANCH   4   9
HETATM    9  C2  UNL     1      26.604   1.883  51.324  1.00  0.00     0.310 C 
BRANCH   9  10
HETATM   10  N1  UNL     1      26.779   3.306  51.096  1.00  0.00     0.083 N 
HETATM   11  C1  UNL     1      26.307   3.688  49.773  1.00  0.00     0.307 C 
HETATM   12  H4  UNL     1      27.753   3.588  51.273  1.00  0.00     0.315 HD
ENDBRANCH   9  10
ENDBRANCH   4   9
ENDBRANCH   1   3
BRANCH   1  13
HETATM   13  C8  UNL     1      24.038  -0.105  53.365  1.00  0.00     0.086 C 
HETATM   14  C9  UNL     1      23.428   0.936  52.763  1.00  0.00     0.010 C 
BRANCH  14  15
HETATM   15  C10 UNL     1      22.054   1.421  52.732  1.00  0.00     0.154 C 
BRANCH  15  16
HETATM   16  N4  UNL     1      22.021   2.813  52.344  1.00  0.00    -0.345 N 
HETATM   17  C11 UNL     1      23.288   3.555  52.254  1.00  0.00     0.152 C 
HETATM   18  C12 UNL     1      22.847   5.025  52.236  1.00  0.00     0.188 C 
HETATM   19  O1  UNL     1      22.147   5.219  51.070  1.00  0.00    -0.380 OA
HETATM   20  C13 UNL     1      20.898   4.650  51.037  1.00  0.00     0.270 C 
HETATM   21  C14 UNL     1      20.811   3.532  52.041  1.00  0.00     0.243 C 
HETATM   22  O2  UNL     1      19.777   3.140  52.666  1.00  0.00    -0.271 OA
ENDBRANCH  15  16
ENDBRANCH  14  15
ENDBRANCH   1  13
TORSDOF 6
ENDMDL
MODEL 2
REMARK VINA RESULT:      -6.4      3.454      6.212
REMARK  6 active torsions:
REMARK  status: ('A' for Active; 'I' for Inactive)
REMARK    1  A    between atoms: N1_2  and  C2_3 
REMARK    2  A    between atoms: C2_3  and  C3_4 
REMARK    3  A    between atoms: C7_9  and  N3_10 
REMARK    4  A    between atoms: N3_10  and  C8_11 
REMARK    5  A    between atoms: C9_12  and  C10_13 
REMARK    6  A    between atoms: C10_13  and  N4_14 
ROOT
HETATM    1  N3  UNL     1      22.628   1.380  51.891  1.00  0.00    -0.365 N 
HETATM    2  H10 UNL     1      22.153   2.227  52.303  1.00  0.00     0.165 HD
ENDROOT
BRANCH   1   3
HETATM    3  C7  UNL     1      22.571   1.720  50.515  1.00  0.00     0.057 A 
HETATM    4  C3  UNL     1      23.269   2.690  49.843  1.00  0.00    -0.001 A 
HETATM    5  C4  UNL     1      23.028   2.814  48.476  1.00  0.00     0.030 A 
HETATM    6  C5  UNL     1      22.123   1.992  47.841  1.00  0.00     0.117 A 
HETATM    7  N2  UNL     1      21.435   1.032  48.522  1.00  0.00    -0.271 NA
HETATM    8  C6  UNL     1      21.654   0.889  49.865  1.00  0.00     0.146 A 
BRANCH   4   9
HETATM    9  C2  UNL     1      24.194   3.489  50.673  1.00  0.00     0.310 C 
BRANCH   9  10
HETATM   10  N1  UNL     1      25.522   2.914  50.558  1.00  0.00     0.083 N 
HETATM   11  C1  UNL     1      26.378   3.736  49.714  1.00  0.00     0.307 C 
HETATM   12  H4  UNL     1      25.471   1.934  50.246  1.00  0.00     0.315 HD
ENDBRANCH   9  10
ENDBRANCH   4   9
ENDBRANCH   1   3
BRANCH   1  13
HETATM   13  C8  UNL     1      23.086   0.360  52.770  1.00  0.00     0.086 C 
HETATM   14  C9  UNL     1      24.368   0.581  53.122  1.00  0.00     0.010 C 
BRANCH  14  15
HETATM   15  C10 UNL     1      25.317  -0.124  53.976  1.00  0.00     0.154 C 
BRANCH  15  16
HETATM   16  N4  UNL     1      26.601   0.540  53.956  1.00  0.00    -0.345 N 
HETATM   17  C11 UNL     1      26.643   2.000  53.772  1.00  0.00     0.152 C 
HETATM   18  C12 UNL     1      28.103   2.276  53.395  1.00  0.00     0.188 C 
HETATM   19  O1  UNL     1      28.869   1.954  54.490  1.00  0.00    -0.380 OA
HETATM   20  C13 UNL     1      28.993   0.610  54.740  1.00  0.00     0.270 C 
HETATM   21  C14 UNL     1      27.859  -0.143  54.099  1.00  0.00     0.243 C 
HETATM   22  O2  UNL     1      27.881  -1.335  53.659  1.00  0.00    -0.271 OA
ENDBRANCH  15  16
ENDBRANCH  14  15
ENDBRANCH   1  13
TORSDOF 6
ENDMDL
MODEL 3
REMARK VINA RESULT:      -6.2      3.559      7.040
REMARK  6 active torsions:
REMARK  status: ('A' for Active; 'I' for Inactive)
REMARK    1  A    between atoms: N1_2  and  C2_3 
REMARK    2  A    between atoms: C2_3  and  C3_4 
REMARK    3  A    between atoms: C7_9  and  N3_10 
REMARK    4  A    between atoms: N3_10  and  C8_11 
REMARK    5  A    between atoms: C9_12  and  C10_13 
REMARK    6  A    between atoms: C10_13  and  N4_14 
ROOT
HETATM    1  N3  UNL     1      23.682   2.596  52.653  1.00  0.00    -0.365 N 
HETATM    2  H10 UNL     1      23.094   3.458  52.806  1.00  0.00     0.165 HD
ENDROOT
BRANCH   1   3
HETATM    3  C7  UNL     1      22.838   1.888  51.758  1.00  0.00     0.057 A 
HETATM    4  C3  UNL     1      21.952   0.879  52.034  1.00  0.00    -0.001 A 
HETATM    5  C4  UNL     1      21.233   0.355  50.962  1.00  0.00     0.030 A 
HETATM    6  C5  UNL     1      21.417   0.836  49.685  1.00  0.00     0.117 A 
HETATM    7  N2  UNL     1      22.302   1.840  49.424  1.00  0.00    -0.271 NA
HETATM    8  C6  UNL     1      23.019   2.373  50.460  1.00  0.00     0.146 A 
BRANCH   4   9
HETATM    9  C2  UNL     1      21.880   0.475  53.453  1.00  0.00     0.310 C 
BRANCH   9  10
HETATM   10  N1  UNL     1      22.451  -0.854  53.579  1.00  0.00     0.083 N 
HETATM   11  C1  UNL     1      21.610  -1.711  54.401  1.00  0.00     0.307 C 
HETATM   12  H4  UNL     1      23.423  -0.804  53.913  1.00  0.00     0.315 HD
ENDBRANCH   9  10
ENDBRANCH   4   9
ENDBRANCH   1   3
BRANCH   1  13
HETATM   13  C8  UNL     1      24.934   2.497  53.317  1.00  0.00     0.086 C 
HETATM   14  C9  UNL     1      25.917   2.228  52.435  1.00  0.00     0.010 C 
BRANCH  14  15
HETATM   15  C10 UNL     1      27.356   2.026  52.556  1.00  0.00     0.154 C 
BRANCH  15  16
HETATM   16  N4  UNL     1      27.642   0.660  52.932  1.00  0.00    -0.345 N 
HETATM   17  C11 UNL     1      26.945  -0.430  52.231  1.00  0.00     0.152 C 
HETATM   18  C12 UNL     1      27.168  -1.646  53.138  1.00  0.00     0.188 C 
HETATM   19  O1  UNL     1      28.516  -1.914  53.127  1.00  0.00    -0.380 OA
HETATM   20  C13 UNL     1      29.294  -1.020  53.820  1.00  0.00     0.270 C 
HETATM   21  C14 UNL     1      28.571   0.291  53.967  1.00  0.00     0.243 C 
HETATM   22  O2  UNL     1      28.686   1.128  54.916  1.00  0.00    -0.271 OA
ENDBRANCH  15  16
ENDBRANCH  14  15
ENDBRANCH   1  13
TORSDOF 6
ENDMDL
MODEL 4
REMARK VINA RESULT:      -6.1      1.724      2.259
REMARK  6 active torsions:
REMARK  status: ('A' for Active; 'I' for Inactive)
REMARK    1  A    between atoms: N1_2  and  C2_3 
REMARK    2  A    between atoms: C2_3  and  C3_4 
REMARK    3  A    between atoms: C7_9  and  N3_10 
REMARK    4  A    between atoms: N3_10  and  C8_11 
REMARK    5  A    between atoms: C9_12  and  C10_13 
REMARK    6  A    between atoms: C10_13  and  N4_14 
ROOT
HETATM    1  N3  UNL     1      25.733  -0.291  53.592  1.00  0.00    -0.365 N 
HETATM    2  H10 UNL     1      25.948  -0.779  52.682  1.00  0.00     0.165 HD
ENDROOT
BRANCH   1   3
HETATM    3  C7  UNL     1      26.852   0.578  53.666  1.00  0.00     0.057 A 
HETATM    4  C3  UNL     1      27.140   1.671  52.890  1.00  0.00    -0.001 A 
HETATM    5  C4  UNL     1      28.314   2.363  53.180  1.00  0.00     0.030 A 
HETATM    6  C5  UNL     1      29.141   1.955  54.203  1.00  0.00     0.117 A 
HETATM    7  N2  UNL     1      28.842   0.866  54.967  1.00  0.00    -0.271 NA
HETATM    8  C6  UNL     1      27.694   0.169  54.704  1.00  0.00     0.146 A 
BRANCH   4   9
HETATM    9  C2  UNL     1      26.154   1.969  51.831  1.00  0.00     0.310 C 
BRANCH   9  10
HETATM   10  N1  UNL     1      26.395   3.317  51.350  1.00  0.00     0.083 N 
HETATM   11  C1  UNL     1      26.564   3.336  49.904  1.00  0.00     0.307 C 
HETATM   12  H4  UNL     1      27.182   3.750  51.853  1.00  0.00     0.315 HD
ENDBRANCH   9  10
ENDBRANCH   4   9
ENDBRANCH   1   3
BRANCH   1  13
HETATM   13  C8  UNL     1      24.550  -0.649  54.295  1.00  0.00     0.086 C 
HETATM   14  C9  UNL     1      23.481  -0.599  53.476  1.00  0.00     0.010 C 
BRANCH  14  15
HETATM   15  C10 UNL     1      22.057  -0.858  53.657  1.00  0.00     0.154 C 
BRANCH  15  16
HETATM   16  N4  UNL     1      21.273   0.155  52.988  1.00  0.00    -0.345 N 
HETATM   17  C11 UNL     1      21.912   1.435  52.644  1.00  0.00     0.152 C 
HETATM   18  C12 UNL     1      20.727   2.365  52.351  1.00  0.00     0.188 C 
HETATM   19  O1  UNL     1      20.101   1.877  51.229  1.00  0.00    -0.380 OA
HETATM   20  C13 UNL     1      19.387   0.719  51.417  1.00  0.00     0.270 C 
HETATM   21  C14 UNL     1      19.887  -0.006  52.637  1.00  0.00     0.243 C 
HETATM   22  O2  UNL     1      19.216  -0.759  53.410  1.00  0.00    -0.271 OA
ENDBRANCH  15  16
ENDBRANCH  14  15
ENDBRANCH   1  13
TORSDOF 6
ENDMDL
MODEL 5
REMARK VINA RESULT:      -6.1      3.091      6.266
REMARK  6 active torsions:
REMARK  status: ('A' for Active; 'I' for Inactive)
REMARK    1  A    between atoms: N1_2  and  C2_3 
REMARK    2  A    between atoms: C2_3  and  C3_4 
REMARK    3  A    between atoms: C7_9  and  N3_10 
REMARK    4  A    between atoms: N3_10  and  C8_11 
REMARK    5  A    between atoms: C9_12  and  C10_13 
REMARK    6  A    between atoms: C10_13  and  N4_14 
ROOT
HETATM    1  N3  UNL     1      22.458   0.576  52.563  1.00  0.00    -0.365 N 
HETATM    2  H10 UNL     1      22.315   0.073  51.647  1.00  0.00     0.165 HD
ENDROOT
BRANCH   1   3
HETATM    3  C7  UNL     1      21.840   1.815  52.253  1.00  0.00     0.057 A 
HETATM    4  C3  UNL     1      22.395   2.927  51.675  1.00  0.00    -0.001 A 
HETATM    5  C4  UNL     1      21.557   4.022  51.472  1.00  0.00     0.030 A 
HETATM    6  C5  UNL     1      20.231   3.975  51.842  1.00  0.00     0.117 A 
HETATM    7  N2  UNL     1      19.692   2.861  52.416  1.00  0.00    -0.271 NA
HETATM    8  C6  UNL     1      20.494   1.773  52.626  1.00  0.00     0.146 A 
BRANCH   4   9
HETATM    9  C2  UNL     1      23.830   2.816  51.345  1.00  0.00     0.310 C 
BRANCH   9  10
HETATM   10  N1  UNL     1      23.980   2.955  49.908  1.00  0.00     0.083 N 
HETATM   11  C1  UNL     1      25.263   3.552  49.569  1.00  0.00     0.307 C 
HETATM   12  H4  UNL     1      23.181   3.462  49.504  1.00  0.00     0.315 HD
ENDBRANCH   9  10
ENDBRANCH   4   9
ENDBRANCH   1   3
BRANCH   1  13
HETATM   13  C8  UNL     1      23.127  -0.103  53.617  1.00  0.00     0.086 C 
HETATM   14  C9  UNL     1      24.463  -0.028  53.454  1.00  0.00     0.010 C 
BRANCH  14  15
HETATM   15  C10 UNL     1      25.603  -0.531  54.212  1.00  0.00     0.154 C 
BRANCH  15  16
HETATM   16  N4  UNL     1      26.742   0.343  54.047  1.00  0.00    -0.345 N 
HETATM   17  C11 UNL     1      26.508   1.764  53.742  1.00  0.00     0.152 C 
HETATM   18  C12 UNL     1      27.871   2.257  53.240  1.00  0.00     0.188 C 
HETATM   19  O1  UNL     1      28.742   2.178  54.301  1.00  0.00    -0.380 OA
HETATM   20  C13 UNL     1      29.121   0.906  54.651  1.00  0.00     0.270 C 
HETATM   21  C14 UNL     1      28.109  -0.092  54.155  1.00  0.00     0.243 C 
HETATM   22  O2  UNL     1      28.323  -1.297  53.815  1.00  0.00    -0.271 OA
ENDBRANCH  15  16
ENDBRANCH  14  15
ENDBRANCH   1  13
TORSDOF 6
ENDMDL
MODEL 6
REMARK VINA RESULT:      -6.0      1.721      2.363
REMARK  6 active torsions:
REMARK  status: ('A' for Active; 'I' for Inactive)
REMARK    1  A    between atoms: N1_2  and  C2_3 
REMARK    2  A    between atoms: C2_3  and  C3_4 
REMARK    3  A    between atoms: C7_9  and  N3_10 
REMARK    4  A    between atoms: N3_10  and  C8_11 
REMARK    5  A    between atoms: C9_12  and  C10_13 
REMARK    6  A    between atoms: C10_13  and  N4_14 
ROOT
HETATM    1  N3  UNL     1      24.471   0.461  52.895  1.00  0.00    -0.365 N 
HETATM    2  H10 UNL     1      24.433  -0.483  52.426  1.00  0.00     0.165 HD
ENDROOT
BRANCH   1   3
HETATM    3  C7  UNL     1      25.831   0.473  53.297  1.00  0.00     0.057 A 
HETATM    4  C3  UNL     1      26.915   0.982  52.631  1.00  0.00    -0.001 A 
HETATM    5  C4  UNL     1      28.156   0.870  53.256  1.00  0.00     0.030 A 
HETATM    6  C5  UNL     1      28.272   0.267  54.490  1.00  0.00     0.117 A 
HETATM    7  N2  UNL     1      27.185  -0.236  55.141  1.00  0.00    -0.271 NA
HETATM    8  C6  UNL     1      25.956  -0.137  54.548  1.00  0.00     0.146 A 
BRANCH   4   9
HETATM    9  C2  UNL     1      26.620   1.589  51.316  1.00  0.00     0.310 C 
BRANCH   9  10
HETATM   10  N1  UNL     1      26.765   3.028  51.435  1.00  0.00     0.083 N 
HETATM   11  C1  UNL     1      26.025   3.718  50.388  1.00  0.00     0.307 C 
HETATM   12  H4  UNL     1      27.759   3.294  51.467  1.00  0.00     0.315 HD
ENDBRANCH   9  10
ENDBRANCH   4   9
ENDBRANCH   1   3
BRANCH   1  13
HETATM   13  C8  UNL     1      23.290   1.252  52.931  1.00  0.00     0.086 C 
HETATM   14  C9  UNL     1      22.241   0.515  53.347  1.00  0.00     0.010 C 
BRANCH  14  15
HETATM   15  C10 UNL     1      20.828   0.803  53.565  1.00  0.00     0.154 C 
BRANCH  15  16
HETATM   16  N4  UNL     1      20.210   1.245  52.335  1.00  0.00    -0.345 N 
HETATM   17  C11 UNL     1      20.080   0.290  51.223  1.00  0.00     0.152 C 
HETATM   18  C12 UNL     1      19.786   1.183  50.010  1.00  0.00     0.188 C 
HETATM   19  O1  UNL     1      18.561   1.766  50.228  1.00  0.00    -0.380 OA
HETATM   20  C13 UNL     1      18.543   2.746  51.189  1.00  0.00     0.270 C 
HETATM   21  C14 UNL     1      19.713   2.579  52.121  1.00  0.00     0.243 C 
HETATM   22  O2  UNL     1      20.326   3.493  52.755  1.00  0.00    -0.271 OA
ENDBRANCH  15  16
ENDBRANCH  14  15
ENDBRANCH   1  13
TORSDOF 6
ENDMDL
MODEL 7
REMARK VINA RESULT:      -5.9      3.518      7.109
REMARK  6 active torsions:
REMARK  status: ('A' for Active; 'I' for Inactive)
REMARK    1  A    between atoms: N1_2  and  C2_3 
REMARK    2  A    between atoms: C2_3  and  C3_4 
REMARK    3  A    between atoms: C7_9  and  N3_10 
REMARK    4  A    between atoms: N3_10  and  C8_11 
REMARK    5  A    between atoms: C9_12  and  C10_13 
REMARK    6  A    between atoms: C10_13  and  N4_14 
ROOT
HETATM    1  N3  UNL     1      22.605  -0.478  52.836  1.00  0.00    -0.365 N 
HETATM    2  H10 UNL     1      22.635  -1.282  52.155  1.00  0.00     0.165 HD
ENDROOT
BRANCH   1   3
HETATM    3  C7  UNL     1      21.801   0.429  52.098  1.00  0.00     0.057 A 
HETATM    4  C3  UNL     1      20.443   0.604  52.147  1.00  0.00    -0.001 A 
HETATM    5  C4  UNL     1      19.897   1.578  51.313  1.00  0.00     0.030 A 
HETATM    6  C5  UNL     1      20.701   2.324  50.479  1.00  0.00     0.117 A 
HETATM    7  N2  UNL     1      22.051   2.140  50.440  1.00  0.00    -0.271 NA
HETATM    8  C6  UNL     1      22.611   1.190  51.250  1.00  0.00     0.146 A 
BRANCH   4   9
HETATM    9  C2  UNL     1      19.727  -0.281  53.089  1.00  0.00     0.310 C 
BRANCH   9  10
HETATM   10  N1  UNL     1      18.478  -0.688  52.473  1.00  0.00     0.083 N 
HETATM   11  C1  UNL     1      17.709  -1.548  53.362  1.00  0.00     0.307 C 
HETATM   12  H4  UNL     1      18.646  -1.112  51.550  1.00  0.00     0.315 HD
ENDBRANCH   9  10
ENDBRANCH   4   9
ENDBRANCH   1   3
BRANCH   1  13
HETATM   13  C8  UNL     1      23.293  -0.606  54.073  1.00  0.00     0.086 C 
HETATM   14  C9  UNL     1      24.619  -0.441  53.895  1.00  0.00     0.010 C 
BRANCH  14  15
HETATM   15  C10 UNL     1      25.769  -0.468  54.791  1.00  0.00     0.154 C 
BRANCH  15  16
HETATM   16  N4  UNL     1      26.767   0.483  54.356  1.00  0.00    -0.345 N 
HETATM   17  C11 UNL     1      26.326   1.785  53.832  1.00  0.00     0.152 C 
HETATM   18  C12 UNL     1      27.568   2.326  53.112  1.00  0.00     0.188 C 
HETATM   19  O1  UNL     1      28.526   2.546  54.073  1.00  0.00    -0.380 OA
HETATM   20  C13 UNL     1      29.095   1.413  54.600  1.00  0.00     0.270 C 
HETATM   21  C14 UNL     1      28.184   0.232  54.396  1.00  0.00     0.243 C 
HETATM   22  O2  UNL     1      28.523  -0.983  54.252  1.00  0.00    -0.271 OA
ENDBRANCH  15  16
ENDBRANCH  14  15
ENDBRANCH   1  13
TORSDOF 6
ENDMDL
MODEL 8
REMARK VINA RESULT:      -5.9      1.813      3.306
REMARK  6 active torsions:
REMARK  status: ('A' for Active; 'I' for Inactive)
REMARK    1  A    between atoms: N1_2  and  C2_3 
REMARK    2  A    between atoms: C2_3  and  C3_4 
REMARK    3  A    between atoms: C7_9  and  N3_10 
REMARK    4  A    between atoms: N3_10  and  C8_11 
REMARK    5  A    between atoms: C9_12  and  C10_13 
REMARK    6  A    between atoms: C10_13  and  N4_14 
ROOT
HETATM    1  N3  UNL     1      25.843   2.520  53.845  1.00  0.00    -0.365 N 
HETATM    2  H10 UNL     1      26.030   3.176  54.649  1.00  0.00     0.165 HD
ENDROOT
BRANCH   1   3
HETATM    3  C7  UNL     1      26.991   1.692  53.942  1.00  0.00     0.057 A 
HETATM    4  C3  UNL     1      27.147   0.525  54.644  1.00  0.00    -0.001 A 
HETATM    5  C4  UNL     1      28.389  -0.103  54.564  1.00  0.00     0.030 A 
HETATM    6  C5  UNL     1      29.408   0.440  53.811  1.00  0.00     0.117 A 
HETATM    7  N2  UNL     1      29.238   1.602  53.118  1.00  0.00    -0.271 NA
HETATM    8  C6  UNL     1      28.028   2.237  53.179  1.00  0.00     0.146 A 
BRANCH   4   9
HETATM    9  C2  UNL     1      25.961   0.084  55.405  1.00  0.00     0.310 C 
BRANCH   9  10
HETATM   10  N1  UNL     1      25.330  -1.003  54.680  1.00  0.00     0.083 N 
HETATM   11  C1  UNL     1      24.019  -1.312  55.231  1.00  0.00     0.307 C 
HETATM   12  H4  UNL     1      25.952  -1.823  54.636  1.00  0.00     0.315 HD
ENDBRANCH   9  10
ENDBRANCH   4   9
ENDBRANCH   1   3
BRANCH   1  13
HETATM   13  C8  UNL     1      24.660   2.700  53.078  1.00  0.00     0.086 C 
HETATM   14  C9  UNL     1      24.452   1.638  52.275  1.00  0.00     0.010 C 
BRANCH  14  15
HETATM   15  C10 UNL     1      23.422   1.294  51.302  1.00  0.00     0.154 C 
BRANCH  15  16
HETATM   16  N4  UNL     1      22.174   1.938  51.642  1.00  0.00    -0.345 N 
HETATM   17  C11 UNL     1      21.308   1.317  52.656  1.00  0.00     0.152 C 
HETATM   18  C12 UNL     1      19.955   2.012  52.453  1.00  0.00     0.188 C 
HETATM   19  O1  UNL     1      20.129   3.335  52.781  1.00  0.00    -0.380 OA
HETATM   20  C13 UNL     1      20.854   4.070  51.877  1.00  0.00     0.270 C 
HETATM   21  C14 UNL     1      21.713   3.162  51.040  1.00  0.00     0.243 C 
HETATM   22  O2  UNL     1      22.087   3.350  49.840  1.00  0.00    -0.271 OA
ENDBRANCH  15  16
ENDBRANCH  14  15
ENDBRANCH   1  13
TORSDOF 6
ENDMDL
MODEL 9
REMARK VINA RESULT:      -5.9      2.705      4.250
REMARK  6 active torsions:
REMARK  status: ('A' for Active; 'I' for Inactive)
REMARK    1  A    between atoms: N1_2  and  C2_3 
REMARK    2  A    between atoms: C2_3  and  C3_4 
REMARK    3  A    between atoms: C7_9  and  N3_10 
REMARK    4  A    between atoms: N3_10  and  C8_11 
REMARK    5  A    between atoms: C9_12  and  C10_13 
REMARK    6  A    between atoms: C10_13  and  N4_14 
ROOT
HETATM    1  N3  UNL     1      23.844   0.033  53.525  1.00  0.00    -0.365 N 
HETATM    2  H10 UNL     1      24.055   0.432  54.478  1.00  0.00     0.165 HD
ENDROOT
BRANCH   1   3
HETATM    3  C7  UNL     1      24.809   0.733  52.755  1.00  0.00     0.057 A 
HETATM    4  C3  UNL     1      26.153   0.491  52.643  1.00  0.00    -0.001 A 
HETATM    5  C4  UNL     1      26.882   1.333  51.805  1.00  0.00     0.030 A 
HETATM    6  C5  UNL     1      26.265   2.361  51.127  1.00  0.00     0.117 A 
HETATM    7  N2  UNL     1      24.926   2.591  51.248  1.00  0.00    -0.271 NA
HETATM    8  C6  UNL     1      24.188   1.778  52.064  1.00  0.00     0.146 A 
BRANCH   4   9
HETATM    9  C2  UNL     1      26.658  -0.645  53.442  1.00  0.00     0.310 C 
BRANCH   9  10
HETATM   10  N1  UNL     1      27.059  -0.144  54.744  1.00  0.00     0.083 N 
HETATM   11  C1  UNL     1      28.501   0.045  54.812  1.00  0.00     0.307 C 
HETATM   12  H4  UNL     1      26.697  -0.748  55.495  1.00  0.00     0.315 HD
ENDBRANCH   9  10
ENDBRANCH   4   9
ENDBRANCH   1   3
BRANCH   1  13
HETATM   13  C8  UNL     1      22.807  -0.932  53.404  1.00  0.00     0.086 C 
HETATM   14  C9  UNL     1      21.620  -0.396  53.750  1.00  0.00     0.010 C 
BRANCH  14  15
HETATM   15  C10 UNL     1      20.258  -0.913  53.813  1.00  0.00     0.154 C 
BRANCH  15  16
HETATM   16  N4  UNL     1      19.414  -0.224  52.864  1.00  0.00    -0.345 N 
HETATM   17  C11 UNL     1      19.967   0.919  52.120  1.00  0.00     0.152 C 
HETATM   18  C12 UNL     1      18.726   1.622  51.558  1.00  0.00     0.188 C 
HETATM   19  O1  UNL     1      18.147   0.758  50.660  1.00  0.00    -0.380 OA
HETATM   20  C13 UNL     1      17.512  -0.324  51.217  1.00  0.00     0.270 C 
HETATM   21  C14 UNL     1      18.046  -0.584  52.599  1.00  0.00     0.243 C 
HETATM   22  O2  UNL     1      17.420  -1.092  53.581  1.00  0.00    -0.271 OA
ENDBRANCH  15  16
ENDBRANCH  14  15
ENDBRANCH   1  13
TORSDOF 6
ENDMDL
