MODEL 1
REMARK VINA RESULT:      -8.0      0.000      0.000
REMARK  8 active torsions:
REMARK  status: ('A' for Active; 'I' for Inactive)
REMARK    1  A    between atoms: C3_3  and  C13_16 
REMARK    2  A    between atoms: C4_4  and  C5_5 
REMARK    3  A    between atoms: C15_18  and  C16_19 
REMARK       I    between atoms: C16_19  and  N2_21 
REMARK    4  A    between atoms: N2_21  and  C17_22 
REMARK    5  A    between atoms: C17_22  and  C18_23 
REMARK    6  A    between atoms: C18_23  and  N3_24 
REMARK    7  A    between atoms: N3_24  and  C19_25 
REMARK    8  A    between atoms: N3_24  and  C21_27 
ROOT
HETATM    1  C1  UNL     1      28.102  -1.562  52.994  1.00  0.00     0.016 C 
HETATM    2  C2  UNL     1      27.237  -0.436  52.909  1.00  0.00     0.024 A 
HETATM    3  C3  UNL     1      26.567   0.640  52.842  1.00  0.00    -0.060 A 
HETATM    4  C4  UNL     1      25.625  -0.541  52.768  1.00  0.00     0.063 A 
ENDROOT
BRANCH   3   5
HETATM    5  C13 UNL     1      25.743   1.799  52.733  1.00  0.00    -0.053 C 
HETATM    6  C14 UNL     1      25.063   2.564  53.829  1.00  0.00     0.048 C 
HETATM    7  C15 UNL     1      25.450   2.242  51.488  1.00  0.00     0.081 C 
BRANCH   7   8
HETATM    8  C16 UNL     1      24.770   3.212  50.649  1.00  0.00     0.241 C 
HETATM    9  O2  UNL     1      23.955   2.928  49.682  1.00  0.00    -0.269 OA
HETATM   10  N2  UNL     1      24.913   4.583  50.791  1.00  0.00    -0.356 N 
HETATM   11  H14 UNL     1      25.583   4.798  51.603  1.00  0.00     0.162 HD
BRANCH  10  12
HETATM   12  C17 UNL     1      24.513   5.879  50.282  1.00  0.00     0.142 C 
BRANCH  12  13
HETATM   13  C18 UNL     1      25.174   6.136  48.924  1.00  0.00     0.136 C 
BRANCH  13  14
HETATM   14  N3  UNL     1      26.273   7.018  49.061  1.00  0.00    -0.412 N 
BRANCH  14  15
HETATM   15  C19 UNL     1      27.519   6.526  48.610  1.00  0.00     0.112 C 
HETATM   16  C20 UNL     1      27.672   5.042  48.537  1.00  0.00     0.026 C 
ENDBRANCH  14  15
BRANCH  14  17
HETATM   17  C21 UNL     1      26.255   7.947  50.126  1.00  0.00     0.112 C 
HETATM   18  C22 UNL     1      27.273   9.051  49.919  1.00  0.00     0.026 C 
ENDBRANCH  14  17
ENDBRANCH  13  14
ENDBRANCH  12  13
ENDBRANCH  10  12
ENDBRANCH   7   8
ENDBRANCH   3   5
BRANCH   4  19
HETATM   19  C5  UNL     1      24.534  -0.657  53.543  1.00  0.00     0.031 A 
HETATM   20  C6  UNL     1      24.480  -1.015  54.945  1.00  0.00     0.253 A 
HETATM   21  O1  UNL     1      25.285  -1.373  55.853  1.00  0.00    -0.268 OA
HETATM   22  N1  UNL     1      23.168  -0.980  55.512  1.00  0.00    -0.322 N 
HETATM   23  C7  UNL     1      22.332  -0.585  54.448  1.00  0.00     0.046 A 
HETATM   24  H6  UNL     1      22.693  -1.149  56.417  1.00  0.00     0.169 HD
HETATM   25  C8  UNL     1      21.004  -0.331  54.208  1.00  0.00     0.032 A 
HETATM   26  C12 UNL     1      23.099  -0.395  53.306  1.00  0.00     0.005 A 
HETATM   27  C9  UNL     1      20.377   0.060  53.068  1.00  0.00     0.026 A 
HETATM   28  C10 UNL     1      21.172   0.242  51.944  1.00  0.00     0.035 A 
HETATM   29 CL1  UNL     1      20.416   0.740  50.456  1.00  0.00    -0.084 Cl
HETATM   30  C11 UNL     1      22.523   0.011  52.079  1.00  0.00     0.038 A 
ENDBRANCH   4  19
TORSDOF 8
ENDMDL
MODEL 2
REMARK VINA RESULT:      -7.8      1.356      2.501
REMARK  8 active torsions:
REMARK  status: ('A' for Active; 'I' for Inactive)
REMARK    1  A    between atoms: C3_3  and  C13_16 
REMARK    2  A    between atoms: C4_4  and  C5_5 
REMARK    3  A    between atoms: C15_18  and  C16_19 
REMARK       I    between atoms: C16_19  and  N2_21 
REMARK    4  A    between atoms: N2_21  and  C17_22 
REMARK    5  A    between atoms: C17_22  and  C18_23 
REMARK    6  A    between atoms: C18_23  and  N3_24 
REMARK    7  A    between atoms: N3_24  and  C19_25 
REMARK    8  A    between atoms: N3_24  and  C21_27 
ROOT
HETATM    1  C1  UNL     1      28.243  -1.739  53.062  1.00  0.00     0.016 C 
HETATM    2  C2  UNL     1      27.463  -0.555  52.939  1.00  0.00     0.024 A 
HETATM    3  C3  UNL     1      26.872   0.565  52.847  1.00  0.00    -0.060 A 
HETATM    4  C4  UNL     1      25.863  -0.549  52.681  1.00  0.00     0.063 A 
ENDROOT
BRANCH   3   5
HETATM    5  C13 UNL     1      26.138   1.778  52.704  1.00  0.00    -0.053 C 
HETATM    6  C14 UNL     1      25.465   2.590  53.769  1.00  0.00     0.048 C 
HETATM    7  C15 UNL     1      25.933   2.239  51.447  1.00  0.00     0.081 C 
BRANCH   7   8
HETATM    8  C16 UNL     1      25.362   3.254  50.581  1.00  0.00     0.241 C 
HETATM    9  O2  UNL     1      24.570   3.028  49.580  1.00  0.00    -0.269 OA
HETATM   10  N2  UNL     1      25.597   4.612  50.729  1.00  0.00    -0.356 N 
HETATM   11  H14 UNL     1      26.246   4.779  51.569  1.00  0.00     0.162 HD
BRANCH  10  12
HETATM   12  C17 UNL     1      25.314   5.931  50.204  1.00  0.00     0.142 C 
BRANCH  12  13
HETATM   13  C18 UNL     1      24.069   6.510  50.883  1.00  0.00     0.136 C 
BRANCH  13  14
HETATM   14  N3  UNL     1      22.909   5.793  50.498  1.00  0.00    -0.412 N 
BRANCH  14  15
HETATM   15  C19 UNL     1      22.489   5.974  49.160  1.00  0.00     0.112 C 
HETATM   16  C20 UNL     1      21.120   5.488  48.812  1.00  0.00     0.026 C 
ENDBRANCH  14  15
BRANCH  14  17
HETATM   17  C21 UNL     1      21.937   5.517  51.485  1.00  0.00     0.112 C 
HETATM   18  C22 UNL     1      22.217   4.206  52.192  1.00  0.00     0.026 C 
ENDBRANCH  14  17
ENDBRANCH  13  14
ENDBRANCH  12  13
ENDBRANCH  10  12
ENDBRANCH   7   8
ENDBRANCH   3   5
BRANCH   4  19
HETATM   19  C5  UNL     1      24.712  -0.602  53.373  1.00  0.00     0.031 A 
HETATM   20  C6  UNL     1      24.530  -0.997  54.754  1.00  0.00     0.253 A 
HETATM   21  O1  UNL     1      25.237  -1.442  55.703  1.00  0.00    -0.268 OA
HETATM   22  N1  UNL     1      23.187  -0.877  55.228  1.00  0.00    -0.322 N 
HETATM   23  C7  UNL     1      22.462  -0.387  54.122  1.00  0.00     0.046 A 
HETATM   24  H6  UNL     1      22.636  -1.036  56.091  1.00  0.00     0.169 HD
HETATM   25  C8  UNL     1      21.178  -0.025  53.798  1.00  0.00     0.032 A 
HETATM   26  C12 UNL     1      23.322  -0.224  53.045  1.00  0.00     0.005 A 
HETATM   27  C9  UNL     1      20.666   0.446  52.631  1.00  0.00     0.026 A 
HETATM   28  C10 UNL     1      21.553   0.599  51.573  1.00  0.00     0.035 A 
HETATM   29 CL1  UNL     1      20.946   1.198  50.055  1.00  0.00    -0.084 Cl
HETATM   30  C11 UNL     1      22.869   0.261  51.795  1.00  0.00     0.038 A 
ENDBRANCH   4  19
TORSDOF 8
ENDMDL
MODEL 3
REMARK VINA RESULT:      -7.8      2.947      5.129
REMARK  8 active torsions:
REMARK  status: ('A' for Active; 'I' for Inactive)
REMARK    1  A    between atoms: C3_3  and  C13_16 
REMARK    2  A    between atoms: C4_4  and  C5_5 
REMARK    3  A    between atoms: C15_18  and  C16_19 
REMARK       I    between atoms: C16_19  and  N2_21 
REMARK    4  A    between atoms: N2_21  and  C17_22 
REMARK    5  A    between atoms: C17_22  and  C18_23 
REMARK    6  A    between atoms: C18_23  and  N3_24 
REMARK    7  A    between atoms: N3_24  and  C19_25 
REMARK    8  A    between atoms: N3_24  and  C21_27 
ROOT
HETATM    1  C1  UNL     1      21.815  -1.536  54.453  1.00  0.00     0.016 C 
HETATM    2  C2  UNL     1      21.606  -0.615  53.388  1.00  0.00     0.024 A 
HETATM    3  C3  UNL     1      21.350   0.119  52.385  1.00  0.00    -0.060 A 
HETATM    4  C4  UNL     1      22.248   0.872  53.340  1.00  0.00     0.063 A 
ENDROOT
BRANCH   3   5
HETATM    5  C13 UNL     1      21.090   1.017  51.308  1.00  0.00    -0.053 C 
HETATM    6  C14 UNL     1      21.609   0.960  49.904  1.00  0.00     0.048 C 
HETATM    7  C15 UNL     1      20.350   2.118  51.579  1.00  0.00     0.081 C 
BRANCH   7   8
HETATM    8  C16 UNL     1      19.737   3.343  51.100  1.00  0.00     0.241 C 
HETATM    9  O2  UNL     1      18.463   3.577  51.056  1.00  0.00    -0.269 OA
HETATM   10  N2  UNL     1      20.456   4.429  50.627  1.00  0.00    -0.356 N 
HETATM   11  H14 UNL     1      21.509   4.219  50.681  1.00  0.00     0.162 HD
BRANCH  10  12
HETATM   12  C17 UNL     1      20.367   5.768  50.082  1.00  0.00     0.142 C 
BRANCH  12  13
HETATM   13  C18 UNL     1      21.510   6.007  49.090  1.00  0.00     0.136 C 
BRANCH  13  14
HETATM   14  N3  UNL     1      22.766   5.842  49.723  1.00  0.00    -0.412 N 
BRANCH  14  15
HETATM   15  C19 UNL     1      23.093   6.806  50.705  1.00  0.00     0.112 C 
HETATM   16  C20 UNL     1      24.542   6.985  51.018  1.00  0.00     0.026 C 
ENDBRANCH  14  15
BRANCH  14  17
HETATM   17  C21 UNL     1      23.811   5.241  48.987  1.00  0.00     0.112 C 
HETATM   18  C22 UNL     1      23.741   3.728  49.054  1.00  0.00     0.026 C 
ENDBRANCH  14  17
ENDBRANCH  13  14
ENDBRANCH  12  13
ENDBRANCH  10  12
ENDBRANCH   7   8
ENDBRANCH   3   5
BRANCH   4  19
HETATM   19  C5  UNL     1      23.376   1.490  52.951  1.00  0.00     0.031 A 
HETATM   20  C6  UNL     1      23.573   2.904  52.713  1.00  0.00     0.253 A 
HETATM   21  O1  UNL     1      22.876   3.959  52.705  1.00  0.00    -0.268 OA
HETATM   22  N1  UNL     1      24.915   3.264  52.378  1.00  0.00    -0.322 N 
HETATM   23  C7  UNL     1      25.625   2.046  52.398  1.00  0.00     0.046 A 
HETATM   24  H6  UNL     1      25.473   4.104  52.144  1.00  0.00     0.169 HD
HETATM   25  C8  UNL     1      26.902   1.583  52.197  1.00  0.00     0.032 A 
HETATM   26  C12 UNL     1      24.757   1.013  52.724  1.00  0.00     0.005 A 
HETATM   27  C9  UNL     1      27.401   0.321  52.272  1.00  0.00     0.026 A 
HETATM   28  C10 UNL     1      26.506  -0.689  52.601  1.00  0.00     0.035 A 
HETATM   29 CL1  UNL     1      27.096  -2.325  52.708  1.00  0.00    -0.084 Cl
HETATM   30  C11 UNL     1      25.196  -0.329  52.822  1.00  0.00     0.038 A 
ENDBRANCH   4  19
TORSDOF 8
ENDMDL
MODEL 4
REMARK VINA RESULT:      -7.4      2.836      7.205
REMARK  8 active torsions:
REMARK  status: ('A' for Active; 'I' for Inactive)
REMARK    1  A    between atoms: C3_3  and  C13_16 
REMARK    2  A    between atoms: C4_4  and  C5_5 
REMARK    3  A    between atoms: C15_18  and  C16_19 
REMARK       I    between atoms: C16_19  and  N2_21 
REMARK    4  A    between atoms: N2_21  and  C17_22 
REMARK    5  A    between atoms: C17_22  and  C18_23 
REMARK    6  A    between atoms: C18_23  and  N3_24 
REMARK    7  A    between atoms: N3_24  and  C19_25 
REMARK    8  A    between atoms: N3_24  and  C21_27 
ROOT
HETATM    1  C1  UNL     1      21.331   2.672  48.023  1.00  0.00     0.016 C 
HETATM    2  C2  UNL     1      21.975   2.608  49.291  1.00  0.00     0.024 A 
HETATM    3  C3  UNL     1      22.440   2.519  50.469  1.00  0.00    -0.060 A 
HETATM    4  C4  UNL     1      23.550   2.913  49.521  1.00  0.00     0.063 A 
ENDROOT
BRANCH   3   5
HETATM    5  C13 UNL     1      23.047   2.416  51.755  1.00  0.00    -0.053 C 
HETATM    6  C14 UNL     1      23.255   3.494  52.774  1.00  0.00     0.048 C 
HETATM    7  C15 UNL     1      23.589   1.223  52.095  1.00  0.00     0.081 C 
BRANCH   7   8
HETATM    8  C16 UNL     1      24.293   0.421  53.078  1.00  0.00     0.241 C 
HETATM    9  O2  UNL     1      23.922  -0.749  53.497  1.00  0.00    -0.269 OA
HETATM   10  N2  UNL     1      25.469   0.818  53.694  1.00  0.00    -0.356 N 
HETATM   11  H14 UNL     1      25.764   1.783  53.326  1.00  0.00     0.162 HD
BRANCH  10  12
HETATM   12  C17 UNL     1      26.492   0.451  54.651  1.00  0.00     0.142 C 
BRANCH  12  13
HETATM   13  C18 UNL     1      27.493  -0.513  54.005  1.00  0.00     0.136 C 
BRANCH  13  14
HETATM   14  N3  UNL     1      28.754   0.111  53.840  1.00  0.00    -0.412 N 
BRANCH  14  15
HETATM   15  C19 UNL     1      29.840  -0.753  53.572  1.00  0.00     0.112 C 
HETATM   16  C20 UNL     1      29.512  -2.185  53.302  1.00  0.00     0.026 C 
ENDBRANCH  14  15
BRANCH  14  17
HETATM   17  C21 UNL     1      29.000   1.315  54.539  1.00  0.00     0.112 C 
HETATM   18  C22 UNL     1      28.862   2.523  53.634  1.00  0.00     0.026 C 
ENDBRANCH  14  17
ENDBRANCH  13  14
ENDBRANCH  12  13
ENDBRANCH  10  12
ENDBRANCH   7   8
ENDBRANCH   3   5
BRANCH   4  19
HETATM   19  C5  UNL     1      24.370   3.954  49.747  1.00  0.00     0.031 A 
HETATM   20  C6  UNL     1      25.813   3.936  49.848  1.00  0.00     0.253 A 
HETATM   21  O1  UNL     1      26.744   3.079  49.837  1.00  0.00    -0.268 OA
HETATM   22  N1  UNL     1      26.409   5.225  50.020  1.00  0.00    -0.322 N 
HETATM   23  C7  UNL     1      25.319   6.120  50.031  1.00  0.00     0.046 A 
HETATM   24  H6  UNL     1      27.344   5.656  50.129  1.00  0.00     0.169 HD
HETATM   25  C8  UNL     1      25.081   7.468  50.144  1.00  0.00     0.032 A 
HETATM   26  C12 UNL     1      24.137   5.408  49.877  1.00  0.00     0.005 A 
HETATM   27  C9  UNL     1      23.911   8.158  50.124  1.00  0.00     0.026 A 
HETATM   28  C10 UNL     1      22.747   7.416  49.968  1.00  0.00     0.035 A 
HETATM   29 CL1  UNL     1      21.220   8.254  49.938  1.00  0.00    -0.084 Cl
HETATM   30  C11 UNL     1      22.877   6.051  49.846  1.00  0.00     0.038 A 
ENDBRANCH   4  19
TORSDOF 8
ENDMDL
MODEL 5
REMARK VINA RESULT:      -7.4      4.792      8.109
REMARK  8 active torsions:
REMARK  status: ('A' for Active; 'I' for Inactive)
REMARK    1  A    between atoms: C3_3  and  C13_16 
REMARK    2  A    between atoms: C4_4  and  C5_5 
REMARK    3  A    between atoms: C15_18  and  C16_19 
REMARK       I    between atoms: C16_19  and  N2_21 
REMARK    4  A    between atoms: N2_21  and  C17_22 
REMARK    5  A    between atoms: C17_22  and  C18_23 
REMARK    6  A    between atoms: C18_23  and  N3_24 
REMARK    7  A    between atoms: N3_24  and  C19_25 
REMARK    8  A    between atoms: N3_24  and  C21_27 
ROOT
HETATM    1  C1  UNL     1      21.939  -1.490  54.688  1.00  0.00     0.016 C 
HETATM    2  C2  UNL     1      21.568  -0.593  53.648  1.00  0.00     0.024 A 
HETATM    3  C3  UNL     1      21.163   0.118  52.677  1.00  0.00    -0.060 A 
HETATM    4  C4  UNL     1      22.167   0.905  53.489  1.00  0.00     0.063 A 
ENDROOT
BRANCH   3   5
HETATM    5  C13 UNL     1      20.741   0.991  51.632  1.00  0.00    -0.053 C 
HETATM    6  C14 UNL     1      21.151   0.984  50.191  1.00  0.00     0.048 C 
HETATM    7  C15 UNL     1      19.928   2.020  51.969  1.00  0.00     0.081 C 
BRANCH   7   8
HETATM    8  C16 UNL     1      19.171   3.185  51.549  1.00  0.00     0.241 C 
HETATM    9  O2  UNL     1      19.681   4.288  51.097  1.00  0.00    -0.269 OA
HETATM   10  N2  UNL     1      17.788   3.255  51.580  1.00  0.00    -0.356 N 
HETATM   11  H14 UNL     1      17.385   2.329  51.948  1.00  0.00     0.162 HD
BRANCH  10  12
HETATM   12  C17 UNL     1      16.633   4.086  51.307  1.00  0.00     0.142 C 
BRANCH  12  13
HETATM   13  C18 UNL     1      15.717   4.130  52.534  1.00  0.00     0.136 C 
BRANCH  13  14
HETATM   14  N3  UNL     1      14.380   3.834  52.172  1.00  0.00    -0.412 N 
BRANCH  14  15
HETATM   15  C19 UNL     1      13.532   3.424  53.226  1.00  0.00     0.112 C 
HETATM   16  C20 UNL     1      12.659   4.472  53.836  1.00  0.00     0.026 C 
ENDBRANCH  14  15
BRANCH  14  17
HETATM   17  C21 UNL     1      14.135   3.340  50.871  1.00  0.00     0.112 C 
HETATM   18  C22 UNL     1      13.052   4.134  50.168  1.00  0.00     0.026 C 
ENDBRANCH  14  17
ENDBRANCH  13  14
ENDBRANCH  12  13
ENDBRANCH  10  12
ENDBRANCH   7   8
ENDBRANCH   3   5
BRANCH   4  19
HETATM   19  C5  UNL     1      23.218   1.536  52.940  1.00  0.00     0.031 A 
HETATM   20  C6  UNL     1      23.320   2.933  52.578  1.00  0.00     0.253 A 
HETATM   21  O1  UNL     1      22.575   3.955  52.564  1.00  0.00    -0.268 OA
HETATM   22  N1  UNL     1      24.603   3.321  52.080  1.00  0.00    -0.322 N 
HETATM   23  C7  UNL     1      25.371   2.139  52.116  1.00  0.00     0.046 A 
HETATM   24  H6  UNL     1      25.093   4.163  51.727  1.00  0.00     0.169 HD
HETATM   25  C8  UNL     1      26.642   1.715  51.819  1.00  0.00     0.032 A 
HETATM   26  C12 UNL     1      24.591   1.100  52.607  1.00  0.00     0.005 A 
HETATM   27  C9  UNL     1      27.207   0.485  51.935  1.00  0.00     0.026 A 
HETATM   28  C10 UNL     1      26.401  -0.533  52.430  1.00  0.00     0.035 A 
HETATM   29 CL1  UNL     1      27.078  -2.129  52.597  1.00  0.00    -0.084 Cl
HETATM   30  C11 UNL     1      25.104  -0.211  52.758  1.00  0.00     0.038 A 
ENDBRANCH   4  19
TORSDOF 8
ENDMDL
MODEL 6
REMARK VINA RESULT:      -7.0      3.432      5.388
REMARK  8 active torsions:
REMARK  status: ('A' for Active; 'I' for Inactive)
REMARK    1  A    between atoms: C3_3  and  C13_16 
REMARK    2  A    between atoms: C4_4  and  C5_5 
REMARK    3  A    between atoms: C15_18  and  C16_19 
REMARK       I    between atoms: C16_19  and  N2_21 
REMARK    4  A    between atoms: N2_21  and  C17_22 
REMARK    5  A    between atoms: C17_22  and  C18_23 
REMARK    6  A    between atoms: C18_23  and  N3_24 
REMARK    7  A    between atoms: N3_24  and  C19_25 
REMARK    8  A    between atoms: N3_24  and  C21_27 
ROOT
HETATM    1  C1  UNL     1      26.983   4.565  48.905  1.00  0.00     0.016 C 
HETATM    2  C2  UNL     1      25.876   4.539  49.799  1.00  0.00     0.024 A 
HETATM    3  C3  UNL     1      24.892   4.640  50.595  1.00  0.00    -0.060 A 
HETATM    4  C4  UNL     1      25.180   3.178  50.336  1.00  0.00     0.063 A 
ENDROOT
BRANCH   3   5
HETATM    5  C13 UNL     1      23.767   4.664  51.470  1.00  0.00    -0.053 C 
HETATM    6  C14 UNL     1      23.751   4.806  52.961  1.00  0.00     0.048 C 
HETATM    7  C15 UNL     1      22.547   4.452  50.923  1.00  0.00     0.081 C 
BRANCH   7   8
HETATM    8  C16 UNL     1      21.113   4.332  51.110  1.00  0.00     0.241 C 
HETATM    9  O2  UNL     1      20.529   3.884  52.177  1.00  0.00    -0.269 OA
HETATM   10  N2  UNL     1      20.180   4.696  50.151  1.00  0.00    -0.356 N 
HETATM   11  H14 UNL     1      20.682   5.074  49.280  1.00  0.00     0.162 HD
BRANCH  10  12
HETATM   12  C17 UNL     1      18.768   4.781  49.838  1.00  0.00     0.142 C 
BRANCH  12  13
HETATM   13  C18 UNL     1      18.341   3.569  49.005  1.00  0.00     0.136 C 
BRANCH  13  14
HETATM   14  N3  UNL     1      19.443   3.038  48.292  1.00  0.00    -0.412 N 
BRANCH  14  15
HETATM   15  C19 UNL     1      19.444   3.268  46.897  1.00  0.00     0.112 C 
HETATM   16  C20 UNL     1      20.005   4.570  46.428  1.00  0.00     0.026 C 
ENDBRANCH  14  15
BRANCH  14  17
HETATM   17  C21 UNL     1      20.057   1.865  48.787  1.00  0.00     0.112 C 
HETATM   18  C22 UNL     1      21.507   1.769  48.356  1.00  0.00     0.026 C 
ENDBRANCH  14  17
ENDBRANCH  13  14
ENDBRANCH  12  13
ENDBRANCH  10  12
ENDBRANCH   7   8
ENDBRANCH   3   5
BRANCH   4  19
HETATM   19  C5  UNL     1      25.321   2.274  51.321  1.00  0.00     0.031 A 
HETATM   20  C6  UNL     1      26.502   2.009  52.114  1.00  0.00     0.253 A 
HETATM   21  O1  UNL     1      27.705   2.396  52.163  1.00  0.00    -0.268 OA
HETATM   22  N1  UNL     1      26.315   1.034  53.143  1.00  0.00    -0.322 N 
HETATM   23  C7  UNL     1      24.964   0.646  53.023  1.00  0.00     0.046 A 
HETATM   24  H6  UNL     1      26.850   0.567  53.897  1.00  0.00     0.169 HD
HETATM   25  C8  UNL     1      24.069  -0.204  53.623  1.00  0.00     0.032 A 
HETATM   26  C12 UNL     1      24.376   1.348  51.979  1.00  0.00     0.005 A 
HETATM   27  C9  UNL     1      22.759  -0.436  53.349  1.00  0.00     0.026 A 
HETATM   28  C10 UNL     1      22.199   0.282  52.300  1.00  0.00     0.035 A 
HETATM   29 CL1  UNL     1      20.523   0.019  51.907  1.00  0.00    -0.084 Cl
HETATM   30  C11 UNL     1      23.016   1.164  51.629  1.00  0.00     0.038 A 
ENDBRANCH   4  19
TORSDOF 8
ENDMDL
MODEL 7
REMARK VINA RESULT:      -7.0      4.144      9.869
REMARK  8 active torsions:
REMARK  status: ('A' for Active; 'I' for Inactive)
REMARK    1  A    between atoms: C3_3  and  C13_16 
REMARK    2  A    between atoms: C4_4  and  C5_5 
REMARK    3  A    between atoms: C15_18  and  C16_19 
REMARK       I    between atoms: C16_19  and  N2_21 
REMARK    4  A    between atoms: N2_21  and  C17_22 
REMARK    5  A    between atoms: C17_22  and  C18_23 
REMARK    6  A    between atoms: C18_23  and  N3_24 
REMARK    7  A    between atoms: N3_24  and  C19_25 
REMARK    8  A    between atoms: N3_24  and  C21_27 
ROOT
HETATM    1  C1  UNL     1      25.830   8.806  45.530  1.00  0.00     0.016 C 
HETATM    2  C2  UNL     1      25.885   8.093  46.760  1.00  0.00     0.024 A 
HETATM    3  C3  UNL     1      25.818   7.495  47.878  1.00  0.00    -0.060 A 
HETATM    4  C4  UNL     1      27.183   7.266  47.269  1.00  0.00     0.063 A 
ENDROOT
BRANCH   3   5
HETATM    5  C13 UNL     1      25.816   6.774  49.107  1.00  0.00    -0.053 C 
HETATM    6  C14 UNL     1      25.717   7.312  50.502  1.00  0.00     0.048 C 
HETATM    7  C15 UNL     1      26.011   5.435  49.046  1.00  0.00     0.081 C 
BRANCH   7   8
HETATM    8  C16 UNL     1      26.134   4.171  49.747  1.00  0.00     0.241 C 
HETATM    9  O2  UNL     1      27.019   3.257  49.499  1.00  0.00    -0.269 OA
HETATM   10  N2  UNL     1      25.304   3.786  50.789  1.00  0.00    -0.356 N 
HETATM   11  H14 UNL     1      24.585   4.561  50.986  1.00  0.00     0.162 HD
BRANCH  10  12
HETATM   12  C17 UNL     1      25.007   2.744  51.749  1.00  0.00     0.142 C 
BRANCH  12  13
HETATM   13  C18 UNL     1      26.084   2.710  52.838  1.00  0.00     0.136 C 
BRANCH  13  14
HETATM   14  N3  UNL     1      26.464   1.377  53.126  1.00  0.00    -0.412 N 
BRANCH  14  15
HETATM   15  C19 UNL     1      27.810   1.189  53.516  1.00  0.00     0.112 C 
HETATM   16  C20 UNL     1      28.659   2.413  53.619  1.00  0.00     0.026 C 
ENDBRANCH  14  15
BRANCH  14  17
HETATM   17  C21 UNL     1      25.802   0.332  52.443  1.00  0.00     0.112 C 
HETATM   18  C22 UNL     1      26.700  -0.878  52.271  1.00  0.00     0.026 C 
ENDBRANCH  14  17
ENDBRANCH  13  14
ENDBRANCH  12  13
ENDBRANCH  10  12
ENDBRANCH   7   8
ENDBRANCH   3   5
BRANCH   4  19
HETATM   19  C5  UNL     1      28.328   7.468  47.942  1.00  0.00     0.031 A 
HETATM   20  C6  UNL     1      29.307   6.478  48.339  1.00  0.00     0.253 A 
HETATM   21  O1  UNL     1      29.443   5.222  48.289  1.00  0.00    -0.268 OA
HETATM   22  N1  UNL     1      30.464   7.018  48.983  1.00  0.00    -0.322 N 
HETATM   23  C7  UNL     1      30.238   8.410  49.009  1.00  0.00     0.046 A 
HETATM   24  H6  UNL     1      31.355   6.700  49.403  1.00  0.00     0.169 HD
HETATM   25  C8  UNL     1      30.861   9.556  49.437  1.00  0.00     0.032 A 
HETATM   26  C12 UNL     1      29.014   8.688  48.417  1.00  0.00     0.005 A 
HETATM   27  C9  UNL     1      30.462  10.852  49.361  1.00  0.00     0.026 A 
HETATM   28  C10 UNL     1      29.234  11.098  48.762  1.00  0.00     0.035 A 
HETATM   29 CL1  UNL     1      28.676  12.743  48.642  1.00  0.00    -0.084 Cl
HETATM   30  C11 UNL     1      28.526  10.012  48.298  1.00  0.00     0.038 A 
ENDBRANCH   4  19
TORSDOF 8
ENDMDL
MODEL 8
REMARK VINA RESULT:      -7.0      3.966      9.853
REMARK  8 active torsions:
REMARK  status: ('A' for Active; 'I' for Inactive)
REMARK    1  A    between atoms: C3_3  and  C13_16 
REMARK    2  A    between atoms: C4_4  and  C5_5 
REMARK    3  A    between atoms: C15_18  and  C16_19 
REMARK       I    between atoms: C16_19  and  N2_21 
REMARK    4  A    between atoms: N2_21  and  C17_22 
REMARK    5  A    between atoms: C17_22  and  C18_23 
REMARK    6  A    between atoms: C18_23  and  N3_24 
REMARK    7  A    between atoms: N3_24  and  C19_25 
REMARK    8  A    between atoms: N3_24  and  C21_27 
ROOT
HETATM    1  C1  UNL     1      25.043   9.490  45.710  1.00  0.00     0.016 C 
HETATM    2  C2  UNL     1      25.304   8.662  46.838  1.00  0.00     0.024 A 
HETATM    3  C3  UNL     1      25.415   7.926  47.866  1.00  0.00    -0.060 A 
HETATM    4  C4  UNL     1      26.784   8.155  47.264  1.00  0.00     0.063 A 
ENDROOT
BRANCH   3   5
HETATM    5  C13 UNL     1      25.624   7.076  48.991  1.00  0.00    -0.053 C 
HETATM    6  C14 UNL     1      25.506   7.412  50.447  1.00  0.00     0.048 C 
HETATM    7  C15 UNL     1      26.068   5.820  48.749  1.00  0.00     0.081 C 
BRANCH   7   8
HETATM    8  C16 UNL     1      26.471   4.529  49.276  1.00  0.00     0.241 C 
HETATM    9  O2  UNL     1      27.544   3.883  48.940  1.00  0.00    -0.269 OA
HETATM   10  N2  UNL     1      25.744   3.823  50.222  1.00  0.00    -0.356 N 
HETATM   11  H14 UNL     1      24.866   4.379  50.494  1.00  0.00     0.162 HD
BRANCH  10  12
HETATM   12  C17 UNL     1      25.686   2.615  51.018  1.00  0.00     0.142 C 
BRANCH  12  13
HETATM   13  C18 UNL     1      26.969   2.468  51.842  1.00  0.00     0.136 C 
BRANCH  13  14
HETATM   14  N3  UNL     1      27.131   1.132  52.283  1.00  0.00    -0.412 N 
BRANCH  14  15
HETATM   15  C19 UNL     1      25.950   0.360  52.359  1.00  0.00     0.112 C 
HETATM   16  C20 UNL     1      25.981  -0.836  53.252  1.00  0.00     0.026 C 
ENDBRANCH  14  15
BRANCH  14  17
HETATM   17  C21 UNL     1      28.188   0.848  53.178  1.00  0.00     0.112 C 
HETATM   18  C22 UNL     1      28.740   2.112  53.807  1.00  0.00     0.026 C 
ENDBRANCH  14  17
ENDBRANCH  13  14
ENDBRANCH  12  13
ENDBRANCH  10  12
ENDBRANCH   7   8
ENDBRANCH   3   5
BRANCH   4  19
HETATM   19  C5  UNL     1      27.840   8.567  47.985  1.00  0.00     0.031 A 
HETATM   20  C6  UNL     1      27.955   9.775  48.773  1.00  0.00     0.253 A 
HETATM   21  O1  UNL     1      27.261  10.804  49.020  1.00  0.00    -0.268 OA
HETATM   22  N1  UNL     1      29.186   9.897  49.490  1.00  0.00    -0.322 N 
HETATM   23  C7  UNL     1      29.905   8.729  49.163  1.00  0.00     0.046 A 
HETATM   24  H6  UNL     1      29.664  10.551  50.135  1.00  0.00     0.169 HD
HETATM   25  C8  UNL     1      31.111   8.136  49.444  1.00  0.00     0.032 A 
HETATM   26  C12 UNL     1      29.147   7.951  48.297  1.00  0.00     0.005 A 
HETATM   27  C9  UNL     1      31.632   6.958  49.013  1.00  0.00     0.026 A 
HETATM   28  C10 UNL     1      30.850   6.204  48.148  1.00  0.00     0.035 A 
HETATM   29 CL1  UNL     1      31.474   4.686  47.565  1.00  0.00    -0.084 Cl
HETATM   30  C11 UNL     1      29.618   6.711  47.802  1.00  0.00     0.038 A 
ENDBRANCH   4  19
TORSDOF 8
ENDMDL
MODEL 9
REMARK VINA RESULT:      -6.9      3.229      6.657
REMARK  8 active torsions:
REMARK  status: ('A' for Active; 'I' for Inactive)
REMARK    1  A    between atoms: C3_3  and  C13_16 
REMARK    2  A    between atoms: C4_4  and  C5_5 
REMARK    3  A    between atoms: C15_18  and  C16_19 
REMARK       I    between atoms: C16_19  and  N2_21 
REMARK    4  A    between atoms: N2_21  and  C17_22 
REMARK    5  A    between atoms: C17_22  and  C18_23 
REMARK    6  A    between atoms: C18_23  and  N3_24 
REMARK    7  A    between atoms: N3_24  and  C19_25 
REMARK    8  A    between atoms: N3_24  and  C21_27 
ROOT
HETATM    1  C1  UNL     1      27.062   3.912  49.199  1.00  0.00     0.016 C 
HETATM    2  C2  UNL     1      26.052   3.761  50.190  1.00  0.00     0.024 A 
HETATM    3  C3  UNL     1      25.116   3.742  51.047  1.00  0.00    -0.060 A 
HETATM    4  C4  UNL     1      25.845   2.418  51.073  1.00  0.00     0.063 A 
ENDROOT
BRANCH   3   5
HETATM    5  C13 UNL     1      24.072   3.629  52.011  1.00  0.00    -0.053 C 
HETATM    6  C14 UNL     1      24.085   4.045  53.450  1.00  0.00     0.048 C 
HETATM    7  C15 UNL     1      22.939   2.992  51.631  1.00  0.00     0.081 C 
BRANCH   7   8
HETATM    8  C16 UNL     1      21.608   2.526  51.976  1.00  0.00     0.241 C 
HETATM    9  O2  UNL     1      20.671   3.253  52.500  1.00  0.00    -0.269 OA
HETATM   10  N2  UNL     1      21.174   1.225  51.778  1.00  0.00    -0.356 N 
HETATM   11  H14 UNL     1      21.961   0.643  51.335  1.00  0.00     0.162 HD
BRANCH  10  12
HETATM   12  C17 UNL     1      20.063   0.308  51.923  1.00  0.00     0.142 C 
BRANCH  12  13
HETATM   13  C18 UNL     1      18.996   0.604  50.864  1.00  0.00     0.136 C 
BRANCH  13  14
HETATM   14  N3  UNL     1      17.718   0.726  51.461  1.00  0.00    -0.412 N 
BRANCH  14  15
HETATM   15  C19 UNL     1      16.922  -0.443  51.458  1.00  0.00     0.112 C 
HETATM   16  C20 UNL     1      16.923  -1.263  52.706  1.00  0.00     0.026 C 
ENDBRANCH  14  15
BRANCH  14  17
HETATM   17  C21 UNL     1      17.077   1.984  51.415  1.00  0.00     0.112 C 
HETATM   18  C22 UNL     1      17.160   2.602  50.033  1.00  0.00     0.026 C 
ENDBRANCH  14  17
ENDBRANCH  13  14
ENDBRANCH  12  13
ENDBRANCH  10  12
ENDBRANCH   7   8
ENDBRANCH   3   5
BRANCH   4  19
HETATM   19  C5  UNL     1      26.300   1.856  52.206  1.00  0.00     0.031 A 
HETATM   20  C6  UNL     1      27.545   2.131  52.891  1.00  0.00     0.253 A 
HETATM   21  O1  UNL     1      28.577   2.839  52.711  1.00  0.00    -0.268 OA
HETATM   22  N1  UNL     1      27.711   1.420  54.120  1.00  0.00    -0.322 N 
HETATM   23  C7  UNL     1      26.535   0.653  54.248  1.00  0.00     0.046 A 
HETATM   24  H6  UNL     1      28.399   1.318  54.888  1.00  0.00     0.169 HD
HETATM   25  C8  UNL     1      25.968  -0.243  55.120  1.00  0.00     0.032 A 
HETATM   26  C12 UNL     1      25.712   0.888  53.156  1.00  0.00     0.005 A 
HETATM   27  C9  UNL     1      24.776  -0.892  55.061  1.00  0.00     0.026 A 
HETATM   28  C10 UNL     1      23.974  -0.634  53.956  1.00  0.00     0.035 A 
HETATM   29 CL1  UNL     1      22.437  -1.442  53.832  1.00  0.00    -0.084 Cl
HETATM   30  C11 UNL     1      24.454   0.253  53.019  1.00  0.00     0.038 A 
ENDBRANCH   4  19
TORSDOF 8
ENDMDL
