MODEL 1
REMARK VINA RESULT:      -7.4      0.000      0.000
REMARK  3 active torsions:
REMARK  status: ('A' for Active; 'I' for Inactive)
REMARK    1  A    between atoms: O1_2  and  C2_3 
REMARK    2  A    between atoms: C5_6  and  O2_7 
REMARK    3  A    between atoms: C12_16  and  N3_17 
ROOT
HETATM    1  C2  UNL     1      23.285   1.748  52.953  1.00  0.00     0.059 C 
HETATM    2  C3  UNL     1      23.924   0.559  53.037  1.00  0.00     0.065 C 
HETATM    3  C4  UNL     1      25.097   0.679  52.189  1.00  0.00     0.066 C 
HETATM    4  C5  UNL     1      25.077   1.933  51.621  1.00  0.00     0.083 C 
HETATM    5  C7  UNL     1      24.540   2.613  52.839  1.00  0.00     0.105 C 
HETATM    6  C8  UNL     1      25.545   2.349  53.930  1.00  0.00     0.045 C 
HETATM    7  C9  UNL     1      26.945   2.722  53.630  1.00  0.00    -0.027 C 
HETATM    8  C10 UNL     1      28.230   2.201  53.514  1.00  0.00     0.003 C 
HETATM    9  C11 UNL     1      28.247   0.789  53.768  1.00  0.00     0.194 C 
HETATM   10  N1  UNL     1      29.343   0.006  54.110  1.00  0.00    -0.282 N 
HETATM   11  N2  UNL     1      29.395  -1.396  53.980  1.00  0.00     0.015 NA
HETATM   12  C12 UNL     1      28.544  -1.992  53.167  1.00  0.00     0.738 C 
HETATM   13  N4  UNL     1      27.459  -1.258  52.518  1.00  0.00    -0.046 NA
HETATM   14  C13 UNL     1      27.397  -0.012  52.830  1.00  0.00     0.152 C 
HETATM   15  N5  UNL     1      26.294   0.010  51.848  1.00  0.00    -0.340 N 
HETATM   16  H14 UNL     1      30.080   0.635  54.462  1.00  0.00     0.184 HD
HETATM   17  H17 UNL     1      25.958  -0.278  50.920  1.00  0.00     0.167 HD
ENDROOT
BRANCH  12  18
HETATM   18  N3  UNL     1      28.774  -3.421  53.166  1.00  0.00    -0.230 N 
HETATM   19  H15 UNL     1      29.661  -3.577  52.619  1.00  0.00     0.174 HD
HETATM   20  H16 UNL     1      28.042  -3.957  53.683  1.00  0.00     0.174 HD
ENDBRANCH  12  18
BRANCH   4  21
HETATM   21  O2  UNL     1      25.358   2.627  50.455  1.00  0.00    -0.357 OA
HETATM   22  C6  UNL     1      26.579   3.275  50.267  1.00  0.00     0.209 C 
ENDBRANCH   4  21
BRANCH   1  23
HETATM   23  O1  UNL     1      21.934   1.666  53.002  1.00  0.00    -0.359 OA
HETATM   24  C1  UNL     1      21.187   0.507  53.297  1.00  0.00     0.209 C 
ENDBRANCH   1  23
TORSDOF 3
ENDMDL
MODEL 2
REMARK VINA RESULT:      -7.1      3.641      5.682
REMARK  3 active torsions:
REMARK  status: ('A' for Active; 'I' for Inactive)
REMARK    1  A    between atoms: O1_2  and  C2_3 
REMARK    2  A    between atoms: C5_6  and  O2_7 
REMARK    3  A    between atoms: C12_16  and  N3_17 
ROOT
HETATM    1  C2  UNL     1      25.743  -0.076  53.848  1.00  0.00     0.059 C 
HETATM    2  C3  UNL     1      24.655   0.699  53.634  1.00  0.00     0.065 C 
HETATM    3  C4  UNL     1      25.157   2.054  53.491  1.00  0.00     0.066 C 
HETATM    4  C5  UNL     1      26.524   2.014  53.657  1.00  0.00     0.083 C 
HETATM    5  C7  UNL     1      26.697   0.710  52.950  1.00  0.00     0.105 C 
HETATM    6  C8  UNL     1      26.162   0.925  51.558  1.00  0.00     0.045 C 
HETATM    7  C9  UNL     1      26.732   2.067  50.811  1.00  0.00    -0.027 C 
HETATM    8  C10 UNL     1      26.393   3.266  50.191  1.00  0.00     0.003 C 
HETATM    9  C11 UNL     1      24.986   3.529  50.294  1.00  0.00     0.194 C 
HETATM   10  N1  UNL     1      24.229   4.392  49.510  1.00  0.00    -0.282 N 
HETATM   11  N2  UNL     1      22.966   4.900  49.873  1.00  0.00     0.015 NA
HETATM   12  C12 UNL     1      22.615   4.883  51.145  1.00  0.00     0.738 C 
HETATM   13  N4  UNL     1      23.432   4.219  52.159  1.00  0.00    -0.046 NA
HETATM   14  C13 UNL     1      24.485   3.643  51.701  1.00  0.00     0.152 C 
HETATM   15  N5  UNL     1      24.749   3.357  53.126  1.00  0.00    -0.340 N 
HETATM   16  H14 UNL     1      24.760   4.578  48.646  1.00  0.00     0.184 HD
HETATM   17  H17 UNL     1      24.768   3.715  54.089  1.00  0.00     0.167 HD
ENDROOT
BRANCH  12  18
HETATM   18  N3  UNL     1      21.297   5.461  51.305  1.00  0.00    -0.230 N 
HETATM   19  H15 UNL     1      21.430   6.506  51.295  1.00  0.00     0.174 HD
HETATM   20  H16 UNL     1      20.541   4.745  51.391  1.00  0.00     0.174 HD
ENDBRANCH  12  18
BRANCH   4  21
HETATM   21  O2  UNL     1      27.595   2.709  54.195  1.00  0.00    -0.357 OA
HETATM   22  C6  UNL     1      28.908   2.440  53.809  1.00  0.00     0.209 C 
ENDBRANCH   4  21
BRANCH   1  23
HETATM   23  O1  UNL     1      25.535  -1.118  54.688  1.00  0.00    -0.359 OA
HETATM   24  C1  UNL     1      24.487  -1.228  55.625  1.00  0.00     0.209 C 
ENDBRANCH   1  23
TORSDOF 3
ENDMDL
MODEL 3
REMARK VINA RESULT:      -6.9      2.268      4.179
REMARK  3 active torsions:
REMARK  status: ('A' for Active; 'I' for Inactive)
REMARK    1  A    between atoms: O1_2  and  C2_3 
REMARK    2  A    between atoms: C5_6  and  O2_7 
REMARK    3  A    between atoms: C12_16  and  N3_17 
ROOT
HETATM    1  C2  UNL     1      23.997   3.527  49.820  1.00  0.00     0.059 C 
HETATM    2  C3  UNL     1      25.128   3.229  50.499  1.00  0.00     0.065 C 
HETATM    3  C4  UNL     1      24.757   3.217  51.903  1.00  0.00     0.066 C 
HETATM    4  C5  UNL     1      23.420   3.538  51.985  1.00  0.00     0.083 C 
HETATM    5  C7  UNL     1      23.035   2.789  50.751  1.00  0.00     0.105 C 
HETATM    6  C8  UNL     1      23.432   1.358  51.002  1.00  0.00     0.045 C 
HETATM    7  C9  UNL     1      22.904   0.743  52.239  1.00  0.00    -0.027 C 
HETATM    8  C10 UNL     1      23.294   0.151  53.437  1.00  0.00     0.003 C 
HETATM    9  C11 UNL     1      24.724   0.103  53.555  1.00  0.00     0.194 C 
HETATM   10  N1  UNL     1      25.475  -0.717  54.389  1.00  0.00    -0.282 N 
HETATM   11  N2  UNL     1      26.816  -0.478  54.748  1.00  0.00     0.015 NA
HETATM   12  C12 UNL     1      27.302   0.741  54.616  1.00  0.00     0.738 C 
HETATM   13  N4  UNL     1      26.538   1.807  53.971  1.00  0.00    -0.046 NA
HETATM   14  C13 UNL     1      25.387   1.446  53.530  1.00  0.00     0.152 C 
HETATM   15  N5  UNL     1      25.254   2.875  53.180  1.00  0.00    -0.340 N 
HETATM   16  H14 UNL     1      24.873  -1.503  54.680  1.00  0.00     0.184 HD
HETATM   17  H17 UNL     1      25.379   3.851  53.477  1.00  0.00     0.167 HD
ENDROOT
BRANCH  12  18
HETATM   18  N3  UNL     1      28.682   0.776  55.052  1.00  0.00    -0.230 N 
HETATM   19  H15 UNL     1      28.962   1.792  55.067  1.00  0.00     0.174 HD
HETATM   20  H16 UNL     1      29.077  -0.171  55.246  1.00  0.00     0.174 HD
ENDBRANCH  12  18
BRANCH   4  21
HETATM   21  O2  UNL     1      22.493   4.233  52.744  1.00  0.00    -0.357 OA
HETATM   22  C6  UNL     1      21.154   4.321  52.362  1.00  0.00     0.209 C 
ENDBRANCH   4  21
BRANCH   1  23
HETATM   23  O1  UNL     1      24.188   4.281  48.712  1.00  0.00    -0.359 OA
HETATM   24  C1  UNL     1      24.135   5.689  48.651  1.00  0.00     0.209 C 
ENDBRANCH   1  23
TORSDOF 3
ENDMDL
MODEL 4
REMARK VINA RESULT:      -6.7      2.835      3.911
REMARK  3 active torsions:
REMARK  status: ('A' for Active; 'I' for Inactive)
REMARK    1  A    between atoms: O1_2  and  C2_3 
REMARK    2  A    between atoms: C5_6  and  O2_7 
REMARK    3  A    between atoms: C12_16  and  N3_17 
ROOT
HETATM    1  C2  UNL     1      20.339   2.759  52.057  1.00  0.00     0.059 C 
HETATM    2  C3  UNL     1      20.816   1.980  53.055  1.00  0.00     0.065 C 
HETATM    3  C4  UNL     1      21.640   0.972  52.411  1.00  0.00     0.066 C 
HETATM    4  C5  UNL     1      21.585   1.192  51.053  1.00  0.00     0.083 C 
HETATM    5  C7  UNL     1      21.578   2.681  51.166  1.00  0.00     0.105 C 
HETATM    6  C8  UNL     1      22.851   3.041  51.887  1.00  0.00     0.045 C 
HETATM    7  C9  UNL     1      24.103   2.512  51.302  1.00  0.00    -0.027 C 
HETATM    8  C10 UNL     1      25.199   1.700  51.578  1.00  0.00     0.003 C 
HETATM    9  C11 UNL     1      25.126   1.156  52.904  1.00  0.00     0.194 C 
HETATM   10  N1  UNL     1      26.168   0.630  53.659  1.00  0.00    -0.282 N 
HETATM   11  N2  UNL     1      25.999  -0.220  54.770  1.00  0.00     0.015 NA
HETATM   12  C12 UNL     1      24.857  -0.865  54.910  1.00  0.00     0.738 C 
HETATM   13  N4  UNL     1      23.716  -0.607  54.033  1.00  0.00    -0.046 NA
HETATM   14  C13 UNL     1      23.917   0.306  53.151  1.00  0.00     0.152 C 
HETATM   15  N5  UNL     1      22.560  -0.061  52.700  1.00  0.00    -0.340 N 
HETATM   16  H14 UNL     1      27.052   0.974  53.255  1.00  0.00     0.184 HD
HETATM   17  H17 UNL     1      21.898  -0.816  52.479  1.00  0.00     0.167 HD
ENDROOT
BRANCH  12  18
HETATM   18  N3  UNL     1      24.895  -1.691  56.098  1.00  0.00    -0.230 N 
HETATM   19  H15 UNL     1      23.895  -1.941  56.316  1.00  0.00     0.174 HD
HETATM   20  H16 UNL     1      25.862  -1.849  56.459  1.00  0.00     0.174 HD
ENDBRANCH  12  18
BRANCH   4  21
HETATM   21  O2  UNL     1      21.540   0.546  49.827  1.00  0.00    -0.357 OA
HETATM   22  C6  UNL     1      21.621   1.252  48.627  1.00  0.00     0.209 C 
ENDBRANCH   4  21
BRANCH   1  23
HETATM   23  O1  UNL     1      19.084   3.227  52.260  1.00  0.00    -0.359 OA
HETATM   24  C1  UNL     1      18.246   3.796  51.279  1.00  0.00     0.209 C 
ENDBRANCH   1  23
TORSDOF 3
ENDMDL
MODEL 5
REMARK VINA RESULT:      -6.6      4.100      6.284
REMARK  3 active torsions:
REMARK  status: ('A' for Active; 'I' for Inactive)
REMARK    1  A    between atoms: O1_2  and  C2_3 
REMARK    2  A    between atoms: C5_6  and  O2_7 
REMARK    3  A    between atoms: C12_16  and  N3_17 
ROOT
HETATM    1  C2  UNL     1      24.769   1.044  52.268  1.00  0.00     0.059 C 
HETATM    2  C3  UNL     1      25.584   2.017  51.801  1.00  0.00     0.065 C 
HETATM    3  C4  UNL     1      24.822   2.717  50.782  1.00  0.00     0.066 C 
HETATM    4  C5  UNL     1      23.595   2.099  50.679  1.00  0.00     0.083 C 
HETATM    5  C7  UNL     1      23.466   1.832  52.143  1.00  0.00     0.105 C 
HETATM    6  C8  UNL     1      23.522   3.181  52.811  1.00  0.00     0.045 C 
HETATM    7  C9  UNL     1      22.557   4.191  52.321  1.00  0.00    -0.027 C 
HETATM    8  C10 UNL     1      22.473   5.450  51.733  1.00  0.00     0.003 C 
HETATM    9  C11 UNL     1      23.775   6.006  51.498  1.00  0.00     0.194 C 
HETATM   10  N1  UNL     1      24.098   7.342  51.290  1.00  0.00    -0.282 N 
HETATM   11  N2  UNL     1      25.296   7.792  50.699  1.00  0.00     0.015 NA
HETATM   12  C12 UNL     1      26.000   6.950  49.969  1.00  0.00     0.738 C 
HETATM   13  N4  UNL     1      25.652   5.533  49.878  1.00  0.00    -0.046 NA
HETATM   14  C13 UNL     1      24.636   5.187  50.585  1.00  0.00     0.152 C 
HETATM   15  N5  UNL     1      24.857   3.867  49.962  1.00  0.00    -0.340 N 
HETATM   16  H14 UNL     1      23.313   7.912  51.640  1.00  0.00     0.184 HD
HETATM   17  H17 UNL     1      25.055   3.341  49.102  1.00  0.00     0.167 HD
ENDROOT
BRANCH  12  18
HETATM   18  N3  UNL     1      27.176   7.611  49.444  1.00  0.00    -0.230 N 
HETATM   19  H15 UNL     1      27.657   8.058  50.268  1.00  0.00     0.174 HD
HETATM   20  H16 UNL     1      27.283   7.503  48.410  1.00  0.00     0.174 HD
ENDBRANCH  12  18
BRANCH   4  21
HETATM   21  O2  UNL     1      22.619   1.719  49.772  1.00  0.00    -0.357 OA
HETATM   22  C6  UNL     1      21.540   0.921  50.152  1.00  0.00     0.209 C 
ENDBRANCH   4  21
BRANCH   1  23
HETATM   23  O1  UNL     1      25.402  -0.103  52.613  1.00  0.00    -0.359 OA
HETATM   24  C1  UNL     1      26.716  -0.463  52.249  1.00  0.00     0.209 C 
ENDBRANCH   1  23
TORSDOF 3
ENDMDL
MODEL 6
REMARK VINA RESULT:      -6.5      3.123      5.149
REMARK  3 active torsions:
REMARK  status: ('A' for Active; 'I' for Inactive)
REMARK    1  A    between atoms: O1_2  and  C2_3 
REMARK    2  A    between atoms: C5_6  and  O2_7 
REMARK    3  A    between atoms: C12_16  and  N3_17 
ROOT
HETATM    1  C2  UNL     1      21.315   2.372  49.325  1.00  0.00     0.059 C 
HETATM    2  C3  UNL     1      22.543   2.643  49.823  1.00  0.00     0.065 C 
HETATM    3  C4  UNL     1      22.370   2.769  51.259  1.00  0.00     0.066 C 
HETATM    4  C5  UNL     1      21.033   2.591  51.537  1.00  0.00     0.083 C 
HETATM    5  C7  UNL     1      20.831   1.530  50.505  1.00  0.00     0.105 C 
HETATM    6  C8  UNL     1      21.780   0.419  50.871  1.00  0.00     0.045 C 
HETATM    7  C9  UNL     1      21.680  -0.094  52.255  1.00  0.00    -0.027 C 
HETATM    8  C10 UNL     1      22.405  -0.259  53.432  1.00  0.00     0.003 C 
HETATM    9  C11 UNL     1      23.743   0.240  53.296  1.00  0.00     0.194 C 
HETATM   10  N1  UNL     1      24.845  -0.072  54.084  1.00  0.00    -0.282 N 
HETATM   11  N2  UNL     1      26.019   0.704  54.160  1.00  0.00     0.015 NA
HETATM   12  C12 UNL     1      25.972   1.966  53.778  1.00  0.00     0.738 C 
HETATM   13  N4  UNL     1      24.784   2.535  53.144  1.00  0.00    -0.046 NA
HETATM   14  C13 UNL     1      23.822   1.701  52.970  1.00  0.00     0.152 C 
HETATM   15  N5  UNL     1      23.104   2.886  52.461  1.00  0.00    -0.340 N 
HETATM   16  H14 UNL     1      24.635  -0.950  54.582  1.00  0.00     0.184 HD
HETATM   17  H17 UNL     1      22.872   3.879  52.595  1.00  0.00     0.167 HD
ENDROOT
BRANCH  12  18
HETATM   18  N3  UNL     1      27.270   2.585  53.950  1.00  0.00    -0.230 N 
HETATM   19  H15 UNL     1      27.321   3.366  53.244  1.00  0.00     0.174 HD
HETATM   20  H16 UNL     1      27.842   2.140  54.702  1.00  0.00     0.174 HD
ENDBRANCH  12  18
BRANCH   4  21
HETATM   21  O2  UNL     1      20.001   3.033  52.350  1.00  0.00    -0.357 OA
HETATM   22  C6  UNL     1      18.776   3.438  51.821  1.00  0.00     0.209 C 
ENDBRANCH   4  21
BRANCH   1  23
HETATM   23  O1  UNL     1      21.068   2.914  48.109  1.00  0.00    -0.359 OA
HETATM   24  C1  UNL     1      21.153   4.283  47.782  1.00  0.00     0.209 C 
ENDBRANCH   1  23
TORSDOF 3
ENDMDL
MODEL 7
REMARK VINA RESULT:      -6.4      2.825      3.677
REMARK  3 active torsions:
REMARK  status: ('A' for Active; 'I' for Inactive)
REMARK    1  A    between atoms: O1_2  and  C2_3 
REMARK    2  A    between atoms: C5_6  and  O2_7 
REMARK    3  A    between atoms: C12_16  and  N3_17 
ROOT
HETATM    1  C2  UNL     1      23.140   4.381  51.552  1.00  0.00     0.059 C 
HETATM    2  C3  UNL     1      22.951   3.534  52.590  1.00  0.00     0.065 C 
HETATM    3  C4  UNL     1      23.081   2.196  52.039  1.00  0.00     0.066 C 
HETATM    4  C5  UNL     1      23.315   2.322  50.688  1.00  0.00     0.083 C 
HETATM    5  C7  UNL     1      24.180   3.532  50.822  1.00  0.00     0.105 C 
HETATM    6  C8  UNL     1      25.331   3.116  51.701  1.00  0.00     0.045 C 
HETATM    7  C9  UNL     1      26.080   1.916  51.268  1.00  0.00    -0.027 C 
HETATM    8  C10 UNL     1      26.443   0.633  51.666  1.00  0.00     0.003 C 
HETATM    9  C11 UNL     1      25.918   0.319  52.964  1.00  0.00     0.194 C 
HETATM   10  N1  UNL     1      26.355  -0.671  53.835  1.00  0.00    -0.282 N 
HETATM   11  N2  UNL     1      25.596  -1.188  54.904  1.00  0.00     0.015 NA
HETATM   12  C12 UNL     1      24.287  -1.025  54.891  1.00  0.00     0.738 C 
HETATM   13  N4  UNL     1      23.625  -0.200  53.883  1.00  0.00    -0.046 NA
HETATM   14  C13 UNL     1      24.422   0.363  53.047  1.00  0.00     0.152 C 
HETATM   15  N5  UNL     1      23.171   0.840  52.424  1.00  0.00    -0.340 N 
HETATM   16  H14 UNL     1      27.309  -0.940  53.550  1.00  0.00     0.184 HD
HETATM   17  H17 UNL     1      22.220   0.609  52.112  1.00  0.00     0.167 HD
ENDROOT
BRANCH  12  18
HETATM   18  N3  UNL     1      23.698  -1.640  56.062  1.00  0.00    -0.230 N 
HETATM   19  H15 UNL     1      24.133  -2.596  56.144  1.00  0.00     0.174 HD
HETATM   20  H16 UNL     1      23.003  -1.027  56.544  1.00  0.00     0.174 HD
ENDBRANCH  12  18
BRANCH   4  21
HETATM   21  O2  UNL     1      23.030   1.753  49.456  1.00  0.00    -0.357 OA
HETATM   22  C6  UNL     1      21.732   1.383  49.105  1.00  0.00     0.209 C 
ENDBRANCH   4  21
BRANCH   1  23
HETATM   23  O1  UNL     1      22.394   5.510  51.605  1.00  0.00    -0.359 OA
HETATM   24  C1  UNL     1      21.248   5.781  50.829  1.00  0.00     0.209 C 
ENDBRANCH   1  23
TORSDOF 3
ENDMDL
MODEL 8
REMARK VINA RESULT:      -6.4      2.934      5.180
REMARK  3 active torsions:
REMARK  status: ('A' for Active; 'I' for Inactive)
REMARK    1  A    between atoms: O1_2  and  C2_3 
REMARK    2  A    between atoms: C5_6  and  O2_7 
REMARK    3  A    between atoms: C12_16  and  N3_17 
ROOT
HETATM    1  C2  UNL     1      25.844   4.357  49.330  1.00  0.00     0.059 C 
HETATM    2  C3  UNL     1      26.241   3.418  50.219  1.00  0.00     0.065 C 
HETATM    3  C4  UNL     1      25.349   3.547  51.358  1.00  0.00     0.066 C 
HETATM    4  C5  UNL     1      24.480   4.583  51.093  1.00  0.00     0.083 C 
HETATM    5  C7  UNL     1      24.350   4.268  49.639  1.00  0.00     0.105 C 
HETATM    6  C8  UNL     1      23.812   2.863  49.572  1.00  0.00     0.045 C 
HETATM    7  C9  UNL     1      22.570   2.604  50.332  1.00  0.00    -0.027 C 
HETATM    8  C10 UNL     1      22.042   1.830  51.362  1.00  0.00     0.003 C 
HETATM    9  C11 UNL     1      23.031   0.951  51.917  1.00  0.00     0.194 C 
HETATM   10  N1  UNL     1      22.814  -0.197  52.669  1.00  0.00    -0.282 N 
HETATM   11  N2  UNL     1      23.778  -0.805  53.496  1.00  0.00     0.015 NA
HETATM   12  C12 UNL     1      24.815  -0.093  53.893  1.00  0.00     0.738 C 
HETATM   13  N4  UNL     1      25.066   1.252  53.380  1.00  0.00    -0.046 NA
HETATM   14  C13 UNL     1      24.216   1.655  52.504  1.00  0.00     0.152 C 
HETATM   15  N5  UNL     1      24.992   2.910  52.567  1.00  0.00    -0.340 N 
HETATM   16  H14 UNL     1      21.841  -0.500  52.504  1.00  0.00     0.184 HD
HETATM   17  H17 UNL     1      25.451   3.612  53.161  1.00  0.00     0.167 HD
ENDROOT
BRANCH  12  18
HETATM   18  N3  UNL     1      25.672  -0.893  54.743  1.00  0.00    -0.230 N 
HETATM   19  H15 UNL     1      25.037  -1.380  55.429  1.00  0.00     0.174 HD
HETATM   20  H16 UNL     1      26.684  -0.814  54.499  1.00  0.00     0.174 HD
ENDBRANCH  12  18
BRANCH   4  21
HETATM   21  O2  UNL     1      23.811   5.645  51.680  1.00  0.00    -0.357 OA
HETATM   22  C6  UNL     1      22.578   6.085  51.201  1.00  0.00     0.209 C 
ENDBRANCH   4  21
BRANCH   1  23
HETATM   23  O1  UNL     1      26.849   4.919  48.617  1.00  0.00    -0.359 OA
HETATM   24  C1  UNL     1      27.172   6.291  48.584  1.00  0.00     0.209 C 
ENDBRANCH   1  23
TORSDOF 3
ENDMDL
MODEL 9
REMARK VINA RESULT:      -6.3      3.706      5.257
REMARK  3 active torsions:
REMARK  status: ('A' for Active; 'I' for Inactive)
REMARK    1  A    between atoms: O1_2  and  C2_3 
REMARK    2  A    between atoms: C5_6  and  O2_7 
REMARK    3  A    between atoms: C12_16  and  N3_17 
ROOT
HETATM    1  C2  UNL     1      22.463   4.951  51.655  1.00  0.00     0.059 C 
HETATM    2  C3  UNL     1      21.581   4.048  52.140  1.00  0.00     0.065 C 
HETATM    3  C4  UNL     1      21.913   2.787  51.501  1.00  0.00     0.066 C 
HETATM    4  C5  UNL     1      22.965   3.017  50.643  1.00  0.00     0.083 C 
HETATM    5  C7  UNL     1      23.649   3.994  51.543  1.00  0.00     0.105 C 
HETATM    6  C8  UNL     1      23.931   3.245  52.819  1.00  0.00     0.045 C 
HETATM    7  C9  UNL     1      24.673   1.973  52.677  1.00  0.00    -0.027 C 
HETATM    8  C10 UNL     1      24.583   0.605  52.915  1.00  0.00     0.003 C 
HETATM    9  C11 UNL     1      23.324   0.260  53.513  1.00  0.00     0.194 C 
HETATM   10  N1  UNL     1      23.015  -0.896  54.221  1.00  0.00    -0.282 N 
HETATM   11  N2  UNL     1      21.706  -1.362  54.456  1.00  0.00     0.015 NA
HETATM   12  C12 UNL     1      20.728  -0.927  53.686  1.00  0.00     0.738 C 
HETATM   13  N4  UNL     1      20.938   0.132  52.700  1.00  0.00    -0.046 NA
HETATM   14  C13 UNL     1      22.132   0.607  52.675  1.00  0.00     0.152 C 
HETATM   15  N5  UNL     1      21.615   1.406  51.546  1.00  0.00    -0.340 N 
HETATM   16  H14 UNL     1      23.902  -1.324  54.524  1.00  0.00     0.184 HD
HETATM   17  H17 UNL     1      21.066   1.419  50.677  1.00  0.00     0.167 HD
ENDROOT
BRANCH  12  18
HETATM   18  N3  UNL     1      19.475  -1.536  54.082  1.00  0.00    -0.230 N 
HETATM   19  H15 UNL     1      19.296  -2.315  53.395  1.00  0.00     0.174 HD
HETATM   20  H16 UNL     1      19.046  -1.087  54.922  1.00  0.00     0.174 HD
ENDBRANCH  12  18
BRANCH   4  21
HETATM   21  O2  UNL     1      23.482   2.668  49.405  1.00  0.00    -0.357 OA
HETATM   22  C6  UNL     1      22.690   2.664  48.258  1.00  0.00     0.209 C 
ENDBRANCH   4  21
BRANCH   1  23
HETATM   23  O1  UNL     1      21.960   6.198  51.493  1.00  0.00    -0.359 OA
HETATM   24  C1  UNL     1      21.238   6.660  50.373  1.00  0.00     0.209 C 
ENDBRANCH   1  23
TORSDOF 3
ENDMDL
