MODEL 1
REMARK VINA RESULT:      -8.2      0.000      0.000
REMARK  5 active torsions:
REMARK  status: ('A' for Active; 'I' for Inactive)
REMARK    1  A    between atoms: C1_2  and  N1_3 
REMARK    2  A    between atoms: C1_2  and  N3_11 
REMARK    3  A    between atoms: N1_3  and  C2_4 
REMARK    4  A    between atoms: C13_20  and  N6_21 
REMARK    5  A    between atoms: N6_21  and  C14_22 
ROOT
HETATM    1  N3  UNL     1      25.760   1.258  52.421  1.00  0.00    -0.327 N 
HETATM    2  C7  UNL     1      26.750   0.388  51.788  1.00  0.00     0.096 C 
HETATM    3  C8  UNL     1      27.366   0.886  52.814  1.00  0.00     0.052 C 
HETATM    4  C9  UNL     1      27.873   1.544  53.979  1.00  0.00     0.017 C 
HETATM    5  C10 UNL     1      29.004   1.010  54.355  1.00  0.00     0.119 C 
HETATM    6  N4  UNL     1      29.542  -0.130  53.638  1.00  0.00    -0.242 NA
HETATM    7  C11 UNL     1      28.512  -1.076  53.415  1.00  0.00     0.297 C 
HETATM    8  N5  UNL     1      27.246  -0.854  53.823  1.00  0.00    -0.412 NA
HETATM    9  C12 UNL     1      26.126  -0.578  54.099  1.00  0.00     0.203 C 
HETATM   10  C13 UNL     1      25.157   0.443  53.532  1.00  0.00     0.240 C 
ENDROOT
BRANCH   1  11
HETATM   11  C1  UNL     1      25.257   2.569  52.191  1.00  0.00     0.177 C 
HETATM   12  S1  UNL     1      25.693   2.910  50.643  1.00  0.00    -0.041 SA
BRANCH  11  13
HETATM   13  N1  UNL     1      24.541   3.480  53.025  1.00  0.00    -0.317 N 
HETATM   14  H1  UNL     1      24.754   3.479  54.049  1.00  0.00     0.170 HD
BRANCH  13  15
HETATM   15  C2  UNL     1      23.605   4.297  52.342  1.00  0.00     0.135 A 
HETATM   16  C3  UNL     1      22.394   4.674  51.799  1.00  0.00     0.082 A 
HETATM   17  C4  UNL     1      21.028   4.944  51.262  1.00  0.00     0.228 C 
HETATM   18  N2  UNL     1      23.405   5.551  51.651  1.00  0.00    -0.328 N 
HETATM   19  O1  UNL     1      21.149   5.870  50.238  1.00  0.00    -0.384 OA
HETATM   20  C5  UNL     1      21.679   7.043  50.800  1.00  0.00     0.188 C 
HETATM   21  C6  UNL     1      23.162   6.798  50.954  1.00  0.00     0.157 C 
ENDBRANCH  13  15
ENDBRANCH  11  13
ENDBRANCH   1  11
BRANCH  10  22
HETATM   22  N6  UNL     1      24.036  -0.295  53.026  1.00  0.00    -0.363 N 
HETATM   23  H15 UNL     1      24.167  -1.336  52.894  1.00  0.00     0.162 HD
BRANCH  22  24
HETATM   24  C14 UNL     1      22.767   0.288  52.702  1.00  0.00     0.029 A 
HETATM   25  C15 UNL     1      21.856   0.546  53.742  1.00  0.00     0.031 A 
HETATM   26  C16 UNL     1      20.628   1.115  53.360  1.00  0.00     0.026 A 
HETATM   27  C17 UNL     1      20.309   1.414  52.054  1.00  0.00     0.034 A 
HETATM   28 CL1  UNL     1      18.714   2.122  51.770  1.00  0.00    -0.084 Cl
HETATM   29  C18 UNL     1      21.179   1.169  51.039  1.00  0.00     0.026 A 
HETATM   30  C19 UNL     1      22.395   0.606  51.417  1.00  0.00     0.031 A 
ENDBRANCH  22  24
ENDBRANCH  10  22
TORSDOF 5
ENDMDL
MODEL 2
REMARK VINA RESULT:      -7.9      3.297      5.993
REMARK  5 active torsions:
REMARK  status: ('A' for Active; 'I' for Inactive)
REMARK    1  A    between atoms: C1_2  and  N1_3 
REMARK    2  A    between atoms: C1_2  and  N3_11 
REMARK    3  A    between atoms: N1_3  and  C2_4 
REMARK    4  A    between atoms: C13_20  and  N6_21 
REMARK    5  A    between atoms: N6_21  and  C14_22 
ROOT
HETATM    1  N3  UNL     1      22.961   1.220  52.786  1.00  0.00    -0.327 N 
HETATM    2  C7  UNL     1      21.783   1.427  53.626  1.00  0.00     0.096 C 
HETATM    3  C8  UNL     1      21.306   0.981  52.506  1.00  0.00     0.052 C 
HETATM    4  C9  UNL     1      20.977   0.493  51.202  1.00  0.00     0.017 C 
HETATM    5  C10 UNL     1      19.734   0.093  51.160  1.00  0.00     0.119 C 
HETATM    6  N4  UNL     1      18.917   0.137  52.357  1.00  0.00    -0.242 NA
HETATM    7  C11 UNL     1      19.649  -0.392  53.448  1.00  0.00     0.297 C 
HETATM    8  N5  UNL     1      20.918  -0.827  53.305  1.00  0.00    -0.412 NA
HETATM    9  C12 UNL     1      22.064  -1.098  53.166  1.00  0.00     0.203 C 
HETATM   10  C13 UNL     1      23.290  -0.242  52.904  1.00  0.00     0.240 C 
ENDROOT
BRANCH   1  11
HETATM   11  C1  UNL     1      23.813   2.046  52.000  1.00  0.00     0.177 C 
HETATM   12  S1  UNL     1      24.351   3.193  53.048  1.00  0.00    -0.041 SA
BRANCH  11  13
HETATM   13  N1  UNL     1      24.183   2.003  50.622  1.00  0.00    -0.317 N 
HETATM   14  H1  UNL     1      24.088   1.092  50.116  1.00  0.00     0.170 HD
BRANCH  13  15
HETATM   15  C2  UNL     1      24.645   3.235  50.095  1.00  0.00     0.135 A 
HETATM   16  C3  UNL     1      24.591   4.553  49.692  1.00  0.00     0.082 A 
HETATM   17  C4  UNL     1      24.382   5.978  49.299  1.00  0.00     0.228 C 
HETATM   18  N2  UNL     1      25.779   3.937  49.535  1.00  0.00    -0.328 N 
HETATM   19  O1  UNL     1      25.341   6.303  48.353  1.00  0.00    -0.384 OA
HETATM   20  C5  UNL     1      26.595   6.160  48.966  1.00  0.00     0.188 C 
HETATM   21  C6  UNL     1      26.890   4.678  48.972  1.00  0.00     0.157 C 
ENDBRANCH  13  15
ENDBRANCH  11  13
ENDBRANCH   1  11
BRANCH  10  22
HETATM   22  N6  UNL     1      24.173  -0.443  54.016  1.00  0.00    -0.363 N 
HETATM   23  H15 UNL     1      23.727  -0.595  54.963  1.00  0.00     0.162 HD
BRANCH  22  24
HETATM   24  C14 UNL     1      25.603  -0.456  53.918  1.00  0.00     0.029 A 
HETATM   25  C15 UNL     1      26.202  -1.160  52.857  1.00  0.00     0.031 A 
HETATM   26  C16 UNL     1      27.608  -1.138  52.817  1.00  0.00     0.026 A 
HETATM   27  C17 UNL     1      28.379  -0.474  53.745  1.00  0.00     0.034 A 
HETATM   28 CL1  UNL     1      30.131  -0.565  53.530  1.00  0.00    -0.084 Cl
HETATM   29  C18 UNL     1      27.813   0.209  54.776  1.00  0.00     0.026 A 
HETATM   30  C19 UNL     1      26.422   0.187  54.816  1.00  0.00     0.031 A 
ENDBRANCH  22  24
ENDBRANCH  10  22
TORSDOF 5
ENDMDL
MODEL 3
REMARK VINA RESULT:      -7.9      0.609      1.336
REMARK  5 active torsions:
REMARK  status: ('A' for Active; 'I' for Inactive)
REMARK    1  A    between atoms: C1_2  and  N1_3 
REMARK    2  A    between atoms: C1_2  and  N3_11 
REMARK    3  A    between atoms: N1_3  and  C2_4 
REMARK    4  A    between atoms: C13_20  and  N6_21 
REMARK    5  A    between atoms: N6_21  and  C14_22 
ROOT
HETATM    1  N3  UNL     1      25.645   1.375  52.392  1.00  0.00    -0.327 N 
HETATM    2  C7  UNL     1      26.674   0.530  51.786  1.00  0.00     0.096 C 
HETATM    3  C8  UNL     1      27.277   1.118  52.772  1.00  0.00     0.052 C 
HETATM    4  C9  UNL     1      27.764   1.866  53.891  1.00  0.00     0.017 C 
HETATM    5  C10 UNL     1      28.931   1.419  54.271  1.00  0.00     0.119 C 
HETATM    6  N4  UNL     1      29.523   0.276  53.604  1.00  0.00    -0.242 NA
HETATM    7  C11 UNL     1      28.547  -0.739  53.452  1.00  0.00     0.297 C 
HETATM    8  N5  UNL     1      27.277  -0.570  53.873  1.00  0.00    -0.412 NA
HETATM    9  C12 UNL     1      26.148  -0.344  54.157  1.00  0.00     0.203 C 
HETATM   10  C13 UNL     1      25.111   0.586  53.556  1.00  0.00     0.240 C 
ENDROOT
BRANCH   1  11
HETATM   11  C1  UNL     1      25.061   2.640  52.104  1.00  0.00     0.177 C 
HETATM   12  S1  UNL     1      25.376   2.882  50.508  1.00  0.00    -0.041 SA
BRANCH  11  13
HETATM   13  N1  UNL     1      24.357   3.577  52.918  1.00  0.00    -0.317 N 
HETATM   14  H1  UNL     1      24.385   3.445  53.955  1.00  0.00     0.170 HD
BRANCH  13  15
HETATM   15  C2  UNL     1      23.689   4.600  52.199  1.00  0.00     0.135 A 
HETATM   16  C3  UNL     1      23.530   5.790  51.520  1.00  0.00     0.082 A 
HETATM   17  C4  UNL     1      23.512   7.103  50.810  1.00  0.00     0.228 C 
HETATM   18  N2  UNL     1      22.423   5.034  51.651  1.00  0.00    -0.328 N 
HETATM   19  O1  UNL     1      22.209   7.576  50.827  1.00  0.00    -0.384 OA
HETATM   20  C5  UNL     1      21.422   6.649  50.127  1.00  0.00     0.188 C 
HETATM   21  C6  UNL     1      21.175   5.506  51.084  1.00  0.00     0.157 C 
ENDBRANCH  13  15
ENDBRANCH  11  13
ENDBRANCH   1  11
BRANCH  10  22
HETATM   22  N6  UNL     1      24.027  -0.241  53.113  1.00  0.00    -0.363 N 
HETATM   23  H15 UNL     1      24.221  -1.277  53.017  1.00  0.00     0.162 HD
BRANCH  22  24
HETATM   24  C14 UNL     1      22.715   0.245  52.804  1.00  0.00     0.029 A 
HETATM   25  C15 UNL     1      22.382   0.484  51.458  1.00  0.00     0.031 A 
HETATM   26  C16 UNL     1      21.082   0.964  51.219  1.00  0.00     0.026 A 
HETATM   27  C17 UNL     1      20.166   1.194  52.222  1.00  0.00     0.034 A 
HETATM   28 CL1  UNL     1      18.582   1.802  51.725  1.00  0.00    -0.084 Cl
HETATM   29  C18 UNL     1      20.475   0.968  53.527  1.00  0.00     0.026 A 
HETATM   30  C19 UNL     1      21.762   0.494  53.763  1.00  0.00     0.031 A 
ENDBRANCH  22  24
ENDBRANCH  10  22
TORSDOF 5
ENDMDL
MODEL 4
REMARK VINA RESULT:      -7.9      1.923      2.206
REMARK  5 active torsions:
REMARK  status: ('A' for Active; 'I' for Inactive)
REMARK    1  A    between atoms: C1_2  and  N1_3 
REMARK    2  A    between atoms: C1_2  and  N3_11 
REMARK    3  A    between atoms: N1_3  and  C2_4 
REMARK    4  A    between atoms: C13_20  and  N6_21 
REMARK    5  A    between atoms: N6_21  and  C14_22 
ROOT
HETATM    1  N3  UNL     1      25.623   1.090  52.258  1.00  0.00    -0.327 N 
HETATM    2  C7  UNL     1      26.712   0.203  51.852  1.00  0.00     0.096 C 
HETATM    3  C8  UNL     1      27.263   1.032  52.683  1.00  0.00     0.052 C 
HETATM    4  C9  UNL     1      27.685   2.039  53.609  1.00  0.00     0.017 C 
HETATM    5  C10 UNL     1      28.873   1.766  54.077  1.00  0.00     0.119 C 
HETATM    6  N4  UNL     1      29.547   0.546  53.678  1.00  0.00    -0.242 NA
HETATM    7  C11 UNL     1      28.642  -0.541  53.754  1.00  0.00     0.297 C 
HETATM    8  N5  UNL     1      27.358  -0.368  54.130  1.00  0.00    -0.412 NA
HETATM    9  C12 UNL     1      26.213  -0.161  54.358  1.00  0.00     0.203 C 
HETATM   10  C13 UNL     1      25.126   0.543  53.568  1.00  0.00     0.240 C 
ENDROOT
BRANCH   1  11
HETATM   11  C1  UNL     1      24.962   2.219  51.699  1.00  0.00     0.177 C 
HETATM   12  S1  UNL     1      24.336   3.011  52.997  1.00  0.00    -0.041 SA
BRANCH  11  13
HETATM   13  N1  UNL     1      24.798   2.662  50.352  1.00  0.00    -0.317 N 
HETATM   14  H1  UNL     1      24.474   1.966  49.642  1.00  0.00     0.170 HD
BRANCH  13  15
HETATM   15  C2  UNL     1      25.101   4.030  50.139  1.00  0.00     0.135 A 
HETATM   16  C3  UNL     1      25.021   5.398  50.303  1.00  0.00     0.082 A 
HETATM   17  C4  UNL     1      24.824   6.850  50.589  1.00  0.00     0.228 C 
HETATM   18  N2  UNL     1      25.912   4.965  49.391  1.00  0.00    -0.328 N 
HETATM   19  O1  UNL     1      25.256   7.563  49.481  1.00  0.00    -0.384 OA
HETATM   20  C5  UNL     1      26.624   7.293  49.321  1.00  0.00     0.188 C 
HETATM   21  C6  UNL     1      26.707   5.935  48.664  1.00  0.00     0.157 C 
ENDBRANCH  13  15
ENDBRANCH  11  13
ENDBRANCH   1  11
BRANCH  10  22
HETATM   22  N6  UNL     1      24.104  -0.432  53.320  1.00  0.00    -0.363 N 
HETATM   23  H15 UNL     1      24.383  -1.450  53.393  1.00  0.00     0.162 HD
BRANCH  22  24
HETATM   24  C14 UNL     1      22.746  -0.112  52.989  1.00  0.00     0.029 A 
HETATM   25  C15 UNL     1      21.830   0.110  54.034  1.00  0.00     0.031 A 
HETATM   26  C16 UNL     1      20.514   0.416  53.646  1.00  0.00     0.026 A 
HETATM   27  C17 UNL     1      20.116   0.504  52.330  1.00  0.00     0.034 A 
HETATM   28 CL1  UNL     1      18.417   0.896  52.041  1.00  0.00    -0.084 Cl
HETATM   29  C18 UNL     1      20.990   0.292  51.311  1.00  0.00     0.026 A 
HETATM   30  C19 UNL     1      22.293  -0.013  51.695  1.00  0.00     0.031 A 
ENDBRANCH  22  24
ENDBRANCH  10  22
TORSDOF 5
ENDMDL
MODEL 5
REMARK VINA RESULT:      -7.7      3.966      7.618
REMARK  5 active torsions:
REMARK  status: ('A' for Active; 'I' for Inactive)
REMARK    1  A    between atoms: C1_2  and  N1_3 
REMARK    2  A    between atoms: C1_2  and  N3_11 
REMARK    3  A    between atoms: N1_3  and  C2_4 
REMARK    4  A    between atoms: C13_20  and  N6_21 
REMARK    5  A    between atoms: N6_21  and  C14_22 
ROOT
HETATM    1  N3  UNL     1      23.067   1.793  51.513  1.00  0.00    -0.327 N 
HETATM    2  C7  UNL     1      22.067   1.086  50.715  1.00  0.00     0.096 C 
HETATM    3  C8  UNL     1      21.378   1.912  51.438  1.00  0.00     0.052 C 
HETATM    4  C9  UNL     1      20.799   2.877  52.323  1.00  0.00     0.017 C 
HETATM    5  C10 UNL     1      19.547   3.088  52.018  1.00  0.00     0.119 C 
HETATM    6  N4  UNL     1      18.954   2.416  50.878  1.00  0.00    -0.242 NA
HETATM    7  C11 UNL     1      19.832   2.503  49.770  1.00  0.00     0.297 C 
HETATM    8  N5  UNL     1      21.029   3.117  49.862  1.00  0.00    -0.412 NA
HETATM    9  C12 UNL     1      22.115   3.568  50.009  1.00  0.00     0.203 C 
HETATM   10  C13 UNL     1      23.326   3.083  50.786  1.00  0.00     0.240 C 
ENDROOT
BRANCH   1  11
HETATM   11  C1  UNL     1      23.817   1.515  52.691  1.00  0.00     0.177 C 
HETATM   12  S1  UNL     1      24.516   2.952  53.079  1.00  0.00    -0.041 SA
BRANCH  11  13
HETATM   13  N1  UNL     1      24.008   0.318  53.444  1.00  0.00    -0.317 N 
HETATM   14  H1  UNL     1      23.175  -0.104  53.915  1.00  0.00     0.170 HD
BRANCH  13  15
HETATM   15  C2  UNL     1      25.340  -0.165  53.459  1.00  0.00     0.135 A 
HETATM   16  C3  UNL     1      26.420  -0.948  53.108  1.00  0.00     0.082 A 
HETATM   17  C4  UNL     1      27.492  -1.869  52.627  1.00  0.00     0.228 C 
HETATM   18  N2  UNL     1      26.650  -0.019  54.055  1.00  0.00    -0.328 N 
HETATM   19  O1  UNL     1      28.460  -1.947  53.617  1.00  0.00    -0.384 OA
HETATM   20  C5  UNL     1      28.985  -0.657  53.787  1.00  0.00     0.188 C 
HETATM   21  C6  UNL     1      27.978   0.096  54.625  1.00  0.00     0.157 C 
ENDBRANCH  13  15
ENDBRANCH  11  13
ENDBRANCH   1  11
BRANCH  10  22
HETATM   22  N6  UNL     1      24.375   2.889  49.829  1.00  0.00    -0.363 N 
HETATM   23  H15 UNL     1      24.471   1.921  49.411  1.00  0.00     0.162 HD
BRANCH  22  24
HETATM   24  C14 UNL     1      25.283   3.915  49.407  1.00  0.00     0.029 A 
HETATM   25  C15 UNL     1      26.653   3.608  49.311  1.00  0.00     0.031 A 
HETATM   26  C16 UNL     1      27.493   4.657  48.896  1.00  0.00     0.026 A 
HETATM   27  C17 UNL     1      27.031   5.918  48.593  1.00  0.00     0.034 A 
HETATM   28 CL1  UNL     1      28.241   7.106  48.092  1.00  0.00    -0.084 Cl
HETATM   29  C18 UNL     1      25.710   6.229  48.682  1.00  0.00     0.026 A 
HETATM   30  C19 UNL     1      24.879   5.191  49.094  1.00  0.00     0.031 A 
ENDBRANCH  22  24
ENDBRANCH  10  22
TORSDOF 5
ENDMDL
MODEL 6
REMARK VINA RESULT:      -7.6      3.033      6.261
REMARK  5 active torsions:
REMARK  status: ('A' for Active; 'I' for Inactive)
REMARK    1  A    between atoms: C1_2  and  N1_3 
REMARK    2  A    between atoms: C1_2  and  N3_11 
REMARK    3  A    between atoms: N1_3  and  C2_4 
REMARK    4  A    between atoms: C13_20  and  N6_21 
REMARK    5  A    between atoms: N6_21  and  C14_22 
ROOT
HETATM    1  N3  UNL     1      24.264   4.112  50.812  1.00  0.00    -0.327 N 
HETATM    2  C7  UNL     1      24.336   5.568  50.932  1.00  0.00     0.096 C 
HETATM    3  C8  UNL     1      25.307   5.261  50.129  1.00  0.00     0.052 C 
HETATM    4  C9  UNL     1      26.323   4.725  49.275  1.00  0.00     0.017 C 
HETATM    5  C10 UNL     1      26.903   5.678  48.596  1.00  0.00     0.119 C 
HETATM    6  N4  UNL     1      26.451   7.048  48.735  1.00  0.00    -0.242 NA
HETATM    7  C11 UNL     1      25.036   7.087  48.674  1.00  0.00     0.297 C 
HETATM    8  N5  UNL     1      24.303   5.964  48.530  1.00  0.00    -0.412 NA
HETATM    9  C12 UNL     1      23.689   4.950  48.511  1.00  0.00     0.203 C 
HETATM   10  C13 UNL     1      23.503   3.851  49.541  1.00  0.00     0.240 C 
ENDROOT
BRANCH   1  11
HETATM   11  C1  UNL     1      24.674   3.000  51.599  1.00  0.00     0.177 C 
HETATM   12  S1  UNL     1      24.145   3.354  53.115  1.00  0.00    -0.041 SA
BRANCH  11  13
HETATM   13  N1  UNL     1      25.388   1.808  51.273  1.00  0.00    -0.317 N 
HETATM   14  H1  UNL     1      25.070   1.256  50.444  1.00  0.00     0.170 HD
BRANCH  13  15
HETATM   15  C2  UNL     1      26.473   1.514  52.136  1.00  0.00     0.135 A 
HETATM   16  C3  UNL     1      27.575   1.753  52.931  1.00  0.00     0.082 A 
HETATM   17  C4  UNL     1      28.751   2.163  53.754  1.00  0.00     0.228 C 
HETATM   18  N2  UNL     1      27.188   0.467  52.832  1.00  0.00    -0.328 N 
HETATM   19  O1  UNL     1      29.576   1.058  53.896  1.00  0.00    -0.384 OA
HETATM   20  C5  UNL     1      28.841   0.076  54.577  1.00  0.00     0.188 C 
HETATM   21  C6  UNL     1      27.930  -0.552  53.548  1.00  0.00     0.157 C 
ENDBRANCH  13  15
ENDBRANCH  11  13
ENDBRANCH   1  11
BRANCH  10  22
HETATM   22  N6  UNL     1      22.099   3.796  49.830  1.00  0.00    -0.363 N 
HETATM   23  H15 UNL     1      21.499   4.582  49.453  1.00  0.00     0.162 HD
BRANCH  22  24
HETATM   24  C14 UNL     1      21.471   2.750  50.583  1.00  0.00     0.029 A 
HETATM   25  C15 UNL     1      20.647   3.099  51.669  1.00  0.00     0.031 A 
HETATM   26  C16 UNL     1      20.062   2.029  52.369  1.00  0.00     0.026 A 
HETATM   27  C17 UNL     1      20.264   0.708  52.034  1.00  0.00     0.034 A 
HETATM   28 CL1  UNL     1      19.446  -0.497  53.036  1.00  0.00    -0.084 Cl
HETATM   29  C18 UNL     1      21.058   0.356  50.988  1.00  0.00     0.026 A 
HETATM   30  C19 UNL     1      21.637   1.416  50.295  1.00  0.00     0.031 A 
ENDBRANCH  22  24
ENDBRANCH  10  22
TORSDOF 5
ENDMDL
MODEL 7
REMARK VINA RESULT:      -7.6      4.167      6.613
REMARK  5 active torsions:
REMARK  status: ('A' for Active; 'I' for Inactive)
REMARK    1  A    between atoms: C1_2  and  N1_3 
REMARK    2  A    between atoms: C1_2  and  N3_11 
REMARK    3  A    between atoms: N1_3  and  C2_4 
REMARK    4  A    between atoms: C13_20  and  N6_21 
REMARK    5  A    between atoms: N6_21  and  C14_22 
ROOT
HETATM    1  N3  UNL     1      24.134   3.806  51.451  1.00  0.00    -0.327 N 
HETATM    2  C7  UNL     1      22.963   4.133  52.263  1.00  0.00     0.096 C 
HETATM    3  C8  UNL     1      22.496   3.394  51.306  1.00  0.00     0.052 C 
HETATM    4  C9  UNL     1      22.175   2.577  50.175  1.00  0.00     0.017 C 
HETATM    5  C10 UNL     1      20.966   2.096  50.283  1.00  0.00     0.119 C 
HETATM    6  N4  UNL     1      20.175   2.379  51.464  1.00  0.00    -0.242 NA
HETATM    7  C11 UNL     1      20.969   2.186  52.621  1.00  0.00     0.297 C 
HETATM    8  N5  UNL     1      22.263   1.817  52.538  1.00  0.00    -0.412 NA
HETATM    9  C12 UNL     1      23.423   1.598  52.423  1.00  0.00     0.203 C 
HETATM   10  C13 UNL     1      24.575   2.443  51.911  1.00  0.00     0.240 C 
ENDROOT
BRANCH   1  11
HETATM   11  C1  UNL     1      24.903   4.468  50.454  1.00  0.00     0.177 C 
HETATM   12  S1  UNL     1      24.549   6.061  50.654  1.00  0.00    -0.041 SA
BRANCH  11  13
HETATM   13  N1  UNL     1      25.796   3.980  49.453  1.00  0.00    -0.317 N 
HETATM   14  H1  UNL     1      25.720   2.974  49.175  1.00  0.00     0.170 HD
BRANCH  13  15
HETATM   15  C2  UNL     1      26.699   4.947  48.943  1.00  0.00     0.135 A 
HETATM   16  C3  UNL     1      27.130   6.168  48.468  1.00  0.00     0.082 A 
HETATM   17  C4  UNL     1      27.448   7.540  47.973  1.00  0.00     0.228 C 
HETATM   18  N2  UNL     1      28.063   5.200  48.537  1.00  0.00    -0.328 N 
HETATM   19  O1  UNL     1      28.580   7.452  47.178  1.00  0.00    -0.384 OA
HETATM   20  C5  UNL     1      29.624   6.988  47.993  1.00  0.00     0.188 C 
HETATM   21  C6  UNL     1      29.420   5.497  48.123  1.00  0.00     0.157 C 
ENDBRANCH  13  15
ENDBRANCH  11  13
ENDBRANCH   1  11
BRANCH  10  22
HETATM   22  N6  UNL     1      25.496   2.583  53.001  1.00  0.00    -0.363 N 
HETATM   23  H15 UNL     1      25.302   3.355  53.698  1.00  0.00     0.162 HD
BRANCH  22  24
HETATM   24  C14 UNL     1      26.642   1.746  53.201  1.00  0.00     0.029 A 
HETATM   25  C15 UNL     1      26.556   0.386  52.852  1.00  0.00     0.031 A 
HETATM   26  C16 UNL     1      27.712  -0.383  53.074  1.00  0.00     0.026 A 
HETATM   27  C17 UNL     1      28.874   0.136  53.600  1.00  0.00     0.034 A 
HETATM   28 CL1  UNL     1      30.221  -0.989  53.811  1.00  0.00    -0.084 Cl
HETATM   29  C18 UNL     1      28.971   1.449  53.943  1.00  0.00     0.026 A 
HETATM   30  C19 UNL     1      27.827   2.210  53.723  1.00  0.00     0.031 A 
ENDBRANCH  22  24
ENDBRANCH  10  22
TORSDOF 5
ENDMDL
MODEL 8
REMARK VINA RESULT:      -7.5      2.869      6.331
REMARK  5 active torsions:
REMARK  status: ('A' for Active; 'I' for Inactive)
REMARK    1  A    between atoms: C1_2  and  N1_3 
REMARK    2  A    between atoms: C1_2  and  N3_11 
REMARK    3  A    between atoms: N1_3  and  C2_4 
REMARK    4  A    between atoms: C13_20  and  N6_21 
REMARK    5  A    between atoms: N6_21  and  C14_22 
ROOT
HETATM    1  N3  UNL     1      23.372   3.510  52.190  1.00  0.00    -0.327 N 
HETATM    2  C7  UNL     1      23.201   4.962  52.145  1.00  0.00     0.096 C 
HETATM    3  C8  UNL     1      23.642   4.651  50.966  1.00  0.00     0.052 C 
HETATM    4  C9  UNL     1      24.141   4.115  49.737  1.00  0.00     0.017 C 
HETATM    5  C10 UNL     1      24.070   5.005  48.783  1.00  0.00     0.119 C 
HETATM    6  N4  UNL     1      23.492   6.307  49.048  1.00  0.00    -0.242 NA
HETATM    7  C11 UNL     1      22.284   6.150  49.770  1.00  0.00     0.297 C 
HETATM    8  N5  UNL     1      21.829   4.933  50.133  1.00  0.00    -0.412 NA
HETATM    9  C12 UNL     1      21.518   3.859  50.527  1.00  0.00     0.203 C 
HETATM   10  C13 UNL     1      22.128   2.938  51.568  1.00  0.00     0.240 C 
ENDROOT
BRANCH   1  11
HETATM   11  C1  UNL     1      24.349   2.612  52.702  1.00  0.00     0.177 C 
HETATM   12  S1  UNL     1      24.033   1.187  51.945  1.00  0.00    -0.041 SA
BRANCH  11  13
HETATM   13  N1  UNL     1      25.398   2.781  53.656  1.00  0.00    -0.317 N 
HETATM   14  H1  UNL     1      25.365   3.620  54.280  1.00  0.00     0.170 HD
BRANCH  13  15
HETATM   15  C2  UNL     1      26.382   1.760  53.639  1.00  0.00     0.135 A 
HETATM   16  C3  UNL     1      26.935   0.521  53.387  1.00  0.00     0.082 A 
HETATM   17  C4  UNL     1      27.394  -0.858  53.050  1.00  0.00     0.228 C 
HETATM   18  N2  UNL     1      27.735   1.409  54.007  1.00  0.00    -0.328 N 
HETATM   19  O1  UNL     1      28.446  -1.174  53.897  1.00  0.00    -0.384 OA
HETATM   20  C5  UNL     1      29.475  -0.255  53.641  1.00  0.00     0.188 C 
HETATM   21  C6  UNL     1      29.087   1.017  54.357  1.00  0.00     0.157 C 
ENDBRANCH  13  15
ENDBRANCH  11  13
ENDBRANCH   1  11
BRANCH  10  22
HETATM   22  N6  UNL     1      21.132   2.750  52.582  1.00  0.00    -0.363 N 
HETATM   23  H15 UNL     1      20.945   3.566  53.229  1.00  0.00     0.162 HD
BRANCH  22  24
HETATM   24  C14 UNL     1      20.381   1.542  52.761  1.00  0.00     0.029 A 
HETATM   25  C15 UNL     1      20.753   0.662  53.794  1.00  0.00     0.031 A 
HETATM   26  C16 UNL     1      19.981  -0.507  53.917  1.00  0.00     0.026 A 
HETATM   27  C17 UNL     1      18.917  -0.799  53.092  1.00  0.00     0.034 A 
HETATM   28 CL1  UNL     1      18.070  -2.320  53.400  1.00  0.00    -0.084 Cl
HETATM   29  C18 UNL     1      18.547   0.042  52.090  1.00  0.00     0.026 A 
HETATM   30  C19 UNL     1      19.312   1.199  51.968  1.00  0.00     0.031 A 
ENDBRANCH  22  24
ENDBRANCH  10  22
TORSDOF 5
ENDMDL
MODEL 9
REMARK VINA RESULT:      -7.4      2.446      4.043
REMARK  5 active torsions:
REMARK  status: ('A' for Active; 'I' for Inactive)
REMARK    1  A    between atoms: C1_2  and  N1_3 
REMARK    2  A    between atoms: C1_2  and  N3_11 
REMARK    3  A    between atoms: N1_3  and  C2_4 
REMARK    4  A    between atoms: C13_20  and  N6_21 
REMARK    5  A    between atoms: N6_21  and  C14_22 
ROOT
HETATM    1  N3  UNL     1      24.770   1.116  52.874  1.00  0.00    -0.327 N 
HETATM    2  C7  UNL     1      25.553   1.078  54.108  1.00  0.00     0.096 C 
HETATM    3  C8  UNL     1      26.047   0.125  53.381  1.00  0.00     0.052 C 
HETATM    4  C9  UNL     1      26.446  -0.879  52.442  1.00  0.00     0.017 C 
HETATM    5  C10 UNL     1      27.584  -1.414  52.795  1.00  0.00     0.119 C 
HETATM    6  N4  UNL     1      28.280  -0.929  53.970  1.00  0.00    -0.242 NA
HETATM    7  C11 UNL     1      28.296   0.487  53.960  1.00  0.00     0.297 C 
HETATM    8  N5  UNL     1      27.706   1.194  52.975  1.00  0.00    -0.412 NA
HETATM    9  C12 UNL     1      27.085   1.781  52.153  1.00  0.00     0.203 C 
HETATM   10  C13 UNL     1      25.594   1.908  51.897  1.00  0.00     0.240 C 
ENDROOT
BRANCH   1  11
HETATM   11  C1  UNL     1      23.489   0.654  52.462  1.00  0.00     0.177 C 
HETATM   12  S1  UNL     1      22.918  -0.180  53.759  1.00  0.00    -0.041 SA
BRANCH  11  13
HETATM   13  N1  UNL     1      22.765   0.800  51.240  1.00  0.00    -0.317 N 
HETATM   14  H1  UNL     1      23.171   0.375  50.375  1.00  0.00     0.170 HD
BRANCH  13  15
HETATM   15  C2  UNL     1      21.550   1.522  51.355  1.00  0.00     0.135 A 
HETATM   16  C3  UNL     1      20.720   2.619  51.458  1.00  0.00     0.082 A 
HETATM   17  C4  UNL     1      19.952   3.895  51.565  1.00  0.00     0.228 C 
HETATM   18  N2  UNL     1      20.112   1.418  51.456  1.00  0.00    -0.328 N 
HETATM   19  O1  UNL     1      18.732   3.607  52.157  1.00  0.00    -0.384 OA
HETATM   20  C5  UNL     1      18.058   2.717  51.306  1.00  0.00     0.188 C 
HETATM   21  C6  UNL     1      18.667   1.358  51.557  1.00  0.00     0.157 C 
ENDBRANCH  13  15
ENDBRANCH  11  13
ENDBRANCH   1  11
BRANCH  10  22
HETATM   22  N6  UNL     1      25.275   3.300  52.023  1.00  0.00    -0.363 N 
HETATM   23  H15 UNL     1      25.684   3.814  52.852  1.00  0.00     0.162 HD
BRANCH  22  24
HETATM   24  C14 UNL     1      24.452   4.026  51.100  1.00  0.00     0.029 A 
HETATM   25  C15 UNL     1      23.737   5.144  51.567  1.00  0.00     0.031 A 
HETATM   26  C16 UNL     1      22.945   5.811  50.615  1.00  0.00     0.026 A 
HETATM   27  C17 UNL     1      22.856   5.418  49.298  1.00  0.00     0.034 A 
HETATM   28 CL1  UNL     1      21.805   6.382  48.254  1.00  0.00    -0.084 Cl
HETATM   29  C18 UNL     1      23.541   4.339  48.834  1.00  0.00     0.026 A 
HETATM   30  C19 UNL     1      24.324   3.679  49.776  1.00  0.00     0.031 A 
ENDBRANCH  22  24
ENDBRANCH  10  22
TORSDOF 5
ENDMDL
