MODEL 1
REMARK VINA RESULT:      -8.8      0.000      0.000
REMARK  4 active torsions:
REMARK  status: ('A' for Active; 'I' for Inactive)
REMARK    1  A    between atoms: C1_2  and  C2_3 
REMARK       I    between atoms: C1_2  and  N1_10 
REMARK    2  A    between atoms: C2_3  and  O2_4 
REMARK    3  A    between atoms: O2_4  and  C3_5 
REMARK    4  A    between atoms: N1_10  and  C8_11 
ROOT
HETATM    1  C8  UNL     1      24.778   2.896  52.807  1.00  0.00     0.032 A 
HETATM    2  C9  UNL     1      23.931   1.825  52.447  1.00  0.00     0.035 A 
HETATM    3  C10 UNL     1      22.817   2.182  51.713  1.00  0.00    -0.040 A 
HETATM    4  C11 UNL     1      21.916   1.446  50.912  1.00  0.00     0.070 C 
HETATM    5  C12 UNL     1      22.566   2.015  49.763  1.00  0.00    -0.002 C 
HETATM    6 BR1  UNL     1      21.393   1.030  48.683  1.00  0.00    -0.055 Br
HETATM    7  C13 UNL     1      23.558   2.886  49.335  1.00  0.00     0.015 C 
HETATM    8  C14 UNL     1      24.180   4.113  49.388  1.00  0.00     0.001 C 
HETATM    9  C15 UNL     1      24.913   4.995  50.154  1.00  0.00    -0.003 C 
HETATM   10  C16 UNL     1      24.690   6.084  51.074  1.00  0.00    -0.014 C 
HETATM   11  C17 UNL     1      23.306   6.062  51.469  1.00  0.00     0.019 A 
HETATM   12  N2  UNL     1      22.345   5.120  51.293  1.00  0.00     0.000 N 
HETATM   13  C18 UNL     1      21.075   5.253  50.994  1.00  0.00     0.092 A 
HETATM   14  N3  UNL     1      21.404   3.958  51.119  1.00  0.00    -0.203 NA
HETATM   15  C19 UNL     1      22.650   3.472  51.430  1.00  0.00     0.098 A 
HETATM   16  C20 UNL     1      23.013   4.732  51.460  1.00  0.00     0.036 A 
HETATM   17  C21 UNL     1      24.169   4.116  52.255  1.00  0.00     0.017 A 
ENDROOT
BRANCH   1  18
HETATM   18  N1  UNL     1      25.913   2.663  53.528  1.00  0.00    -0.326 N 
HETATM   19  C1  UNL     1      27.132   2.471  52.841  1.00  0.00     0.246 C 
HETATM   20  O1  UNL     1      27.107   2.536  51.573  1.00  0.00    -0.271 OA
HETATM   21  H8  UNL     1      25.832   2.643  54.542  1.00  0.00     0.169 HD
BRANCH  19  22
HETATM   22  C2  UNL     1      28.403   2.199  53.538  1.00  0.00     0.278 C 
BRANCH  22  23
HETATM   23  O2  UNL     1      28.266   1.111  54.432  1.00  0.00    -0.342 OA
BRANCH  23  24
HETATM   24  C3  UNL     1      28.483  -0.193  53.921  1.00  0.00     0.065 A 
HETATM   25  C4  UNL     1      29.525  -1.024  53.846  1.00  0.00     0.014 A 
HETATM   26  C5  UNL     1      29.118  -2.286  53.177  1.00  0.00     0.057 A 
HETATM   27  C6  UNL     1      27.676  -2.047  52.881  1.00  0.00    -0.020 A 
HETATM   28  C7  UNL     1      27.315  -0.836  53.313  1.00  0.00     0.032 A 
ENDBRANCH  23  24
ENDBRANCH  22  23
ENDBRANCH  19  22
ENDBRANCH   1  18
TORSDOF 4
ENDMDL
MODEL 2
REMARK VINA RESULT:      -8.6      1.979      2.666
REMARK  4 active torsions:
REMARK  status: ('A' for Active; 'I' for Inactive)
REMARK    1  A    between atoms: C1_2  and  C2_3 
REMARK       I    between atoms: C1_2  and  N1_10 
REMARK    2  A    between atoms: C2_3  and  O2_4 
REMARK    3  A    between atoms: O2_4  and  C3_5 
REMARK    4  A    between atoms: N1_10  and  C8_11 
ROOT
HETATM    1  C8  UNL     1      23.750   1.514  52.250  1.00  0.00     0.032 A 
HETATM    2  C9  UNL     1      22.916   0.817  53.151  1.00  0.00     0.035 A 
HETATM    3  C10 UNL     1      21.579   1.156  53.093  1.00  0.00    -0.040 A 
HETATM    4  C11 UNL     1      20.405   0.525  53.560  1.00  0.00     0.070 C 
HETATM    5  C12 UNL     1      20.130   0.162  52.196  1.00  0.00    -0.002 C 
HETATM    6 BR1  UNL     1      18.578  -0.700  52.798  1.00  0.00    -0.055 Br
HETATM    7  C13 UNL     1      20.571   0.260  50.884  1.00  0.00     0.015 C 
HETATM    8  C14 UNL     1      21.028   1.014  49.827  1.00  0.00     0.001 C 
HETATM    9  C15 UNL     1      22.046   1.805  49.339  1.00  0.00    -0.003 C 
HETATM   10  C16 UNL     1      22.429   3.197  49.318  1.00  0.00    -0.014 C 
HETATM   11  C17 UNL     1      21.635   3.896  50.293  1.00  0.00     0.019 A 
HETATM   12  N2  UNL     1      20.828   3.433  51.282  1.00  0.00     0.000 N 
HETATM   13  C18 UNL     1      19.664   3.871  51.697  1.00  0.00     0.092 A 
HETATM   14  N3  UNL     1      20.048   2.792  52.397  1.00  0.00    -0.203 NA
HETATM   15  C19 UNL     1      21.216   2.093  52.219  1.00  0.00     0.098 A 
HETATM   16  C20 UNL     1      21.460   2.959  51.265  1.00  0.00     0.036 A 
HETATM   17  C21 UNL     1      22.880   2.430  51.496  1.00  0.00     0.017 A 
ENDROOT
BRANCH   1  18
HETATM   18  N1  UNL     1      25.090   1.257  52.212  1.00  0.00    -0.326 N 
HETATM   19  C1  UNL     1      25.954   2.016  53.032  1.00  0.00     0.246 C 
HETATM   20  O1  UNL     1      25.430   2.901  53.777  1.00  0.00    -0.271 OA
HETATM   21  H8  UNL     1      25.411   0.519  51.591  1.00  0.00     0.169 HD
BRANCH  19  22
HETATM   22  C2  UNL     1      27.416   1.817  53.043  1.00  0.00     0.278 C 
BRANCH  22  23
HETATM   23  O2  UNL     1      27.797   0.934  54.080  1.00  0.00    -0.342 OA
BRANCH  23  24
HETATM   24  C3  UNL     1      28.321  -0.331  53.710  1.00  0.00     0.065 A 
HETATM   25  C4  UNL     1      29.521  -0.914  53.760  1.00  0.00     0.014 A 
HETATM   26  C5  UNL     1      29.437  -2.288  53.203  1.00  0.00     0.057 A 
HETATM   27  C6  UNL     1      27.997  -2.400  52.827  1.00  0.00    -0.020 A 
HETATM   28  C7  UNL     1      27.359  -1.266  53.122  1.00  0.00     0.032 A 
ENDBRANCH  23  24
ENDBRANCH  22  23
ENDBRANCH  19  22
ENDBRANCH   1  18
TORSDOF 4
ENDMDL
MODEL 3
REMARK VINA RESULT:      -8.3      2.363      3.516
REMARK  4 active torsions:
REMARK  status: ('A' for Active; 'I' for Inactive)
REMARK    1  A    between atoms: C1_2  and  C2_3 
REMARK       I    between atoms: C1_2  and  N1_10 
REMARK    2  A    between atoms: C2_3  and  O2_4 
REMARK    3  A    between atoms: O2_4  and  C3_5 
REMARK    4  A    between atoms: N1_10  and  C8_11 
ROOT
HETATM    1  C8  UNL     1      25.140   2.797  50.822  1.00  0.00     0.032 A 
HETATM    2  C9  UNL     1      26.156   3.634  50.311  1.00  0.00     0.035 A 
HETATM    3  C10 UNL     1      25.712   4.677  49.523  1.00  0.00    -0.040 A 
HETATM    4  C11 UNL     1      26.315   5.878  49.088  1.00  0.00     0.070 C 
HETATM    5  C12 UNL     1      25.497   6.566  50.050  1.00  0.00    -0.002 C 
HETATM    6 BR1  UNL     1      26.300   8.169  49.502  1.00  0.00    -0.055 Br
HETATM    7  C13 UNL     1      24.512   6.417  51.017  1.00  0.00     0.015 C 
HETATM    8  C14 UNL     1      23.293   5.921  51.419  1.00  0.00     0.001 C 
HETATM    9  C15 UNL     1      22.549   4.793  51.695  1.00  0.00    -0.003 C 
HETATM   10  C16 UNL     1      21.678   3.869  51.010  1.00  0.00    -0.014 C 
HETATM   11  C17 UNL     1      21.844   4.060  49.593  1.00  0.00     0.019 A 
HETATM   12  N2  UNL     1      22.776   4.755  48.892  1.00  0.00     0.000 N 
HETATM   13  C18 UNL     1      22.645   5.503  47.823  1.00  0.00     0.092 A 
HETATM   14  N3  UNL     1      23.922   5.476  48.235  1.00  0.00    -0.203 NA
HETATM   15  C19 UNL     1      24.401   4.785  49.320  1.00  0.00     0.098 A 
HETATM   16  C20 UNL     1      23.156   4.405  49.489  1.00  0.00     0.036 A 
HETATM   17  C21 UNL     1      23.864   3.333  50.324  1.00  0.00     0.017 A 
ENDROOT
BRANCH   1  18
HETATM   18  N1  UNL     1      25.459   1.736  51.620  1.00  0.00    -0.326 N 
HETATM   19  C1  UNL     1      25.266   1.848  53.015  1.00  0.00     0.246 C 
HETATM   20  O1  UNL     1      24.791   2.939  53.456  1.00  0.00    -0.271 OA
HETATM   21  H8  UNL     1      25.822   0.900  51.169  1.00  0.00     0.169 HD
BRANCH  19  22
HETATM   22  C2  UNL     1      25.598   0.758  53.952  1.00  0.00     0.278 C 
BRANCH  22  23
HETATM   23  O2  UNL     1      26.800   1.036  54.645  1.00  0.00    -0.342 OA
BRANCH  23  24
HETATM   24  C3  UNL     1      27.981   0.390  54.200  1.00  0.00     0.065 A 
HETATM   25  C4  UNL     1      29.288   0.660  54.249  1.00  0.00     0.014 A 
HETATM   26  C5  UNL     1      30.053  -0.428  53.589  1.00  0.00     0.057 A 
HETATM   27  C6  UNL     1      28.977  -1.365  53.154  1.00  0.00    -0.020 A 
HETATM   28  C7  UNL     1      27.783  -0.886  53.510  1.00  0.00     0.032 A 
ENDBRANCH  23  24
ENDBRANCH  22  23
ENDBRANCH  19  22
ENDBRANCH   1  18
TORSDOF 4
ENDMDL
MODEL 4
REMARK VINA RESULT:      -8.3      1.709      3.141
REMARK  4 active torsions:
REMARK  status: ('A' for Active; 'I' for Inactive)
REMARK    1  A    between atoms: C1_2  and  C2_3 
REMARK       I    between atoms: C1_2  and  N1_10 
REMARK    2  A    between atoms: C2_3  and  O2_4 
REMARK    3  A    between atoms: O2_4  and  C3_5 
REMARK    4  A    between atoms: N1_10  and  C8_11 
ROOT
HETATM    1  C8  UNL     1      24.735   2.814  51.683  1.00  0.00     0.032 A 
HETATM    2  C9  UNL     1      24.808   3.779  50.655  1.00  0.00     0.035 A 
HETATM    3  C10 UNL     1      23.826   3.679  49.690  1.00  0.00    -0.040 A 
HETATM    4  C11 UNL     1      23.349   4.574  48.707  1.00  0.00     0.070 C 
HETATM    5  C12 UNL     1      22.188   4.769  49.533  1.00  0.00    -0.002 C 
HETATM    6 BR1  UNL     1      21.548   5.976  48.250  1.00  0.00    -0.055 Br
HETATM    7  C13 UNL     1      21.558   4.395  50.711  1.00  0.00     0.015 C 
HETATM    8  C14 UNL     1      21.109   3.419  51.573  1.00  0.00     0.001 C 
HETATM    9  C15 UNL     1      21.459   2.393  52.425  1.00  0.00    -0.003 C 
HETATM   10  C16 UNL     1      21.688   0.969  52.377  1.00  0.00    -0.014 C 
HETATM   11  C17 UNL     1      21.818   0.580  50.998  1.00  0.00     0.019 A 
HETATM   12  N2  UNL     1      21.967   1.325  49.873  1.00  0.00     0.000 N 
HETATM   13  C18 UNL     1      21.443   1.172  48.682  1.00  0.00     0.092 A 
HETATM   14  N3  UNL     1      22.230   2.258  48.722  1.00  0.00    -0.203 NA
HETATM   15  C19 UNL     1      22.931   2.701  49.816  1.00  0.00     0.098 A 
HETATM   16  C20 UNL     1      22.406   1.670  50.433  1.00  0.00     0.036 A 
HETATM   17  C21 UNL     1      23.573   1.965  51.381  1.00  0.00     0.017 A 
ENDROOT
BRANCH   1  18
HETATM   18  N1  UNL     1      25.650   2.817  52.697  1.00  0.00    -0.326 N 
HETATM   19  C1  UNL     1      26.950   2.325  52.445  1.00  0.00     0.246 C 
HETATM   20  O1  UNL     1      27.203   1.910  51.272  1.00  0.00    -0.271 OA
HETATM   21  H8  UNL     1      25.354   3.183  53.598  1.00  0.00     0.169 HD
BRANCH  19  22
HETATM   22  C2  UNL     1      27.996   2.277  53.484  1.00  0.00     0.278 C 
BRANCH  22  23
HETATM   23  O2  UNL     1      27.802   1.172  54.345  1.00  0.00    -0.342 OA
BRANCH  23  24
HETATM   24  C3  UNL     1      28.005  -0.125  53.810  1.00  0.00     0.065 A 
HETATM   25  C4  UNL     1      27.231  -1.050  53.239  1.00  0.00     0.014 A 
HETATM   26  C5  UNL     1      28.046  -2.240  52.882  1.00  0.00     0.057 A 
HETATM   27  C6  UNL     1      29.411  -1.848  53.339  1.00  0.00    -0.020 A 
HETATM   28  C7  UNL     1      29.380  -0.626  53.875  1.00  0.00     0.032 A 
ENDBRANCH  23  24
ENDBRANCH  22  23
ENDBRANCH  19  22
ENDBRANCH   1  18
TORSDOF 4
ENDMDL
MODEL 5
REMARK VINA RESULT:      -8.1      2.634      3.934
REMARK  4 active torsions:
REMARK  status: ('A' for Active; 'I' for Inactive)
REMARK    1  A    between atoms: C1_2  and  C2_3 
REMARK       I    between atoms: C1_2  and  N1_10 
REMARK    2  A    between atoms: C2_3  and  O2_4 
REMARK    3  A    between atoms: O2_4  and  C3_5 
REMARK    4  A    between atoms: N1_10  and  C8_11 
ROOT
HETATM    1  C8  UNL     1      25.637   2.328  51.128  1.00  0.00     0.032 A 
HETATM    2  C9  UNL     1      26.427   3.297  50.472  1.00  0.00     0.035 A 
HETATM    3  C10 UNL     1      25.726   4.184  49.681  1.00  0.00    -0.040 A 
HETATM    4  C11 UNL     1      26.051   5.441  49.124  1.00  0.00     0.070 C 
HETATM    5  C12 UNL     1      25.210   6.036  50.128  1.00  0.00    -0.002 C 
HETATM    6 BR1  UNL     1      25.646   7.714  49.416  1.00  0.00    -0.055 Br
HETATM    7  C13 UNL     1      24.364   5.779  51.198  1.00  0.00     0.015 C 
HETATM    8  C14 UNL     1      23.302   5.100  51.749  1.00  0.00     0.001 C 
HETATM    9  C15 UNL     1      22.810   3.878  52.159  1.00  0.00    -0.003 C 
HETATM   10  C16 UNL     1      22.068   2.766  51.617  1.00  0.00    -0.014 C 
HETATM   11  C17 UNL     1      22.064   2.885  50.182  1.00  0.00     0.019 A 
HETATM   12  N2  UNL     1      22.781   3.686  49.353  1.00  0.00     0.000 N 
HETATM   13  C18 UNL     1      22.415   4.321  48.266  1.00  0.00     0.092 A 
HETATM   14  N3  UNL     1      23.707   4.554  48.545  1.00  0.00    -0.203 NA
HETATM   15  C19 UNL     1      24.404   4.038  49.609  1.00  0.00     0.098 A 
HETATM   16  C20 UNL     1      23.274   3.453  49.925  1.00  0.00     0.036 A 
HETATM   17  C21 UNL     1      24.243   2.588  50.738  1.00  0.00     0.017 A 
ENDROOT
BRANCH   1  18
HETATM   18  N1  UNL     1      26.221   1.400  51.943  1.00  0.00    -0.326 N 
HETATM   19  C1  UNL     1      26.144   1.576  53.342  1.00  0.00     0.246 C 
HETATM   20  O1  UNL     1      25.520   2.594  53.772  1.00  0.00    -0.271 OA
HETATM   21  H8  UNL     1      26.687   0.612  51.501  1.00  0.00     0.169 HD
BRANCH  19  22
HETATM   22  C2  UNL     1      26.759   0.633  54.296  1.00  0.00     0.278 C 
BRANCH  22  23
HETATM   23  O2  UNL     1      26.223  -0.667  54.137  1.00  0.00    -0.342 OA
BRANCH  23  24
HETATM   24  C3  UNL     1      24.862  -0.866  54.479  1.00  0.00     0.065 A 
HETATM   25  C4  UNL     1      24.202  -1.227  55.582  1.00  0.00     0.014 A 
HETATM   26  C5  UNL     1      22.743  -1.263  55.308  1.00  0.00     0.057 A 
HETATM   27  C6  UNL     1      22.672  -0.863  53.872  1.00  0.00    -0.020 A 
HETATM   28  C7  UNL     1      23.899  -0.636  53.399  1.00  0.00     0.032 A 
ENDBRANCH  23  24
ENDBRANCH  22  23
ENDBRANCH  19  22
ENDBRANCH   1  18
TORSDOF 4
ENDMDL
MODEL 6
REMARK VINA RESULT:      -7.9      2.310      3.375
REMARK  4 active torsions:
REMARK  status: ('A' for Active; 'I' for Inactive)
REMARK    1  A    between atoms: C1_2  and  C2_3 
REMARK       I    between atoms: C1_2  and  N1_10 
REMARK    2  A    between atoms: C2_3  and  O2_4 
REMARK    3  A    between atoms: O2_4  and  C3_5 
REMARK    4  A    between atoms: N1_10  and  C8_11 
ROOT
HETATM    1  C8  UNL     1      23.667   3.427  52.322  1.00  0.00     0.032 A 
HETATM    2  C9  UNL     1      22.560   4.296  52.436  1.00  0.00     0.035 A 
HETATM    3  C10 UNL     1      22.614   5.420  51.637  1.00  0.00    -0.040 A 
HETATM    4  C11 UNL     1      21.636   6.348  51.214  1.00  0.00     0.070 C 
HETATM    5  C12 UNL     1      21.680   5.715  49.924  1.00  0.00    -0.002 C 
HETATM    6 BR1  UNL     1      20.367   6.924  49.350  1.00  0.00    -0.055 Br
HETATM    7  C13 UNL     1      22.283   4.720  49.167  1.00  0.00     0.015 C 
HETATM    8  C14 UNL     1      23.413   4.081  48.711  1.00  0.00     0.001 C 
HETATM    9  C15 UNL     1      24.513   3.319  49.046  1.00  0.00    -0.003 C 
HETATM   10  C16 UNL     1      25.885   3.508  49.451  1.00  0.00    -0.014 C 
HETATM   11  C17 UNL     1      26.054   4.883  49.841  1.00  0.00     0.019 A 
HETATM   12  N2  UNL     1      25.141   5.861  50.073  1.00  0.00     0.000 N 
HETATM   13  C18 UNL     1      25.170   7.134  49.764  1.00  0.00     0.092 A 
HETATM   14  N3  UNL     1      24.029   6.821  50.397  1.00  0.00    -0.203 NA
HETATM   15  C19 UNL     1      23.683   5.576  50.859  1.00  0.00     0.098 A 
HETATM   16  C20 UNL     1      24.840   5.194  50.373  1.00  0.00     0.036 A 
HETATM   17  C21 UNL     1      24.573   4.030  51.333  1.00  0.00     0.017 A 
ENDROOT
BRANCH   1  18
HETATM   18  N1  UNL     1      23.721   2.280  53.060  1.00  0.00    -0.326 N 
HETATM   19  C1  UNL     1      23.352   1.059  52.452  1.00  0.00     0.246 C 
HETATM   20  O1  UNL     1      22.996   1.094  51.234  1.00  0.00    -0.271 OA
HETATM   21  H8  UNL     1      24.032   2.354  54.025  1.00  0.00     0.169 HD
BRANCH  19  22
HETATM   22  C2  UNL     1      23.365  -0.226  53.179  1.00  0.00     0.278 C 
BRANCH  22  23
HETATM   23  O2  UNL     1      24.342  -0.216  54.202  1.00  0.00    -0.342 OA
BRANCH  23  24
HETATM   24  C3  UNL     1      25.691  -0.437  53.829  1.00  0.00     0.065 A 
HETATM   25  C4  UNL     1      26.311  -1.120  52.863  1.00  0.00     0.014 A 
HETATM   26  C5  UNL     1      27.782  -0.966  53.000  1.00  0.00     0.057 A 
HETATM   27  C6  UNL     1      27.906  -0.084  54.198  1.00  0.00    -0.020 A 
HETATM   28  C7  UNL     1      26.695   0.217  54.671  1.00  0.00     0.032 A 
ENDBRANCH  23  24
ENDBRANCH  22  23
ENDBRANCH  19  22
ENDBRANCH   1  18
TORSDOF 4
ENDMDL
MODEL 7
REMARK VINA RESULT:      -7.9      1.729      2.278
REMARK  4 active torsions:
REMARK  status: ('A' for Active; 'I' for Inactive)
REMARK    1  A    between atoms: C1_2  and  C2_3 
REMARK       I    between atoms: C1_2  and  N1_10 
REMARK    2  A    between atoms: C2_3  and  O2_4 
REMARK    3  A    between atoms: O2_4  and  C3_5 
REMARK    4  A    between atoms: N1_10  and  C8_11 
ROOT
HETATM    1  C8  UNL     1      23.664   4.336  52.472  1.00  0.00     0.032 A 
HETATM    2  C9  UNL     1      22.268   4.143  52.377  1.00  0.00     0.035 A 
HETATM    3  C10 UNL     1      21.637   4.902  51.414  1.00  0.00    -0.040 A 
HETATM    4  C11 UNL     1      20.374   4.807  50.788  1.00  0.00     0.070 C 
HETATM    5  C12 UNL     1      21.056   4.317  49.621  1.00  0.00    -0.002 C 
HETATM    6 BR1  UNL     1      19.387   4.164  48.781  1.00  0.00    -0.055 Br
HETATM    7  C13 UNL     1      22.294   4.018  49.071  1.00  0.00     0.015 C 
HETATM    8  C14 UNL     1      23.597   4.363  48.794  1.00  0.00     0.001 C 
HETATM    9  C15 UNL     1      24.841   4.656  49.314  1.00  0.00    -0.003 C 
HETATM   10  C16 UNL     1      25.588   5.804  49.767  1.00  0.00    -0.014 C 
HETATM   11  C17 UNL     1      24.670   6.898  49.942  1.00  0.00     0.019 A 
HETATM   12  N2  UNL     1      23.313   6.927  49.958  1.00  0.00     0.000 N 
HETATM   13  C18 UNL     1      22.481   7.805  49.452  1.00  0.00     0.092 A 
HETATM   14  N3  UNL     1      21.816   6.807  50.055  1.00  0.00    -0.203 NA
HETATM   15  C19 UNL     1      22.386   5.731  50.688  1.00  0.00     0.098 A 
HETATM   16  C20 UNL     1      23.530   6.271  50.342  1.00  0.00     0.036 A 
HETATM   17  C21 UNL     1      24.018   5.340  51.457  1.00  0.00     0.017 A 
ENDROOT
BRANCH   1  18
HETATM   18  N1  UNL     1      24.396   3.634  53.386  1.00  0.00    -0.326 N 
HETATM   19  C1  UNL     1      24.968   2.401  53.001  1.00  0.00     0.246 C 
HETATM   20  O1  UNL     1      24.776   2.013  51.807  1.00  0.00    -0.271 OA
HETATM   21  H8  UNL     1      24.503   4.037  54.313  1.00  0.00     0.169 HD
BRANCH  19  22
HETATM   22  C2  UNL     1      25.760   1.570  53.927  1.00  0.00     0.278 C 
BRANCH  22  23
HETATM   23  O2  UNL     1      27.121   1.956  53.913  1.00  0.00    -0.342 OA
BRANCH  23  24
HETATM   24  C3  UNL     1      28.095   0.935  53.771  1.00  0.00     0.065 A 
HETATM   25  C4  UNL     1      29.412   0.844  53.964  1.00  0.00     0.014 A 
HETATM   26  C5  UNL     1      29.879  -0.525  53.629  1.00  0.00     0.057 A 
HETATM   27  C6  UNL     1      28.618  -1.206  53.214  1.00  0.00    -0.020 A 
HETATM   28  C7  UNL     1      27.591  -0.357  53.298  1.00  0.00     0.032 A 
ENDBRANCH  23  24
ENDBRANCH  22  23
ENDBRANCH  19  22
ENDBRANCH   1  18
TORSDOF 4
ENDMDL
MODEL 8
REMARK VINA RESULT:      -7.7      3.843      5.458
REMARK  4 active torsions:
REMARK  status: ('A' for Active; 'I' for Inactive)
REMARK    1  A    between atoms: C1_2  and  C2_3 
REMARK       I    between atoms: C1_2  and  N1_10 
REMARK    2  A    between atoms: C2_3  and  O2_4 
REMARK    3  A    between atoms: O2_4  and  C3_5 
REMARK    4  A    between atoms: N1_10  and  C8_11 
ROOT
HETATM    1  C8  UNL     1      25.134   4.242  49.336  1.00  0.00     0.032 A 
HETATM    2  C9  UNL     1      26.399   4.863  49.245  1.00  0.00     0.035 A 
HETATM    3  C10 UNL     1      26.388   6.138  48.716  1.00  0.00    -0.040 A 
HETATM    4  C11 UNL     1      27.325   7.195  48.732  1.00  0.00     0.070 C 
HETATM    5  C12 UNL     1      26.485   7.844  49.703  1.00  0.00    -0.002 C 
HETATM    6 BR1  UNL     1      27.728   9.246  49.755  1.00  0.00    -0.055 Br
HETATM    7  C13 UNL     1      25.301   7.754  50.421  1.00  0.00     0.015 C 
HETATM    8  C14 UNL     1      23.944   7.532  50.470  1.00  0.00     0.001 C 
HETATM    9  C15 UNL     1      22.925   6.619  50.301  1.00  0.00    -0.003 C 
HETATM   10  C16 UNL     1      22.046   6.148  49.257  1.00  0.00    -0.014 C 
HETATM   11  C17 UNL     1      22.565   6.603  47.994  1.00  0.00     0.019 A 
HETATM   12  N2  UNL     1      23.761   7.157  47.670  1.00  0.00     0.000 N 
HETATM   13  C18 UNL     1      24.044   8.135  46.843  1.00  0.00     0.092 A 
HETATM   14  N3  UNL     1      25.157   7.666  47.430  1.00  0.00    -0.203 NA
HETATM   15  C19 UNL     1      25.213   6.643  48.343  1.00  0.00     0.098 A 
HETATM   16  C20 UNL     1      23.910   6.590  48.200  1.00  0.00     0.036 A 
HETATM   17  C21 UNL     1      24.155   5.205  48.808  1.00  0.00     0.017 A 
ENDROOT
BRANCH   1  18
HETATM   18  N1  UNL     1      25.020   2.982  49.849  1.00  0.00    -0.326 N 
HETATM   19  C1  UNL     1      24.604   2.826  51.190  1.00  0.00     0.246 C 
HETATM   20  O1  UNL     1      24.345   3.879  51.850  1.00  0.00    -0.271 OA
HETATM   21  H8  UNL     1      25.238   2.202  49.235  1.00  0.00     0.169 HD
BRANCH  19  22
HETATM   22  C2  UNL     1      24.469   1.504  51.831  1.00  0.00     0.278 C 
BRANCH  22  23
HETATM   23  O2  UNL     1      23.111   1.201  52.083  1.00  0.00    -0.342 OA
BRANCH  23  24
HETATM   24  C3  UNL     1      22.818   0.339  53.169  1.00  0.00     0.065 A 
HETATM   25  C4  UNL     1      23.489  -0.591  53.852  1.00  0.00     0.014 A 
HETATM   26  C5  UNL     1      22.618  -1.169  54.908  1.00  0.00     0.057 A 
HETATM   27  C6  UNL     1      21.341  -0.420  54.721  1.00  0.00    -0.020 A 
HETATM   28  C7  UNL     1      21.463   0.449  53.715  1.00  0.00     0.032 A 
ENDBRANCH  23  24
ENDBRANCH  22  23
ENDBRANCH  19  22
ENDBRANCH   1  18
TORSDOF 4
ENDMDL
MODEL 9
REMARK VINA RESULT:      -7.7      1.649      2.308
REMARK  4 active torsions:
REMARK  status: ('A' for Active; 'I' for Inactive)
REMARK    1  A    between atoms: C1_2  and  C2_3 
REMARK       I    between atoms: C1_2  and  N1_10 
REMARK    2  A    between atoms: C2_3  and  O2_4 
REMARK    3  A    between atoms: O2_4  and  C3_5 
REMARK    4  A    between atoms: N1_10  and  C8_11 
ROOT
HETATM    1  C8  UNL     1      22.578   1.706  51.383  1.00  0.00     0.032 A 
HETATM    2  C9  UNL     1      22.081   1.321  50.119  1.00  0.00     0.035 A 
HETATM    3  C10 UNL     1      21.499   2.336  49.386  1.00  0.00    -0.040 A 
HETATM    4  C11 UNL     1      21.172   2.469  48.018  1.00  0.00     0.070 C 
HETATM    5  C12 UNL     1      22.305   3.348  47.896  1.00  0.00    -0.002 C 
HETATM    6 BR1  UNL     1      21.900   3.521  46.073  1.00  0.00    -0.055 Br
HETATM    7  C13 UNL     1      23.343   3.964  48.580  1.00  0.00     0.015 C 
HETATM    8  C14 UNL     1      23.803   4.706  49.643  1.00  0.00     0.001 C 
HETATM    9  C15 UNL     1      23.999   4.756  51.007  1.00  0.00    -0.003 C 
HETATM   10  C16 UNL     1      23.291   5.171  52.195  1.00  0.00    -0.014 C 
HETATM   11  C17 UNL     1      21.906   5.353  51.852  1.00  0.00     0.019 A 
HETATM   12  N2  UNL     1      21.210   5.003  50.740  1.00  0.00     0.000 N 
HETATM   13  C18 UNL     1      20.277   5.652  50.087  1.00  0.00     0.092 A 
HETATM   14  N3  UNL     1      20.539   4.473  49.502  1.00  0.00    -0.203 NA
HETATM   15  C19 UNL     1      21.457   3.549  49.933  1.00  0.00     0.098 A 
HETATM   16  C20 UNL     1      21.708   4.408  50.893  1.00  0.00     0.036 A 
HETATM   17  C21 UNL     1      22.303   3.144  51.522  1.00  0.00     0.017 A 
ENDROOT
BRANCH   1  18
HETATM   18  N1  UNL     1      23.181   0.788  52.195  1.00  0.00    -0.326 N 
HETATM   19  C1  UNL     1      24.591   0.761  52.265  1.00  0.00     0.246 C 
HETATM   20  O1  UNL     1      25.230   1.609  51.570  1.00  0.00    -0.271 OA
HETATM   21  H8  UNL     1      22.580   0.160  52.722  1.00  0.00     0.169 HD
BRANCH  19  22
HETATM   22  C2  UNL     1      25.326  -0.207  53.103  1.00  0.00     0.278 C 
BRANCH  22  23
HETATM   23  O2  UNL     1      26.587   0.310  53.483  1.00  0.00    -0.342 OA
BRANCH  23  24
HETATM   24  C3  UNL     1      27.705  -0.558  53.404  1.00  0.00     0.065 A 
HETATM   25  C4  UNL     1      27.901  -1.827  53.039  1.00  0.00     0.014 A 
HETATM   26  C5  UNL     1      29.337  -2.178  53.181  1.00  0.00     0.057 A 
HETATM   27  C6  UNL     1      29.934  -0.906  53.683  1.00  0.00    -0.020 A 
HETATM   28  C7  UNL     1      28.986   0.025  53.810  1.00  0.00     0.032 A 
ENDBRANCH  23  24
ENDBRANCH  22  23
ENDBRANCH  19  22
ENDBRANCH   1  18
TORSDOF 4
ENDMDL
