MODEL 1
REMARK VINA RESULT:      -6.7      0.000      0.000
REMARK  3 active torsions:
REMARK  status: ('A' for Active; 'I' for Inactive)
REMARK    1  A    between atoms: C2_2  and  C3_3 
REMARK    2  A    between atoms: C3_3  and  N1_4 
REMARK    3  A    between atoms: C9_11  and  O1_12 
ROOT
HETATM    1  N1  UNL     1      23.552   2.720  50.096  1.00  0.00     0.026 N 
HETATM    2  C4  UNL     1      23.960   2.530  51.564  1.00  0.00     0.217 A 
HETATM    3  C5  UNL     1      24.796   2.930  50.703  1.00  0.00     0.388 A 
HETATM    4  N2  UNL     1      25.803   2.986  51.703  1.00  0.00    -0.338 N 
HETATM    5  C6  UNL     1      27.056   2.206  51.879  1.00  0.00     0.084 C 
HETATM    6  C7  UNL     1      26.782   0.930  52.382  1.00  0.00    -0.004 C 
HETATM    7  C8  UNL     1      25.451   0.575  52.641  1.00  0.00     0.093 C 
HETATM    8  C9  UNL     1      24.327   0.173  53.331  1.00  0.00     0.050 C 
HETATM    9  C11 UNL     1      23.199   0.963  53.219  1.00  0.00     0.048 C 
HETATM   10  C12 UNL     1      22.931   2.196  52.476  1.00  0.00     0.026 C 
HETATM   11  C13 UNL     1      22.132   3.219  52.105  1.00  0.00     0.148 C 
HETATM   12  O2  UNL     1      22.657   4.071  51.094  1.00  0.00    -0.357 OA
HETATM   13  C14 UNL     1      23.553   5.076  51.543  1.00  0.00     0.223 C 
HETATM   14  C15 UNL     1      24.734   5.286  50.630  1.00  0.00     0.145 C 
HETATM   15  N3  UNL     1      25.738   4.860  49.873  1.00  0.00    -0.143 NA
HETATM   16  O3  UNL     1      25.857   3.391  49.835  1.00  0.00    -0.187 OA
HETATM   17  H6  UNL     1      22.595   2.225  50.048  1.00  0.00     0.293 HD
HETATM   18  H7  UNL     1      26.135   3.442  52.584  1.00  0.00     0.164 HD
ENDROOT
BRANCH   1  19
HETATM   19  C3  UNL     1      23.290   2.955  48.675  1.00  0.00     0.274 C 
BRANCH  19  20
HETATM   20  C2  UNL     1      22.138   2.325  48.062  1.00  0.00    -0.009 C 
HETATM   21  C1  UNL     1      21.041   1.675  48.386  1.00  0.00     0.008 C 
ENDBRANCH  19  20
ENDBRANCH   1  19
BRANCH   8  22
HETATM   22  O1  UNL     1      23.949  -0.840  54.156  1.00  0.00    -0.360 OA
HETATM   23  C10 UNL     1      22.598  -0.970  54.544  1.00  0.00     0.209 C 
ENDBRANCH   8  22
TORSDOF 3
ENDMDL
MODEL 2
REMARK VINA RESULT:      -6.7      2.298      4.531
REMARK  3 active torsions:
REMARK  status: ('A' for Active; 'I' for Inactive)
REMARK    1  A    between atoms: C2_2  and  C3_3 
REMARK    2  A    between atoms: C3_3  and  N1_4 
REMARK    3  A    between atoms: C9_11  and  O1_12 
ROOT
HETATM    1  N1  UNL     1      22.016   2.452  52.359  1.00  0.00     0.026 N 
HETATM    2  C4  UNL     1      22.638   1.049  52.349  1.00  0.00     0.217 A 
HETATM    3  C5  UNL     1      21.393   1.207  52.512  1.00  0.00     0.388 A 
HETATM    4  N2  UNL     1      21.226  -0.199  52.620  1.00  0.00    -0.338 N 
HETATM    5  C6  UNL     1      20.797  -1.051  53.760  1.00  0.00     0.084 C 
HETATM    6  C7  UNL     1      21.838  -1.215  54.680  1.00  0.00    -0.004 C 
HETATM    7  C8  UNL     1      23.071  -0.598  54.425  1.00  0.00     0.093 C 
HETATM    8  C9  UNL     1      24.421  -0.447  54.193  1.00  0.00     0.050 C 
HETATM    9  C11 UNL     1      24.794   0.279  53.077  1.00  0.00     0.048 C 
HETATM   10  C12 UNL     1      24.017   0.962  52.042  1.00  0.00     0.026 C 
HETATM   11  C13 UNL     1      23.911   1.682  50.905  1.00  0.00     0.148 C 
HETATM   12  O2  UNL     1      22.599   2.122  50.577  1.00  0.00    -0.357 OA
HETATM   13  C14 UNL     1      21.777   1.168  49.921  1.00  0.00     0.223 C 
HETATM   14  C15 UNL     1      20.347   1.171  50.398  1.00  0.00     0.145 C 
HETATM   15  N3  UNL     1      19.412   1.191  51.339  1.00  0.00    -0.143 NA
HETATM   16  O3  UNL     1      19.961   1.232  52.708  1.00  0.00    -0.187 OA
HETATM   17  H6  UNL     1      22.878   3.096  52.443  1.00  0.00     0.293 HD
HETATM   18  H7  UNL     1      21.285  -1.125  52.138  1.00  0.00     0.164 HD
ENDROOT
BRANCH   1  19
HETATM   19  C3  UNL     1      21.297   3.728  52.373  1.00  0.00     0.274 C 
BRANCH  19  20
HETATM   20  C2  UNL     1      22.042   4.952  52.159  1.00  0.00    -0.009 C 
HETATM   21  C1  UNL     1      23.239   5.367  51.805  1.00  0.00     0.008 C 
ENDBRANCH  19  20
ENDBRANCH   1  19
BRANCH   8  22
HETATM   22  O1  UNL     1      25.598  -0.818  54.763  1.00  0.00    -0.360 OA
HETATM   23  C10 UNL     1      26.627   0.130  54.946  1.00  0.00     0.209 C 
ENDBRANCH   8  22
TORSDOF 3
ENDMDL
MODEL 3
REMARK VINA RESULT:      -6.4      1.927      4.114
REMARK  3 active torsions:
REMARK  status: ('A' for Active; 'I' for Inactive)
REMARK    1  A    between atoms: C2_2  and  C3_3 
REMARK    2  A    between atoms: C3_3  and  N1_4 
REMARK    3  A    between atoms: C9_11  and  O1_12 
ROOT
HETATM    1  N1  UNL     1      22.757   3.391  51.530  1.00  0.00     0.026 N 
HETATM    2  C4  UNL     1      23.898   2.399  51.265  1.00  0.00     0.217 A 
HETATM    3  C5  UNL     1      22.861   2.043  51.895  1.00  0.00     0.388 A 
HETATM    4  N2  UNL     1      23.396   0.735  52.042  1.00  0.00    -0.338 N 
HETATM    5  C6  UNL     1      23.824  -0.019  53.249  1.00  0.00     0.084 C 
HETATM    6  C7  UNL     1      25.074   0.423  53.695  1.00  0.00    -0.004 C 
HETATM    7  C8  UNL     1      25.720   1.450  52.993  1.00  0.00     0.093 C 
HETATM    8  C9  UNL     1      26.680   2.115  52.262  1.00  0.00     0.050 C 
HETATM    9  C11 UNL     1      26.271   2.737  51.097  1.00  0.00     0.048 C 
HETATM   10  C12 UNL     1      24.963   2.852  50.450  1.00  0.00     0.026 C 
HETATM   11  C13 UNL     1      24.156   3.264  49.449  1.00  0.00     0.148 C 
HETATM   12  O2  UNL     1      22.765   3.051  49.657  1.00  0.00    -0.357 OA
HETATM   13  C14 UNL     1      22.292   1.747  49.356  1.00  0.00     0.223 C 
HETATM   14  C15 UNL     1      21.282   1.226  50.346  1.00  0.00     0.145 C 
HETATM   15  N3  UNL     1      20.831   1.004  51.575  1.00  0.00    -0.143 NA
HETATM   16  O3  UNL     1      21.741   1.494  52.627  1.00  0.00    -0.187 OA
HETATM   17  H6  UNL     1      23.205   4.342  51.285  1.00  0.00     0.293 HD
HETATM   18  H7  UNL     1      23.694  -0.145  51.563  1.00  0.00     0.164 HD
ENDROOT
BRANCH   1  19
HETATM   19  C3  UNL     1      21.596   4.229  51.836  1.00  0.00     0.274 C 
BRANCH  19  20
HETATM   20  C2  UNL     1      21.669   5.651  51.561  1.00  0.00    -0.009 C 
HETATM   21  C1  UNL     1      21.775   6.488  50.552  1.00  0.00     0.008 C 
ENDBRANCH  19  20
ENDBRANCH   1  19
BRANCH   8  22
HETATM   22  O1  UNL     1      28.014   2.371  52.331  1.00  0.00    -0.360 OA
HETATM   23  C10 UNL     1      28.670   2.376  53.581  1.00  0.00     0.209 C 
ENDBRANCH   8  22
TORSDOF 3
ENDMDL
MODEL 4
REMARK VINA RESULT:      -6.4      1.718      3.816
REMARK  3 active torsions:
REMARK  status: ('A' for Active; 'I' for Inactive)
REMARK    1  A    between atoms: C2_2  and  C3_3 
REMARK    2  A    between atoms: C3_3  and  N1_4 
REMARK    3  A    between atoms: C9_11  and  O1_12 
ROOT
HETATM    1  N1  UNL     1      24.198   3.567  52.335  1.00  0.00     0.026 N 
HETATM    2  C4  UNL     1      24.684   2.146  52.015  1.00  0.00     0.217 A 
HETATM    3  C5  UNL     1      23.451   2.400  52.132  1.00  0.00     0.388 A 
HETATM    4  N2  UNL     1      23.143   1.037  51.874  1.00  0.00    -0.338 N 
HETATM    5  C6  UNL     1      22.534  -0.010  52.735  1.00  0.00     0.084 C 
HETATM    6  C7  UNL     1      23.468  -0.508  53.649  1.00  0.00    -0.004 C 
HETATM    7  C8  UNL     1      24.772   0.008  53.636  1.00  0.00     0.093 C 
HETATM    8  C9  UNL     1      26.145   0.057  53.537  1.00  0.00     0.050 C 
HETATM    9  C11 UNL     1      26.685   0.983  52.664  1.00  0.00     0.048 C 
HETATM   10  C12 UNL     1      26.071   1.981  51.785  1.00  0.00     0.026 C 
HETATM   11  C13 UNL     1      26.137   2.962  50.860  1.00  0.00     0.148 C 
HETATM   12  O2  UNL     1      24.907   3.613  50.569  1.00  0.00    -0.357 OA
HETATM   13  C14 UNL     1      24.062   2.946  49.644  1.00  0.00     0.223 C 
HETATM   14  C15 UNL     1      22.601   2.995  50.014  1.00  0.00     0.145 C 
HETATM   15  N3  UNL     1      21.590   2.893  50.868  1.00  0.00    -0.143 NA
HETATM   16  O3  UNL     1      22.015   2.539  52.235  1.00  0.00    -0.187 OA
HETATM   17  H6  UNL     1      25.106   4.068  52.633  1.00  0.00     0.293 HD
HETATM   18  H7  UNL     1      23.158   0.255  51.181  1.00  0.00     0.164 HD
ENDROOT
BRANCH   1  19
HETATM   19  C3  UNL     1      23.604   4.874  52.622  1.00  0.00     0.274 C 
BRANCH  19  20
HETATM   20  C2  UNL     1      23.888   5.981  51.731  1.00  0.00    -0.009 C 
HETATM   21  C1  UNL     1      23.294   6.760  50.853  1.00  0.00     0.008 C 
ENDBRANCH  19  20
ENDBRANCH   1  19
BRANCH   8  22
HETATM   22  O1  UNL     1      27.226  -0.573  54.070  1.00  0.00    -0.360 OA
HETATM   23  C10 UNL     1      28.207   0.169  54.764  1.00  0.00     0.209 C 
ENDBRANCH   8  22
TORSDOF 3
ENDMDL
MODEL 5
REMARK VINA RESULT:      -6.4      6.005      7.861
REMARK  3 active torsions:
REMARK  status: ('A' for Active; 'I' for Inactive)
REMARK    1  A    between atoms: C2_2  and  C3_3 
REMARK    2  A    between atoms: C3_3  and  N1_4 
REMARK    3  A    between atoms: C9_11  and  O1_12 
ROOT
HETATM    1  N1  UNL     1      26.676   7.902  47.502  1.00  0.00     0.026 N 
HETATM    2  C4  UNL     1      27.673   7.238  48.462  1.00  0.00     0.217 A 
HETATM    3  C5  UNL     1      27.558   8.496  48.413  1.00  0.00     0.388 A 
HETATM    4  N2  UNL     1      28.561   8.629  49.410  1.00  0.00    -0.338 N 
HETATM    5  C6  UNL     1      29.925   9.217  49.355  1.00  0.00     0.084 C 
HETATM    6  C7  UNL     1      30.820   8.344  48.728  1.00  0.00    -0.004 C 
HETATM    7  C8  UNL     1      30.347   7.108  48.264  1.00  0.00     0.093 C 
HETATM    8  C9  UNL     1      30.215   5.744  48.113  1.00  0.00     0.050 C 
HETATM    9  C11 UNL     1      28.948   5.211  48.254  1.00  0.00     0.048 C 
HETATM   10  C12 UNL     1      27.648   5.824  48.533  1.00  0.00     0.026 C 
HETATM   11  C13 UNL     1      26.318   5.759  48.759  1.00  0.00     0.148 C 
HETATM   12  O2  UNL     1      25.647   7.010  48.832  1.00  0.00    -0.357 OA
HETATM   13  C14 UNL     1      25.718   7.673  50.085  1.00  0.00     0.223 C 
HETATM   14  C15 UNL     1      25.918   9.163  49.972  1.00  0.00     0.145 C 
HETATM   15  N3  UNL     1      26.500  10.246  49.472  1.00  0.00    -0.143 NA
HETATM   16  O3  UNL     1      27.537   9.941  48.468  1.00  0.00    -0.187 OA
HETATM   17  H6  UNL     1      26.398   7.090  46.848  1.00  0.00     0.293 HD
HETATM   18  H7  UNL     1      28.833   8.456  50.404  1.00  0.00     0.164 HD
ENDROOT
BRANCH   1  19
HETATM   19  C3  UNL     1      25.759   8.657  46.647  1.00  0.00     0.274 C 
BRANCH  19  20
HETATM   20  C2  UNL     1      26.098   8.842  45.250  1.00  0.00    -0.009 C 
HETATM   21  C1  UNL     1      27.063   8.585  44.393  1.00  0.00     0.008 C 
ENDBRANCH  19  20
ENDBRANCH   1  19
BRANCH   8  22
HETATM   22  O1  UNL     1      31.006   4.670  47.850  1.00  0.00    -0.360 OA
HETATM   23  C10 UNL     1      32.407   4.768  47.994  1.00  0.00     0.209 C 
ENDBRANCH   8  22
TORSDOF 3
ENDMDL
MODEL 6
REMARK VINA RESULT:      -6.3      2.425      5.446
REMARK  3 active torsions:
REMARK  status: ('A' for Active; 'I' for Inactive)
REMARK    1  A    between atoms: C2_2  and  C3_3 
REMARK    2  A    between atoms: C3_3  and  N1_4 
REMARK    3  A    between atoms: C9_11  and  O1_12 
ROOT
HETATM    1  N1  UNL     1      24.180   3.451  49.583  1.00  0.00     0.026 N 
HETATM    2  C4  UNL     1      25.411   4.271  49.995  1.00  0.00     0.217 A 
HETATM    3  C5  UNL     1      24.249   4.622  50.348  1.00  0.00     0.388 A 
HETATM    4  N2  UNL     1      24.792   5.748  51.023  1.00  0.00    -0.338 N 
HETATM    5  C6  UNL     1      24.652   7.206  50.768  1.00  0.00     0.084 C 
HETATM    6  C7  UNL     1      25.453   7.602  49.692  1.00  0.00    -0.004 C 
HETATM    7  C8  UNL     1      26.235   6.640  49.038  1.00  0.00     0.093 C 
HETATM    8  C9  UNL     1      27.344   5.991  48.540  1.00  0.00     0.050 C 
HETATM    9  C11 UNL     1      27.495   4.656  48.863  1.00  0.00     0.048 C 
HETATM   10  C12 UNL     1      26.677   3.737  49.656  1.00  0.00     0.026 C 
HETATM   11  C13 UNL     1      26.429   2.531  50.210  1.00  0.00     0.148 C 
HETATM   12  O2  UNL     1      25.155   2.390  50.826  1.00  0.00    -0.357 OA
HETATM   13  C14 UNL     1      25.053   2.898  52.148  1.00  0.00     0.223 C 
HETATM   14  C15 UNL     1      23.755   3.614  52.422  1.00  0.00     0.145 C 
HETATM   15  N3  UNL     1      22.785   4.468  52.119  1.00  0.00    -0.143 NA
HETATM   16  O3  UNL     1      22.988   5.146  50.825  1.00  0.00    -0.187 OA
HETATM   17  H6  UNL     1      24.573   2.793  48.825  1.00  0.00     0.293 HD
HETATM   18  H7  UNL     1      25.391   6.090  51.809  1.00  0.00     0.164 HD
ENDROOT
BRANCH   1  19
HETATM   19  C3  UNL     1      22.930   2.755  49.273  1.00  0.00     0.274 C 
BRANCH  19  20
HETATM   20  C2  UNL     1      22.403   2.832  47.924  1.00  0.00    -0.009 C 
HETATM   21  C1  UNL     1      21.278   3.062  47.282  1.00  0.00     0.008 C 
ENDBRANCH  19  20
ENDBRANCH   1  19
BRANCH   8  22
HETATM   22  O1  UNL     1      28.427   6.276  47.768  1.00  0.00    -0.360 OA
HETATM   23  C10 UNL     1      29.682   5.704  48.068  1.00  0.00     0.209 C 
ENDBRANCH   8  22
TORSDOF 3
ENDMDL
MODEL 7
REMARK VINA RESULT:      -6.2      2.463      5.386
REMARK  3 active torsions:
REMARK  status: ('A' for Active; 'I' for Inactive)
REMARK    1  A    between atoms: C2_2  and  C3_3 
REMARK    2  A    between atoms: C3_3  and  N1_4 
REMARK    3  A    between atoms: C9_11  and  O1_12 
ROOT
HETATM    1  N1  UNL     1      24.768   3.667  49.691  1.00  0.00     0.026 N 
HETATM    2  C4  UNL     1      23.249   3.768  49.493  1.00  0.00     0.217 A 
HETATM    3  C5  UNL     1      23.749   2.886  50.250  1.00  0.00     0.388 A 
HETATM    4  N2  UNL     1      22.448   2.394  50.540  1.00  0.00    -0.338 N 
HETATM    5  C6  UNL     1      21.799   1.095  50.227  1.00  0.00     0.084 C 
HETATM    6  C7  UNL     1      21.398   1.047  48.888  1.00  0.00    -0.004 C 
HETATM    7  C8  UNL     1      21.642   2.158  48.068  1.00  0.00     0.093 C 
HETATM    8  C9  UNL     1      21.407   3.225  47.229  1.00  0.00     0.050 C 
HETATM    9  C11 UNL     1      21.952   4.445  47.587  1.00  0.00     0.048 C 
HETATM   10  C12 UNL     1      22.775   4.858  48.725  1.00  0.00     0.026 C 
HETATM   11  C13 UNL     1      23.445   5.785  49.443  1.00  0.00     0.148 C 
HETATM   12  O2  UNL     1      24.212   5.282  50.530  1.00  0.00    -0.357 OA
HETATM   13  C14 UNL     1      23.490   5.033  51.727  1.00  0.00     0.223 C 
HETATM   14  C15 UNL     1      23.905   3.767  52.432  1.00  0.00     0.145 C 
HETATM   15  N3  UNL     1      24.223   2.479  52.466  1.00  0.00    -0.143 NA
HETATM   16  O3  UNL     1      24.173   1.831  51.142  1.00  0.00    -0.187 OA
HETATM   17  H6  UNL     1      25.154   4.295  48.904  1.00  0.00     0.293 HD
HETATM   18  H7  UNL     1      21.521   2.587  50.983  1.00  0.00     0.164 HD
ENDROOT
BRANCH   1  19
HETATM   19  C3  UNL     1      26.191   3.472  49.977  1.00  0.00     0.274 C 
BRANCH  19  20
HETATM   20  C2  UNL     1      27.168   4.182  49.176  1.00  0.00    -0.009 C 
HETATM   21  C1  UNL     1      27.356   5.348  48.596  1.00  0.00     0.008 C 
ENDBRANCH  19  20
ENDBRANCH   1  19
BRANCH   8  22
HETATM   22  O1  UNL     1      20.754   3.478  46.063  1.00  0.00    -0.360 OA
HETATM   23  C10 UNL     1      21.452   4.023  44.963  1.00  0.00     0.209 C 
ENDBRANCH   8  22
TORSDOF 3
ENDMDL
MODEL 8
REMARK VINA RESULT:      -6.1      1.787      3.553
REMARK  3 active torsions:
REMARK  status: ('A' for Active; 'I' for Inactive)
REMARK    1  A    between atoms: C2_2  and  C3_3 
REMARK    2  A    between atoms: C3_3  and  N1_4 
REMARK    3  A    between atoms: C9_11  and  O1_12 
ROOT
HETATM    1  N1  UNL     1      23.177   3.683  51.923  1.00  0.00     0.026 N 
HETATM    2  C4  UNL     1      23.151   2.155  51.779  1.00  0.00     0.217 A 
HETATM    3  C5  UNL     1      22.960   2.906  50.779  1.00  0.00     0.388 A 
HETATM    4  N2  UNL     1      22.794   1.764  49.950  1.00  0.00    -0.338 N 
HETATM    5  C6  UNL     1      21.612   1.254  49.209  1.00  0.00     0.084 C 
HETATM    6  C7  UNL     1      20.716   0.619  50.075  1.00  0.00    -0.004 C 
HETATM    7  C8  UNL     1      21.028   0.547  51.440  1.00  0.00     0.093 C 
HETATM    8  C9  UNL     1      21.303   0.013  52.680  1.00  0.00     0.050 C 
HETATM    9  C11 UNL     1      22.456   0.441  53.313  1.00  0.00     0.048 C 
HETATM   10  C12 UNL     1      23.493   1.398  52.925  1.00  0.00     0.026 C 
HETATM   11  C13 UNL     1      24.653   2.056  53.137  1.00  0.00     0.148 C 
HETATM   12  O2  UNL     1      24.960   3.076  52.195  1.00  0.00    -0.357 OA
HETATM   13  C14 UNL     1      25.557   2.634  50.984  1.00  0.00     0.223 C 
HETATM   14  C15 UNL     1      25.041   3.346  49.760  1.00  0.00     0.145 C 
HETATM   15  N3  UNL     1      24.076   3.840  48.995  1.00  0.00    -0.143 NA
HETATM   16  O3  UNL     1      22.726   3.632  49.551  1.00  0.00    -0.187 OA
HETATM   17  H6  UNL     1      23.141   3.823  52.993  1.00  0.00     0.293 HD
HETATM   18  H7  UNL     1      23.242   0.919  49.529  1.00  0.00     0.164 HD
ENDROOT
BRANCH   1  19
HETATM   19  C3  UNL     1      23.190   5.147  51.921  1.00  0.00     0.274 C 
BRANCH  19  20
HETATM   20  C2  UNL     1      21.977   5.857  51.567  1.00  0.00    -0.009 C 
HETATM   21  C1  UNL     1      21.555   6.824  50.780  1.00  0.00     0.008 C 
ENDBRANCH  19  20
ENDBRANCH   1  19
BRANCH   8  22
HETATM   22  O1  UNL     1      20.752  -0.877  53.549  1.00  0.00    -0.360 OA
HETATM   23  C10 UNL     1      21.574  -1.591  54.447  1.00  0.00     0.209 C 
ENDBRANCH   8  22
TORSDOF 3
ENDMDL
MODEL 9
REMARK VINA RESULT:      -6.0      7.579      9.781
REMARK  3 active torsions:
REMARK  status: ('A' for Active; 'I' for Inactive)
REMARK    1  A    between atoms: C2_2  and  C3_3 
REMARK    2  A    between atoms: C3_3  and  N1_4 
REMARK    3  A    between atoms: C9_11  and  O1_12 
ROOT
HETATM    1  N1  UNL     1      30.411   6.626  47.548  1.00  0.00     0.026 N 
HETATM    2  C4  UNL     1      31.820   6.026  47.428  1.00  0.00     0.217 A 
HETATM    3  C5  UNL     1      31.419   6.911  46.618  1.00  0.00     0.388 A 
HETATM    4  N2  UNL     1      32.664   6.854  45.937  1.00  0.00    -0.338 N 
HETATM    5  C6  UNL     1      33.010   6.411  44.561  1.00  0.00     0.084 C 
HETATM    6  C7  UNL     1      33.025   5.015  44.475  1.00  0.00    -0.004 C 
HETATM    7  C8  UNL     1      32.733   4.263  45.622  1.00  0.00     0.093 C 
HETATM    8  C9  UNL     1      32.885   3.365  46.656  1.00  0.00     0.050 C 
HETATM    9  C11 UNL     1      32.640   3.825  47.936  1.00  0.00     0.048 C 
HETATM   10  C12 UNL     1      32.222   5.131  48.449  1.00  0.00     0.026 C 
HETATM   11  C13 UNL     1      31.913   5.979  49.453  1.00  0.00     0.148 C 
HETATM   12  O2  UNL     1      31.402   7.244  49.052  1.00  0.00    -0.357 OA
HETATM   13  C14 UNL     1      32.374   8.210  48.682  1.00  0.00     0.223 C 
HETATM   14  C15 UNL     1      31.985   9.032  47.480  1.00  0.00     0.145 C 
HETATM   15  N3  UNL     1      31.505   9.182  46.252  1.00  0.00    -0.143 NA
HETATM   16  O3  UNL     1      31.102   7.910  45.623  1.00  0.00    -0.187 OA
HETATM   17  H6  UNL     1      29.924   5.955  48.238  1.00  0.00     0.293 HD
HETATM   18  H7  UNL     1      33.694   7.026  45.985  1.00  0.00     0.164 HD
ENDROOT
BRANCH   1  19
HETATM   19  C3  UNL     1      29.106   7.288  47.560  1.00  0.00     0.274 C 
BRANCH  19  20
HETATM   20  C2  UNL     1      27.945   6.536  47.996  1.00  0.00    -0.009 C 
HETATM   21  C1  UNL     1      27.626   5.387  48.551  1.00  0.00     0.008 C 
ENDBRANCH  19  20
ENDBRANCH   1  19
BRANCH   8  22
HETATM   22  O1  UNL     1      33.231   2.060  46.827  1.00  0.00    -0.360 OA
HETATM   23  C10 UNL     1      33.093   1.452  48.093  1.00  0.00     0.209 C 
ENDBRANCH   8  22
TORSDOF 3
ENDMDL
