MODEL 1
REMARK VINA RESULT:      -7.7      0.000      0.000
REMARK  7 active torsions:
REMARK  status: ('A' for Active; 'I' for Inactive)
REMARK    1  A    between atoms: C1_1  and  C2_2 
REMARK    2  A    between atoms: C2_2  and  C3_3 
REMARK    3  A    between atoms: C5_5  and  C6_6 
REMARK    4  A    between atoms: C6_6  and  C7_7 
REMARK    5  A    between atoms: C13_15  and  C14_16 
REMARK    6  A    between atoms: N2_19  and  N3_20 
REMARK    7  A    between atoms: N2_19  and  C17_21 
ROOT
HETATM    1  C3  UNL     1      25.754   2.824  50.478  1.00  0.00     0.089 A 
HETATM    2  C4  UNL     1      26.576   1.982  51.231  1.00  0.00     0.065 A 
HETATM    3  C5  UNL     1      25.729   1.273  52.065  1.00  0.00     0.068 A 
HETATM    4  N1  UNL     1      24.487   1.716  51.773  1.00  0.00    -0.133 NA
HETATM    5  O1  UNL     1      24.503   2.613  50.854  1.00  0.00    -0.217 OA
ENDROOT
BRANCH   1   6
HETATM    6  C2  UNL     1      26.580   3.585  49.595  1.00  0.00     0.081 C 
BRANCH   6   7
HETATM    7  C1  UNL     1      27.289   4.420  48.920  1.00  0.00    -0.015 C 
HETATM    8  C13 UNL     1      27.518   5.773  48.510  1.00  0.00     0.019 C 
BRANCH   8   9
HETATM    9  C14 UNL     1      26.509   6.337  49.220  1.00  0.00     0.294 A 
HETATM   10  C15 UNL     1      26.230   7.567  49.776  1.00  0.00     0.429 A 
HETATM   11  C16 UNL     1      24.954   7.219  50.342  1.00  0.00     0.341 A 
HETATM   12  C17 UNL     1      26.787   8.833  49.894  1.00  0.00     0.536 A 
HETATM   13  N3  UNL     1      26.847   7.593  49.452  1.00  0.00     0.193 N 
HETATM   14  N2  UNL     1      25.827   8.142  50.181  1.00  0.00     0.185 N 
ENDBRANCH   8   9
ENDBRANCH   6   7
ENDBRANCH   1   6
BRANCH   3  15
HETATM   15  C6  UNL     1      25.766   0.232  53.124  1.00  0.00     0.100 C 
BRANCH  15  16
HETATM   16  C7  UNL     1      27.077  -0.454  53.215  1.00  0.00    -0.052 A 
HETATM   17  C8  UNL     1      27.023  -1.758  52.776  1.00  0.00     0.007 A 
HETATM   18  C9  UNL     1      28.187  -2.512  52.807  1.00  0.00     0.001 A 
HETATM   19  C10 UNL     1      29.363  -1.971  53.264  1.00  0.00     0.000 A 
HETATM   20  C11 UNL     1      29.404  -0.651  53.704  1.00  0.00     0.001 A 
HETATM   21  C12 UNL     1      28.256   0.128  53.684  1.00  0.00     0.007 A 
ENDBRANCH  15  16
ENDBRANCH   3  15
TORSDOF 7
ENDMDL
MODEL 2
REMARK VINA RESULT:      -7.7      2.099      7.404
REMARK  7 active torsions:
REMARK  status: ('A' for Active; 'I' for Inactive)
REMARK    1  A    between atoms: C1_1  and  C2_2 
REMARK    2  A    between atoms: C2_2  and  C3_3 
REMARK    3  A    between atoms: C5_5  and  C6_6 
REMARK    4  A    between atoms: C6_6  and  C7_7 
REMARK    5  A    between atoms: C13_15  and  C14_16 
REMARK    6  A    between atoms: N2_19  and  N3_20 
REMARK    7  A    between atoms: N2_19  and  C17_21 
ROOT
HETATM    1  C3  UNL     1      24.573   2.448  52.394  1.00  0.00     0.089 A 
HETATM    2  C4  UNL     1      24.827   2.501  51.021  1.00  0.00     0.065 A 
HETATM    3  C5  UNL     1      24.458   3.772  50.617  1.00  0.00     0.068 A 
HETATM    4  N1  UNL     1      24.020   4.390  51.735  1.00  0.00    -0.133 NA
HETATM    5  O1  UNL     1      24.088   3.622  52.762  1.00  0.00    -0.217 OA
ENDROOT
BRANCH   1   6
HETATM    6  C2  UNL     1      24.936   1.150  52.868  1.00  0.00     0.081 C 
BRANCH   6   7
HETATM    7  C1  UNL     1      25.282  -0.066  53.106  1.00  0.00    -0.015 C 
HETATM    8  C13 UNL     1      26.322  -0.999  53.421  1.00  0.00     0.019 C 
BRANCH   8   9
HETATM    9  C14 UNL     1      27.333  -0.099  53.513  1.00  0.00     0.294 A 
HETATM   10  C15 UNL     1      28.709  -0.131  53.588  1.00  0.00     0.429 A 
HETATM   11  C16 UNL     1      28.912   1.292  53.677  1.00  0.00     0.341 A 
HETATM   12  C17 UNL     1      29.754  -1.044  53.594  1.00  0.00     0.536 A 
HETATM   13  N3  UNL     1      28.464  -0.781  53.537  1.00  0.00     0.193 N 
HETATM   14  N2  UNL     1      29.472   0.140  53.646  1.00  0.00     0.185 N 
ENDBRANCH   8   9
ENDBRANCH   6   7
ENDBRANCH   1   6
BRANCH   3  15
HETATM   15  C6  UNL     1      24.401   4.618  49.397  1.00  0.00     0.100 C 
BRANCH  15  16
HETATM   16  C7  UNL     1      25.728   5.139  48.992  1.00  0.00    -0.052 A 
HETATM   17  C8  UNL     1      25.683   6.462  48.611  1.00  0.00     0.007 A 
HETATM   18  C9  UNL     1      26.862   7.072  48.210  1.00  0.00     0.001 A 
HETATM   19  C10 UNL     1      28.045   6.375  48.193  1.00  0.00     0.000 A 
HETATM   20  C11 UNL     1      28.076   5.038  48.581  1.00  0.00     0.001 A 
HETATM   21  C12 UNL     1      26.913   4.401  48.989  1.00  0.00     0.007 A 
ENDBRANCH  15  16
ENDBRANCH   3  15
TORSDOF 7
ENDMDL
MODEL 3
REMARK VINA RESULT:      -7.7      0.367      1.095
REMARK  7 active torsions:
REMARK  status: ('A' for Active; 'I' for Inactive)
REMARK    1  A    between atoms: C1_1  and  C2_2 
REMARK    2  A    between atoms: C2_2  and  C3_3 
REMARK    3  A    between atoms: C5_5  and  C6_6 
REMARK    4  A    between atoms: C6_6  and  C7_7 
REMARK    5  A    between atoms: C13_15  and  C14_16 
REMARK    6  A    between atoms: N2_19  and  N3_20 
REMARK    7  A    between atoms: N2_19  and  C17_21 
ROOT
HETATM    1  C3  UNL     1      25.714   2.862  50.699  1.00  0.00     0.089 A 
HETATM    2  C4  UNL     1      26.500   1.804  51.160  1.00  0.00     0.065 A 
HETATM    3  C5  UNL     1      25.725   1.134  52.091  1.00  0.00     0.068 A 
HETATM    4  N1  UNL     1      24.555   1.807  52.132  1.00  0.00    -0.133 NA
HETATM    5  O1  UNL     1      24.550   2.806  51.325  1.00  0.00    -0.217 OA
ENDROOT
BRANCH   1   6
HETATM    6  C2  UNL     1      26.468   3.594  49.730  1.00  0.00     0.081 C 
BRANCH   6   7
HETATM    7  C1  UNL     1      27.131   4.403  48.982  1.00  0.00    -0.015 C 
HETATM    8  C13 UNL     1      27.330   5.740  48.507  1.00  0.00     0.019 C 
BRANCH   8   9
HETATM    9  C14 UNL     1      26.366   6.330  49.256  1.00  0.00     0.294 A 
HETATM   10  C15 UNL     1      26.160   7.554  49.855  1.00  0.00     0.429 A 
HETATM   11  C16 UNL     1      24.880   7.250  50.440  1.00  0.00     0.341 A 
HETATM   12  C17 UNL     1      26.781   8.787  49.998  1.00  0.00     0.536 A 
HETATM   13  N3  UNL     1      26.770   7.560  49.518  1.00  0.00     0.193 N 
HETATM   14  N2  UNL     1      25.794   8.135  50.287  1.00  0.00     0.185 N 
ENDBRANCH   8   9
ENDBRANCH   6   7
ENDBRANCH   1   6
BRANCH   3  15
HETATM   15  C6  UNL     1      25.784  -0.034  53.007  1.00  0.00     0.100 C 
BRANCH  15  16
HETATM   16  C7  UNL     1      27.161  -0.546  53.203  1.00  0.00    -0.052 A 
HETATM   17  C8  UNL     1      27.966   0.347  53.875  1.00  0.00     0.007 A 
HETATM   18  C9  UNL     1      29.282  -0.013  54.126  1.00  0.00     0.001 A 
HETATM   19  C10 UNL     1      29.770  -1.229  53.713  1.00  0.00     0.000 A 
HETATM   20  C11 UNL     1      28.944  -2.122  53.035  1.00  0.00     0.001 A 
HETATM   21  C12 UNL     1      27.624  -1.791  52.771  1.00  0.00     0.007 A 
ENDBRANCH  15  16
ENDBRANCH   3  15
TORSDOF 7
ENDMDL
MODEL 4
REMARK VINA RESULT:      -7.5      1.844      2.757
REMARK  7 active torsions:
REMARK  status: ('A' for Active; 'I' for Inactive)
REMARK    1  A    between atoms: C1_1  and  C2_2 
REMARK    2  A    between atoms: C2_2  and  C3_3 
REMARK    3  A    between atoms: C5_5  and  C6_6 
REMARK    4  A    between atoms: C6_6  and  C7_7 
REMARK    5  A    between atoms: C13_15  and  C14_16 
REMARK    6  A    between atoms: N2_19  and  N3_20 
REMARK    7  A    between atoms: N2_19  and  C17_21 
ROOT
HETATM    1  C3  UNL     1      23.539   2.297  52.698  1.00  0.00     0.089 A 
HETATM    2  C4  UNL     1      24.785   1.668  52.650  1.00  0.00     0.065 A 
HETATM    3  C5  UNL     1      24.576   0.379  53.107  1.00  0.00     0.068 A 
HETATM    4  N1  UNL     1      23.257   0.311  53.393  1.00  0.00    -0.133 NA
HETATM    5  O1  UNL     1      22.659   1.422  53.155  1.00  0.00    -0.217 OA
ENDROOT
BRANCH   1   6
HETATM    6  C2  UNL     1      23.696   3.640  52.234  1.00  0.00     0.081 C 
BRANCH   6   7
HETATM    7  C1  UNL     1      23.712   4.798  51.674  1.00  0.00    -0.015 C 
HETATM    8  C13 UNL     1      24.316   5.686  50.726  1.00  0.00     0.019 C 
BRANCH   8   9
HETATM    9  C14 UNL     1      25.243   4.819  50.250  1.00  0.00     0.294 A 
HETATM   10  C15 UNL     1      26.320   4.863  49.390  1.00  0.00     0.429 A 
HETATM   11  C16 UNL     1      26.679   3.472  49.487  1.00  0.00     0.341 A 
HETATM   12  C17 UNL     1      27.015   5.768  48.600  1.00  0.00     0.536 A 
HETATM   13  N3  UNL     1      26.038   5.498  49.442  1.00  0.00     0.193 N 
HETATM   14  N2  UNL     1      26.957   4.606  48.959  1.00  0.00     0.185 N 
ENDBRANCH   8   9
ENDBRANCH   6   7
ENDBRANCH   1   6
BRANCH   3  15
HETATM   15  C6  UNL     1      25.317  -0.883  53.366  1.00  0.00     0.100 C 
BRANCH  15  16
HETATM   16  C7  UNL     1      26.747  -0.658  53.683  1.00  0.00    -0.052 A 
HETATM   17  C8  UNL     1      27.585  -1.453  52.933  1.00  0.00     0.007 A 
HETATM   18  C9  UNL     1      28.954  -1.338  53.132  1.00  0.00     0.001 A 
HETATM   19  C10 UNL     1      29.459  -0.455  54.053  1.00  0.00     0.000 A 
HETATM   20  C11 UNL     1      28.600   0.342  54.805  1.00  0.00     0.001 A 
HETATM   21  C12 UNL     1      27.227   0.252  54.627  1.00  0.00     0.007 A 
ENDBRANCH  15  16
ENDBRANCH   3  15
TORSDOF 7
ENDMDL
MODEL 5
REMARK VINA RESULT:      -7.4      4.949      6.908
REMARK  7 active torsions:
REMARK  status: ('A' for Active; 'I' for Inactive)
REMARK    1  A    between atoms: C1_1  and  C2_2 
REMARK    2  A    between atoms: C2_2  and  C3_3 
REMARK    3  A    between atoms: C5_5  and  C6_6 
REMARK    4  A    between atoms: C6_6  and  C7_7 
REMARK    5  A    between atoms: C13_15  and  C14_16 
REMARK    6  A    between atoms: N2_19  and  N3_20 
REMARK    7  A    between atoms: N2_19  and  C17_21 
ROOT
HETATM    1  C3  UNL     1      23.396  -0.885  54.443  1.00  0.00     0.089 A 
HETATM    2  C4  UNL     1      23.880  -0.625  53.158  1.00  0.00     0.065 A 
HETATM    3  C5  UNL     1      25.258  -0.707  53.249  1.00  0.00     0.068 A 
HETATM    4  N1  UNL     1      25.514  -1.004  54.542  1.00  0.00    -0.133 NA
HETATM    5  O1  UNL     1      24.435  -1.108  55.231  1.00  0.00    -0.217 OA
ENDROOT
BRANCH   1   6
HETATM    6  C2  UNL     1      21.969  -0.812  54.408  1.00  0.00     0.081 C 
BRANCH   6   7
HETATM    7  C1  UNL     1      20.697  -0.867  54.223  1.00  0.00    -0.015 C 
HETATM    8  C13 UNL     1      19.569  -0.541  53.403  1.00  0.00     0.019 C 
BRANCH   8   9
HETATM    9  C14 UNL     1      20.257   0.063  52.402  1.00  0.00     0.294 A 
HETATM   10  C15 UNL     1      19.980   0.576  51.154  1.00  0.00     0.429 A 
HETATM   11  C16 UNL     1      21.322   0.984  50.830  1.00  0.00     0.341 A 
HETATM   12  C17 UNL     1      18.907   0.762  50.293  1.00  0.00     0.536 A 
HETATM   13  N3  UNL     1      19.392   0.334  51.441  1.00  0.00     0.193 N 
HETATM   14  N2  UNL     1      20.105   0.928  50.433  1.00  0.00     0.185 N 
ENDBRANCH   8   9
ENDBRANCH   6   7
ENDBRANCH   1   6
BRANCH   3  15
HETATM   15  C6  UNL     1      26.475  -0.576  52.407  1.00  0.00     0.100 C 
BRANCH  15  16
HETATM   16  C7  UNL     1      27.481   0.346  52.985  1.00  0.00    -0.052 A 
HETATM   17  C8  UNL     1      28.570  -0.318  53.504  1.00  0.00     0.007 A 
HETATM   18  C9  UNL     1      29.589   0.433  54.074  1.00  0.00     0.001 A 
HETATM   19  C10 UNL     1      29.511   1.803  54.121  1.00  0.00     0.000 A 
HETATM   20  C11 UNL     1      28.403   2.461  53.592  1.00  0.00     0.001 A 
HETATM   21  C12 UNL     1      27.371   1.738  53.014  1.00  0.00     0.007 A 
ENDBRANCH  15  16
ENDBRANCH   3  15
TORSDOF 7
ENDMDL
MODEL 6
REMARK VINA RESULT:      -7.4      3.710      6.561
REMARK  7 active torsions:
REMARK  status: ('A' for Active; 'I' for Inactive)
REMARK    1  A    between atoms: C1_1  and  C2_2 
REMARK    2  A    between atoms: C2_2  and  C3_3 
REMARK    3  A    between atoms: C5_5  and  C6_6 
REMARK    4  A    between atoms: C6_6  and  C7_7 
REMARK    5  A    between atoms: C13_15  and  C14_16 
REMARK    6  A    between atoms: N2_19  and  N3_20 
REMARK    7  A    between atoms: N2_19  and  C17_21 
ROOT
HETATM    1  C3  UNL     1      24.316   2.407  51.882  1.00  0.00     0.089 A 
HETATM    2  C4  UNL     1      24.997   2.133  53.070  1.00  0.00     0.065 A 
HETATM    3  C5  UNL     1      26.341   2.121  52.742  1.00  0.00     0.068 A 
HETATM    4  N1  UNL     1      26.388   2.383  51.417  1.00  0.00    -0.133 NA
HETATM    5  O1  UNL     1      25.215   2.549  50.922  1.00  0.00    -0.217 OA
ENDROOT
BRANCH   1   6
HETATM    6  C2  UNL     1      22.915   2.431  52.162  1.00  0.00     0.081 C 
BRANCH   6   7
HETATM    7  C1  UNL     1      21.655   2.265  52.357  1.00  0.00    -0.015 C 
HETATM    8  C13 UNL     1      20.603   1.488  52.943  1.00  0.00     0.019 C 
BRANCH   8   9
HETATM    9  C14 UNL     1      21.392   0.572  53.558  1.00  0.00     0.294 A 
HETATM   10  C15 UNL     1      21.262  -0.714  54.035  1.00  0.00     0.429 A 
HETATM   11  C16 UNL     1      22.605  -0.853  54.533  1.00  0.00     0.341 A 
HETATM   12  C17 UNL     1      20.315  -1.724  54.130  1.00  0.00     0.536 A 
HETATM   13  N3  UNL     1      20.659  -0.509  53.752  1.00  0.00     0.193 N 
HETATM   14  N2  UNL     1      21.464  -1.417  54.386  1.00  0.00     0.185 N 
ENDBRANCH   8   9
ENDBRANCH   6   7
ENDBRANCH   1   6
BRANCH   3  15
HETATM   15  C6  UNL     1      27.675   1.920  53.366  1.00  0.00     0.100 C 
BRANCH  15  16
HETATM   16  C7  UNL     1      28.135   0.513  53.304  1.00  0.00    -0.052 A 
HETATM   17  C8  UNL     1      29.454   0.372  53.678  1.00  0.00     0.007 A 
HETATM   18  C9  UNL     1      30.009  -0.900  53.666  1.00  0.00     0.001 A 
HETATM   19  C10 UNL     1      29.263  -1.989  53.289  1.00  0.00     0.000 A 
HETATM   20  C11 UNL     1      27.931  -1.832  52.914  1.00  0.00     0.001 A 
HETATM   21  C12 UNL     1      27.348  -0.573  52.918  1.00  0.00     0.007 A 
ENDBRANCH  15  16
ENDBRANCH   3  15
TORSDOF 7
ENDMDL
MODEL 7
REMARK VINA RESULT:      -7.3      1.771      2.583
REMARK  7 active torsions:
REMARK  status: ('A' for Active; 'I' for Inactive)
REMARK    1  A    between atoms: C1_1  and  C2_2 
REMARK    2  A    between atoms: C2_2  and  C3_3 
REMARK    3  A    between atoms: C5_5  and  C6_6 
REMARK    4  A    between atoms: C6_6  and  C7_7 
REMARK    5  A    between atoms: C13_15  and  C14_16 
REMARK    6  A    between atoms: N2_19  and  N3_20 
REMARK    7  A    between atoms: N2_19  and  C17_21 
ROOT
HETATM    1  C3  UNL     1      26.283   4.527  49.647  1.00  0.00     0.089 A 
HETATM    2  C4  UNL     1      26.440   3.182  49.991  1.00  0.00     0.065 A 
HETATM    3  C5  UNL     1      25.346   2.861  50.775  1.00  0.00     0.068 A 
HETATM    4  N1  UNL     1      24.617   3.996  50.853  1.00  0.00    -0.133 NA
HETATM    5  O1  UNL     1      25.161   4.958  50.199  1.00  0.00    -0.217 OA
ENDROOT
BRANCH   1   6
HETATM    6  C2  UNL     1      27.391   4.915  48.833  1.00  0.00     0.081 C 
BRANCH   6   7
HETATM    7  C1  UNL     1      28.435   5.386  48.247  1.00  0.00    -0.015 C 
HETATM    8  C13 UNL     1      29.237   6.525  47.914  1.00  0.00     0.019 C 
BRANCH   8   9
HETATM    9  C14 UNL     1      28.500   7.450  48.578  1.00  0.00     0.294 A 
HETATM   10  C15 UNL     1      28.710   8.684  49.155  1.00  0.00     0.429 A 
HETATM   11  C16 UNL     1      27.367   8.887  49.631  1.00  0.00     0.341 A 
HETATM   12  C17 UNL     1      29.726   9.611  49.347  1.00  0.00     0.536 A 
HETATM   13  N3  UNL     1      29.305   8.456  48.870  1.00  0.00     0.193 N 
HETATM   14  N2  UNL     1      28.550   9.372  49.553  1.00  0.00     0.185 N 
ENDBRANCH   8   9
ENDBRANCH   6   7
ENDBRANCH   1   6
BRANCH   3  15
HETATM   15  C6  UNL     1      24.760   1.714  51.515  1.00  0.00     0.100 C 
BRANCH  15  16
HETATM   16  C7  UNL     1      25.749   1.008  52.363  1.00  0.00    -0.052 A 
HETATM   17  C8  UNL     1      25.758   1.470  53.661  1.00  0.00     0.007 A 
HETATM   18  C9  UNL     1      26.640   0.888  54.560  1.00  0.00     0.001 A 
HETATM   19  C10 UNL     1      27.483  -0.121  54.166  1.00  0.00     0.000 A 
HETATM   20  C11 UNL     1      27.463  -0.578  52.851  1.00  0.00     0.001 A 
HETATM   21  C12 UNL     1      26.591  -0.018  51.929  1.00  0.00     0.007 A 
ENDBRANCH  15  16
ENDBRANCH   3  15
TORSDOF 7
ENDMDL
MODEL 8
REMARK VINA RESULT:      -7.2      3.134      4.275
REMARK  7 active torsions:
REMARK  status: ('A' for Active; 'I' for Inactive)
REMARK    1  A    between atoms: C1_1  and  C2_2 
REMARK    2  A    between atoms: C2_2  and  C3_3 
REMARK    3  A    between atoms: C5_5  and  C6_6 
REMARK    4  A    between atoms: C6_6  and  C7_7 
REMARK    5  A    between atoms: C13_15  and  C14_16 
REMARK    6  A    between atoms: N2_19  and  N3_20 
REMARK    7  A    between atoms: N2_19  and  C17_21 
ROOT
HETATM    1  C3  UNL     1      25.847   2.917  50.703  1.00  0.00     0.089 A 
HETATM    2  C4  UNL     1      25.342   2.158  51.761  1.00  0.00     0.065 A 
HETATM    3  C5  UNL     1      26.431   1.844  52.555  1.00  0.00     0.068 A 
HETATM    4  N1  UNL     1      27.493   2.415  51.947  1.00  0.00    -0.133 NA
HETATM    5  O1  UNL     1      27.153   3.036  50.876  1.00  0.00    -0.217 OA
ENDROOT
BRANCH   1   6
HETATM    6  C2  UNL     1      24.759   3.271  49.846  1.00  0.00     0.081 C 
BRANCH   6   7
HETATM    7  C1  UNL     1      23.683   3.629  49.240  1.00  0.00    -0.015 C 
HETATM    8  C13 UNL     1      22.251   3.677  49.223  1.00  0.00     0.019 C 
BRANCH   8   9
HETATM    9  C14 UNL     1      22.048   3.088  50.427  1.00  0.00     0.294 A 
HETATM   10  C15 UNL     1      21.090   3.117  51.417  1.00  0.00     0.429 A 
HETATM   11  C16 UNL     1      21.733   2.192  52.312  1.00  0.00     0.341 A 
HETATM   12  C17 UNL     1      19.870   3.716  51.701  1.00  0.00     0.536 A 
HETATM   13  N3  UNL     1      20.898   3.538  50.895  1.00  0.00     0.193 N 
HETATM   14  N2  UNL     1      20.716   2.946  52.117  1.00  0.00     0.185 N 
ENDBRANCH   8   9
ENDBRANCH   6   7
ENDBRANCH   1   6
BRANCH   3  15
HETATM   15  C6  UNL     1      26.770   1.111  53.802  1.00  0.00     0.100 C 
BRANCH  15  16
HETATM   16  C7  UNL     1      27.575  -0.108  53.555  1.00  0.00    -0.052 A 
HETATM   17  C8  UNL     1      26.852  -1.103  52.936  1.00  0.00     0.007 A 
HETATM   18  C9  UNL     1      27.492  -2.300  52.645  1.00  0.00     0.001 A 
HETATM   19  C10 UNL     1      28.813  -2.487  52.967  1.00  0.00     0.000 A 
HETATM   20  C11 UNL     1      29.533  -1.472  53.593  1.00  0.00     0.001 A 
HETATM   21  C12 UNL     1      28.921  -0.265  53.894  1.00  0.00     0.007 A 
ENDBRANCH  15  16
ENDBRANCH   3  15
TORSDOF 7
ENDMDL
MODEL 9
REMARK VINA RESULT:      -7.1      2.832      3.309
REMARK  7 active torsions:
REMARK  status: ('A' for Active; 'I' for Inactive)
REMARK    1  A    between atoms: C1_1  and  C2_2 
REMARK    2  A    between atoms: C2_2  and  C3_3 
REMARK    3  A    between atoms: C5_5  and  C6_6 
REMARK    4  A    between atoms: C6_6  and  C7_7 
REMARK    5  A    between atoms: C13_15  and  C14_16 
REMARK    6  A    between atoms: N2_19  and  N3_20 
REMARK    7  A    between atoms: N2_19  and  C17_21 
ROOT
HETATM    1  C3  UNL     1      25.869   2.963  50.591  1.00  0.00     0.089 A 
HETATM    2  C4  UNL     1      25.333   2.164  51.603  1.00  0.00     0.065 A 
HETATM    3  C5  UNL     1      26.392   1.851  52.438  1.00  0.00     0.068 A 
HETATM    4  N1  UNL     1      27.468   2.462  51.896  1.00  0.00    -0.133 NA
HETATM    5  O1  UNL     1      27.163   3.106  50.828  1.00  0.00    -0.217 OA
ENDROOT
BRANCH   1   6
HETATM    6  C2  UNL     1      24.815   3.319  49.694  1.00  0.00     0.081 C 
BRANCH   6   7
HETATM    7  C1  UNL     1      23.960   3.809  48.867  1.00  0.00    -0.015 C 
HETATM    8  C13 UNL     1      22.695   4.447  48.656  1.00  0.00     0.019 C 
BRANCH   8   9
HETATM    9  C14 UNL     1      22.343   4.560  49.961  1.00  0.00     0.294 A 
HETATM   10  C15 UNL     1      21.919   5.560  50.809  1.00  0.00     0.429 A 
HETATM   11  C16 UNL     1      21.814   4.751  51.995  1.00  0.00     0.341 A 
HETATM   12  C17 UNL     1      21.621   6.915  50.792  1.00  0.00     0.536 A 
HETATM   13  N3  UNL     1      22.012   5.821  50.169  1.00  0.00     0.193 N 
HETATM   14  N2  UNL     1      21.675   5.922  51.493  1.00  0.00     0.185 N 
ENDBRANCH   8   9
ENDBRANCH   6   7
ENDBRANCH   1   6
BRANCH   3  15
HETATM   15  C6  UNL     1      26.690   1.090  53.679  1.00  0.00     0.100 C 
BRANCH  15  16
HETATM   16  C7  UNL     1      27.395  -0.186  53.419  1.00  0.00    -0.052 A 
HETATM   17  C8  UNL     1      28.715  -0.151  53.810  1.00  0.00     0.007 A 
HETATM   18  C9  UNL     1      29.489  -1.288  53.622  1.00  0.00     0.001 A 
HETATM   19  C10 UNL     1      28.951  -2.419  53.060  1.00  0.00     0.000 A 
HETATM   20  C11 UNL     1      27.615  -2.441  52.669  1.00  0.00     0.001 A 
HETATM   21  C12 UNL     1      26.816  -1.321  52.846  1.00  0.00     0.007 A 
ENDBRANCH  15  16
ENDBRANCH   3  15
TORSDOF 7
ENDMDL
