MODEL 1
REMARK VINA RESULT:      -6.6      0.000      0.000
REMARK  5 active torsions:
REMARK  status: ('A' for Active; 'I' for Inactive)
REMARK    1  A    between atoms: C2_2  and  O1_3 
REMARK    2  A    between atoms: O1_3  and  C3_4 
REMARK    3  A    between atoms: C4_5  and  N1_6 
REMARK    4  A    between atoms: N1_6  and  C5_7 
REMARK    5  A    between atoms: C5_7  and  C6_8 
ROOT
HETATM    1  C3  UNL     1      21.918   1.523  51.067  1.00  0.00     0.201 C 
HETATM    2  C4  UNL     1      22.635   0.784  52.083  1.00  0.00     0.040 C 
HETATM    3  C7  UNL     1      23.764   0.928  52.794  1.00  0.00     0.040 C 
HETATM    4  C8  UNL     1      24.650   2.106  52.628  1.00  0.00    -0.018 C 
HETATM    5  C9  UNL     1      24.241   3.360  52.934  1.00  0.00     0.011 C 
HETATM    6  C10 UNL     1      24.007   4.568  52.050  1.00  0.00     0.111 C 
HETATM    7  C11 UNL     1      22.547   4.939  52.247  1.00  0.00     0.063 C 
HETATM    8  C12 UNL     1      21.672   3.791  51.800  1.00  0.00    -0.075 C 
HETATM    9  C13 UNL     1      20.297   3.555  52.309  1.00  0.00     0.044 C 
HETATM   10  C14 UNL     1      22.188   2.940  50.882  1.00  0.00    -0.026 C 
HETATM   11  C15 UNL     1      22.942   3.818  49.888  1.00  0.00     0.160 C 
HETATM   12  N2  UNL     1      24.175   4.099  50.661  1.00  0.00    -0.376 N 
HETATM   13  C16 UNL     1      25.301   3.798  49.803  1.00  0.00     0.105 C 
HETATM   14  C17 UNL     1      26.468   3.183  50.144  1.00  0.00     0.133 C 
HETATM   15  N3  UNL     1      26.836   2.360  51.317  1.00  0.00    -0.271 NA
HETATM   16  C18 UNL     1      25.976   1.690  52.088  1.00  0.00     0.127 C 
ENDROOT
BRANCH   2  17
HETATM   17  N1  UNL     1      21.973  -0.466  52.423  1.00  0.00    -0.384 N 
HETATM   18  H7  UNL     1      22.305  -1.286  51.881  1.00  0.00     0.159 HD
BRANCH  17  19
HETATM   19  C5  UNL     1      20.956  -0.482  53.437  1.00  0.00     0.189 C 
BRANCH  19  20
HETATM   20  C6  UNL     1      21.223  -1.511  54.469  1.00  0.00     0.250 C 
HETATM   21  O2  UNL     1      22.129  -1.653  55.265  1.00  0.00    -0.305 OA
ENDBRANCH  19  20
ENDBRANCH  17  19
ENDBRANCH   2  17
BRANCH   1  22
HETATM   22  O1  UNL     1      21.856   0.836  49.825  1.00  0.00    -0.376 OA
BRANCH  22  23
HETATM   23  C2  UNL     1      20.634   1.213  49.268  1.00  0.00     0.164 C 
HETATM   24  C1  UNL     1      19.453   0.764  50.087  1.00  0.00     0.033 C 
ENDBRANCH  22  23
ENDBRANCH   1  22
TORSDOF 5
ENDMDL
MODEL 2
REMARK VINA RESULT:      -6.4      2.307      5.134
REMARK  5 active torsions:
REMARK  status: ('A' for Active; 'I' for Inactive)
REMARK    1  A    between atoms: C2_2  and  O1_3 
REMARK    2  A    between atoms: O1_3  and  C3_4 
REMARK    3  A    between atoms: C4_5  and  N1_6 
REMARK    4  A    between atoms: N1_6  and  C5_7 
REMARK    5  A    between atoms: C5_7  and  C6_8 
ROOT
HETATM    1  C3  UNL     1      23.586   3.131  51.866  1.00  0.00     0.201 C 
HETATM    2  C4  UNL     1      24.570   2.176  52.322  1.00  0.00     0.040 C 
HETATM    3  C7  UNL     1      24.588   0.897  52.730  1.00  0.00     0.040 C 
HETATM    4  C8  UNL     1      23.352   0.078  52.796  1.00  0.00    -0.018 C 
HETATM    5  C9  UNL     1      22.639  -0.235  51.688  1.00  0.00     0.011 C 
HETATM    6  C10 UNL     1      21.244   0.173  51.262  1.00  0.00     0.111 C 
HETATM    7  C11 UNL     1      21.417   0.890  49.933  1.00  0.00     0.063 C 
HETATM    8  C12 UNL     1      22.278   2.116  50.133  1.00  0.00    -0.075 C 
HETATM    9  C13 UNL     1      23.086   2.741  49.056  1.00  0.00     0.044 C 
HETATM   10  C14 UNL     1      22.300   2.662  51.372  1.00  0.00    -0.026 C 
HETATM   11  C15 UNL     1      20.863   2.591  51.876  1.00  0.00     0.160 C 
HETATM   12  N2  UNL     1      20.782   1.160  52.256  1.00  0.00    -0.376 N 
HETATM   13  C16 UNL     1      20.258   1.100  53.604  1.00  0.00     0.105 C 
HETATM   14  C17 UNL     1      20.653   0.277  54.615  1.00  0.00     0.133 C 
HETATM   15  N3  UNL     1      21.877  -0.533  54.799  1.00  0.00    -0.271 NA
HETATM   16  C18 UNL     1      23.051  -0.300  54.206  1.00  0.00     0.127 C 
ENDROOT
BRANCH   2  17
HETATM   17  N1  UNL     1      25.906   2.747  52.377  1.00  0.00    -0.384 N 
HETATM   18  H7  UNL     1      25.927   3.770  52.550  1.00  0.00     0.159 HD
BRANCH  17  19
HETATM   19  C5  UNL     1      27.053   1.901  52.197  1.00  0.00     0.189 C 
BRANCH  19  20
HETATM   20  C6  UNL     1      28.148   2.251  53.132  1.00  0.00     0.250 C 
HETATM   21  O2  UNL     1      28.147   2.647  54.280  1.00  0.00    -0.305 OA
ENDBRANCH  19  20
ENDBRANCH  17  19
ENDBRANCH   2  17
BRANCH   1  22
HETATM   22  O1  UNL     1      23.435   4.234  52.749  1.00  0.00    -0.376 OA
BRANCH  22  23
HETATM   23  C2  UNL     1      23.106   5.310  51.926  1.00  0.00     0.164 C 
HETATM   24  C1  UNL     1      24.249   5.750  51.051  1.00  0.00     0.033 C 
ENDBRANCH  22  23
ENDBRANCH   1  22
TORSDOF 5
ENDMDL
MODEL 3
REMARK VINA RESULT:      -6.2      3.771      6.812
REMARK  5 active torsions:
REMARK  status: ('A' for Active; 'I' for Inactive)
REMARK    1  A    between atoms: C2_2  and  O1_3 
REMARK    2  A    between atoms: O1_3  and  C3_4 
REMARK    3  A    between atoms: C4_5  and  N1_6 
REMARK    4  A    between atoms: N1_6  and  C5_7 
REMARK    5  A    between atoms: C5_7  and  C6_8 
ROOT
HETATM    1  C3  UNL     1      25.391   6.440  49.623  1.00  0.00     0.201 C 
HETATM    2  C4  UNL     1      26.416   5.466  49.321  1.00  0.00     0.040 C 
HETATM    3  C7  UNL     1      26.577   4.138  49.431  1.00  0.00     0.040 C 
HETATM    4  C8  UNL     1      25.520   3.264  49.996  1.00  0.00    -0.018 C 
HETATM    5  C9  UNL     1      24.315   3.116  49.397  1.00  0.00     0.011 C 
HETATM    6  C10 UNL     1      22.928   3.527  49.847  1.00  0.00     0.111 C 
HETATM    7  C11 UNL     1      22.415   4.471  48.773  1.00  0.00     0.063 C 
HETATM    8  C12 UNL     1      23.315   5.682  48.696  1.00  0.00    -0.075 C 
HETATM    9  C13 UNL     1      23.468   6.521  47.481  1.00  0.00     0.044 C 
HETATM   10  C14 UNL     1      24.016   6.005  49.810  1.00  0.00    -0.026 C 
HETATM   11  C15 UNL     1      23.057   5.782  50.975  1.00  0.00     0.160 C 
HETATM   12  N2  UNL     1      23.113   4.304  51.088  1.00  0.00    -0.376 N 
HETATM   13  C16 UNL     1      23.374   3.987  52.475  1.00  0.00     0.105 C 
HETATM   14  C17 UNL     1      24.198   3.019  52.967  1.00  0.00     0.133 C 
HETATM   15  N3  UNL     1      25.290   2.247  52.337  1.00  0.00    -0.271 NA
HETATM   16  C18 UNL     1      25.986   2.633  51.264  1.00  0.00     0.127 C 
ENDROOT
BRANCH   2  17
HETATM   17  N1  UNL     1      27.609   6.079  48.760  1.00  0.00    -0.384 N 
HETATM   18  H7  UNL     1      27.579   7.116  48.722  1.00  0.00     0.159 HD
BRANCH  17  19
HETATM   19  C5  UNL     1      28.697   5.253  48.317  1.00  0.00     0.189 C 
BRANCH  19  20
HETATM   20  C6  UNL     1      30.005   5.929  48.482  1.00  0.00     0.250 C 
HETATM   21  O2  UNL     1      31.090   5.528  48.852  1.00  0.00    -0.305 OA
ENDBRANCH  19  20
ENDBRANCH  17  19
ENDBRANCH   2  17
BRANCH   1  22
HETATM   22  O1  UNL     1      25.787   7.364  50.627  1.00  0.00    -0.376 OA
BRANCH  22  23
HETATM   23  C2  UNL     1      25.294   8.595  50.195  1.00  0.00     0.164 C 
HETATM   24  C1  UNL     1      26.337   9.435  49.509  1.00  0.00     0.033 C 
ENDBRANCH  22  23
ENDBRANCH   1  22
TORSDOF 5
ENDMDL
MODEL 4
REMARK VINA RESULT:      -6.2      2.855      6.140
REMARK  5 active torsions:
REMARK  status: ('A' for Active; 'I' for Inactive)
REMARK    1  A    between atoms: C2_2  and  O1_3 
REMARK    2  A    between atoms: O1_3  and  C3_4 
REMARK    3  A    between atoms: C4_5  and  N1_6 
REMARK    4  A    between atoms: N1_6  and  C5_7 
REMARK    5  A    between atoms: C5_7  and  C6_8 
ROOT
HETATM    1  C3  UNL     1      24.240   4.280  51.111  1.00  0.00     0.201 C 
HETATM    2  C4  UNL     1      23.417   5.397  51.518  1.00  0.00     0.040 C 
HETATM    3  C7  UNL     1      22.112   5.637  51.722  1.00  0.00     0.040 C 
HETATM    4  C8  UNL     1      21.082   4.588  51.526  1.00  0.00    -0.018 C 
HETATM    5  C9  UNL     1      21.043   3.469  52.287  1.00  0.00     0.011 C 
HETATM    6  C10 UNL     1      21.270   2.016  51.923  1.00  0.00     0.111 C 
HETATM    7  C11 UNL     1      22.436   1.558  52.783  1.00  0.00     0.063 C 
HETATM    8  C12 UNL     1      23.661   2.375  52.446  1.00  0.00    -0.075 C 
HETATM    9  C13 UNL     1      24.788   2.600  53.386  1.00  0.00     0.044 C 
HETATM   10  C14 UNL     1      23.717   2.926  51.209  1.00  0.00    -0.026 C 
HETATM   11  C15 UNL     1      23.167   1.864  50.263  1.00  0.00     0.160 C 
HETATM   12  N2  UNL     1      21.712   2.010  50.515  1.00  0.00    -0.376 N 
HETATM   13  C16 UNL     1      21.063   2.140  49.228  1.00  0.00     0.105 C 
HETATM   14  C17 UNL     1      20.035   2.971  48.894  1.00  0.00     0.133 C 
HETATM   15  N3  UNL     1      19.493   4.176  49.558  1.00  0.00    -0.271 NA
HETATM   16  C18 UNL     1      20.167   4.956  50.407  1.00  0.00     0.127 C 
ENDROOT
BRANCH   2  17
HETATM   17  N1  UNL     1      24.200   6.598  51.758  1.00  0.00    -0.384 N 
HETATM   18  H7  UNL     1      24.890   6.511  52.529  1.00  0.00     0.159 HD
BRANCH  17  19
HETATM   19  C5  UNL     1      23.980   7.768  50.954  1.00  0.00     0.189 C 
BRANCH  19  20
HETATM   20  C6  UNL     1      25.172   8.113  50.145  1.00  0.00     0.250 C 
HETATM   21  O2  UNL     1      26.305   7.677  50.134  1.00  0.00    -0.305 OA
ENDBRANCH  19  20
ENDBRANCH  17  19
ENDBRANCH   2  17
BRANCH   1  22
HETATM   22  O1  UNL     1      24.893   4.499  49.869  1.00  0.00    -0.376 OA
BRANCH  22  23
HETATM   23  C2  UNL     1      26.185   4.008  50.052  1.00  0.00     0.164 C 
HETATM   24  C1  UNL     1      27.142   4.466  48.984  1.00  0.00     0.033 C 
ENDBRANCH  22  23
ENDBRANCH   1  22
TORSDOF 5
ENDMDL
MODEL 5
REMARK VINA RESULT:      -6.1      2.416      4.745
REMARK  5 active torsions:
REMARK  status: ('A' for Active; 'I' for Inactive)
REMARK    1  A    between atoms: C2_2  and  O1_3 
REMARK    2  A    between atoms: O1_3  and  C3_4 
REMARK    3  A    between atoms: C4_5  and  N1_6 
REMARK    4  A    between atoms: N1_6  and  C5_7 
REMARK    5  A    between atoms: C5_7  and  C6_8 
ROOT
HETATM    1  C3  UNL     1      24.072   1.989  51.718  1.00  0.00     0.201 C 
HETATM    2  C4  UNL     1      24.043   3.125  52.613  1.00  0.00     0.040 C 
HETATM    3  C7  UNL     1      23.213   4.144  52.885  1.00  0.00     0.040 C 
HETATM    4  C8  UNL     1      21.923   4.316  52.172  1.00  0.00    -0.018 C 
HETATM    5  C9  UNL     1      20.921   3.411  52.272  1.00  0.00     0.011 C 
HETATM    6  C10 UNL     1      20.315   2.487  51.236  1.00  0.00     0.111 C 
HETATM    7  C11 UNL     1      20.518   1.081  51.775  1.00  0.00     0.063 C 
HETATM    8  C12 UNL     1      21.998   0.805  51.913  1.00  0.00    -0.075 C 
HETATM    9  C13 UNL     1      22.567  -0.185  52.862  1.00  0.00     0.044 C 
HETATM   10  C14 UNL     1      22.836   1.512  51.118  1.00  0.00    -0.026 C 
HETATM   11  C15 UNL     1      22.150   1.580  49.758  1.00  0.00     0.160 C 
HETATM   12  N2  UNL     1      21.140   2.634  50.021  1.00  0.00    -0.376 N 
HETATM   13  C16 UNL     1      21.248   3.611  48.959  1.00  0.00     0.105 C 
HETATM   14  C17 UNL     1      21.175   4.967  49.065  1.00  0.00     0.133 C 
HETATM   15  N3  UNL     1      21.300   5.869  50.231  1.00  0.00    -0.271 NA
HETATM   16  C18 UNL     1      21.934   5.572  51.369  1.00  0.00     0.127 C 
ENDROOT
BRANCH   2  17
HETATM   17  N1  UNL     1      25.240   3.209  53.435  1.00  0.00    -0.384 N 
HETATM   18  H7  UNL     1      25.500   4.175  53.712  1.00  0.00     0.159 HD
BRANCH  17  19
HETATM   19  C5  UNL     1      25.947   2.011  53.791  1.00  0.00     0.189 C 
BRANCH  19  20
HETATM   20  C6  UNL     1      27.402   2.134  53.536  1.00  0.00     0.250 C 
HETATM   21  O2  UNL     1      28.305   2.628  54.181  1.00  0.00    -0.305 OA
ENDBRANCH  19  20
ENDBRANCH  17  19
ENDBRANCH   2  17
BRANCH   1  22
HETATM   22  O1  UNL     1      25.121   2.065  50.763  1.00  0.00    -0.376 OA
BRANCH  22  23
HETATM   23  C2  UNL     1      24.923   3.280  50.109  1.00  0.00     0.164 C 
HETATM   24  C1  UNL     1      26.199   3.876  49.578  1.00  0.00     0.033 C 
ENDBRANCH  22  23
ENDBRANCH   1  22
TORSDOF 5
ENDMDL
MODEL 6
REMARK VINA RESULT:      -5.9      2.431      5.194
REMARK  5 active torsions:
REMARK  status: ('A' for Active; 'I' for Inactive)
REMARK    1  A    between atoms: C2_2  and  O1_3 
REMARK    2  A    between atoms: O1_3  and  C3_4 
REMARK    3  A    between atoms: C4_5  and  N1_6 
REMARK    4  A    between atoms: N1_6  and  C5_7 
REMARK    5  A    between atoms: C5_7  and  C6_8 
ROOT
HETATM    1  C3  UNL     1      22.671   3.615  51.448  1.00  0.00     0.201 C 
HETATM    2  C4  UNL     1      23.100   2.526  52.297  1.00  0.00     0.040 C 
HETATM    3  C7  UNL     1      22.748   1.249  52.516  1.00  0.00     0.040 C 
HETATM    4  C8  UNL     1      21.635   0.605  51.777  1.00  0.00    -0.018 C 
HETATM    5  C9  UNL     1      21.679   0.413  50.437  1.00  0.00     0.011 C 
HETATM    6  C10 UNL     1      20.847   1.015  49.323  1.00  0.00     0.111 C 
HETATM    7  C11 UNL     1      21.837   1.726  48.416  1.00  0.00     0.063 C 
HETATM    8  C12 UNL     1      22.534   2.820  49.191  1.00  0.00    -0.075 C 
HETATM    9  C13 UNL     1      23.878   3.348  48.846  1.00  0.00     0.044 C 
HETATM   10  C14 UNL     1      21.880   3.334  50.260  1.00  0.00    -0.026 C 
HETATM   11  C15 UNL     1      20.422   3.451  49.830  1.00  0.00     0.160 C 
HETATM   12  N2  UNL     1      19.992   2.037  49.955  1.00  0.00    -0.376 N 
HETATM   13  C16 UNL     1      18.775   2.024  50.738  1.00  0.00     0.105 C 
HETATM   14  C17 UNL     1      18.418   1.136  51.708  1.00  0.00     0.133 C 
HETATM   15  N3  UNL     1      19.213   0.164  52.488  1.00  0.00    -0.271 NA
HETATM   16  C18 UNL     1      20.528   0.245  52.709  1.00  0.00     0.127 C 
ENDROOT
BRANCH   2  17
HETATM   17  N1  UNL     1      24.200   2.908  53.169  1.00  0.00    -0.384 N 
HETATM   18  H7  UNL     1      24.044   3.792  53.690  1.00  0.00     0.159 HD
BRANCH  17  19
HETATM   19  C5  UNL     1      25.370   2.080  53.247  1.00  0.00     0.189 C 
BRANCH  19  20
HETATM   20  C6  UNL     1      26.259   2.270  52.077  1.00  0.00     0.250 C 
HETATM   21  O2  UNL     1      27.463   2.387  51.977  1.00  0.00    -0.305 OA
ENDBRANCH  19  20
ENDBRANCH  17  19
ENDBRANCH   2  17
BRANCH   1  22
HETATM   22  O1  UNL     1      22.143   4.711  52.181  1.00  0.00    -0.376 OA
BRANCH  22  23
HETATM   23  C2  UNL     1      22.461   5.836  51.422  1.00  0.00     0.164 C 
HETATM   24  C1  UNL     1      23.938   6.125  51.393  1.00  0.00     0.033 C 
ENDBRANCH  22  23
ENDBRANCH   1  22
TORSDOF 5
ENDMDL
MODEL 7
REMARK VINA RESULT:      -5.9      2.741      5.797
REMARK  5 active torsions:
REMARK  status: ('A' for Active; 'I' for Inactive)
REMARK    1  A    between atoms: C2_2  and  O1_3 
REMARK    2  A    between atoms: O1_3  and  C3_4 
REMARK    3  A    between atoms: C4_5  and  N1_6 
REMARK    4  A    between atoms: N1_6  and  C5_7 
REMARK    5  A    between atoms: C5_7  and  C6_8 
ROOT
HETATM    1  C3  UNL     1      23.087   4.945  50.349  1.00  0.00     0.201 C 
HETATM    2  C4  UNL     1      24.154   4.006  50.614  1.00  0.00     0.040 C 
HETATM    3  C7  UNL     1      24.271   2.691  50.861  1.00  0.00     0.040 C 
HETATM    4  C8  UNL     1      23.090   1.795  50.915  1.00  0.00    -0.018 C 
HETATM    5  C9  UNL     1      22.309   1.571  49.832  1.00  0.00     0.011 C 
HETATM    6  C10 UNL     1      20.865   1.938  49.561  1.00  0.00     0.111 C 
HETATM    7  C11 UNL     1      20.894   2.816  48.320  1.00  0.00     0.063 C 
HETATM    8  C12 UNL     1      21.702   4.061  48.605  1.00  0.00    -0.075 C 
HETATM    9  C13 UNL     1      22.389   4.857  47.556  1.00  0.00     0.044 C 
HETATM   10  C14 UNL     1      21.794   4.458  49.897  1.00  0.00    -0.026 C 
HETATM   11  C15 UNL     1      20.406   4.240  50.491  1.00  0.00     0.160 C 
HETATM   12  N2  UNL     1      20.431   2.772  50.698  1.00  0.00    -0.376 N 
HETATM   13  C16 UNL     1      20.020   2.522  52.063  1.00  0.00     0.105 C 
HETATM   14  C17 UNL     1      20.536   1.612  52.936  1.00  0.00     0.133 C 
HETATM   15  N3  UNL     1      21.812   0.863  52.931  1.00  0.00    -0.271 NA
HETATM   16  C18 UNL     1      22.921   1.236  52.287  1.00  0.00     0.127 C 
ENDROOT
BRANCH   2  17
HETATM   17  N1  UNL     1      25.458   4.648  50.641  1.00  0.00    -0.384 N 
HETATM   18  H7  UNL     1      25.913   4.652  51.575  1.00  0.00     0.159 HD
BRANCH  17  19
HETATM   19  C5  UNL     1      26.005   5.205  49.436  1.00  0.00     0.189 C 
BRANCH  19  20
HETATM   20  C6  UNL     1      27.183   4.441  48.961  1.00  0.00     0.250 C 
HETATM   21  O2  UNL     1      28.273   4.790  48.558  1.00  0.00    -0.305 OA
ENDBRANCH  19  20
ENDBRANCH  17  19
ENDBRANCH   2  17
BRANCH   1  22
HETATM   22  O1  UNL     1      22.949   5.925  51.369  1.00  0.00    -0.376 OA
BRANCH  22  23
HETATM   23  C2  UNL     1      22.730   7.122  50.688  1.00  0.00     0.164 C 
HETATM   24  C1  UNL     1      23.942   8.015  50.670  1.00  0.00     0.033 C 
ENDBRANCH  22  23
ENDBRANCH   1  22
TORSDOF 5
ENDMDL
MODEL 8
REMARK VINA RESULT:      -5.9      3.118      6.123
REMARK  5 active torsions:
REMARK  status: ('A' for Active; 'I' for Inactive)
REMARK    1  A    between atoms: C2_2  and  O1_3 
REMARK    2  A    between atoms: O1_3  and  C3_4 
REMARK    3  A    between atoms: C4_5  and  N1_6 
REMARK    4  A    between atoms: N1_6  and  C5_7 
REMARK    5  A    between atoms: C5_7  and  C6_8 
ROOT
HETATM    1  C3  UNL     1      25.013   3.990  50.679  1.00  0.00     0.201 C 
HETATM    2  C4  UNL     1      24.986   5.243  49.959  1.00  0.00     0.040 C 
HETATM    3  C7  UNL     1      24.123   5.914  49.179  1.00  0.00     0.040 C 
HETATM    4  C8  UNL     1      22.777   5.378  48.859  1.00  0.00    -0.018 C 
HETATM    5  C9  UNL     1      21.836   5.181  49.813  1.00  0.00     0.011 C 
HETATM    6  C10 UNL     1      21.208   3.905  50.334  1.00  0.00     0.111 C 
HETATM    7  C11 UNL     1      21.528   3.872  51.819  1.00  0.00     0.063 C 
HETATM    8  C12 UNL     1      23.026   3.828  52.010  1.00  0.00    -0.075 C 
HETATM    9  C13 UNL     1      23.717   4.311  53.232  1.00  0.00     0.044 C 
HETATM   10  C14 UNL     1      23.765   3.314  50.997  1.00  0.00    -0.026 C 
HETATM   11  C15 UNL     1      22.978   2.111  50.487  1.00  0.00     0.160 C 
HETATM   12  N2  UNL     1      21.933   2.795  49.687  1.00  0.00    -0.376 N 
HETATM   13  C16 UNL     1      21.910   2.170  48.382  1.00  0.00     0.105 C 
HETATM   14  C17 UNL     1      21.770   2.776  47.170  1.00  0.00     0.133 C 
HETATM   15  N3  UNL     1      21.929   4.187  46.754  1.00  0.00    -0.271 NA
HETATM   16  C18 UNL     1      22.660   5.101  47.398  1.00  0.00     0.127 C 
ENDROOT
BRANCH   2  17
HETATM   17  N1  UNL     1      26.233   5.979  50.090  1.00  0.00    -0.384 N 
HETATM   18  H7  UNL     1      26.637   5.968  51.046  1.00  0.00     0.159 HD
BRANCH  17  19
HETATM   19  C5  UNL     1      26.796   6.641  48.946  1.00  0.00     0.189 C 
BRANCH  19  20
HETATM   20  C6  UNL     1      27.865   5.833  48.313  1.00  0.00     0.250 C 
HETATM   21  O2  UNL     1      28.397   4.790  48.633  1.00  0.00    -0.305 OA
ENDBRANCH  19  20
ENDBRANCH  17  19
ENDBRANCH   2  17
BRANCH   1  22
HETATM   22  O1  UNL     1      25.983   3.083  50.175  1.00  0.00    -0.376 OA
BRANCH  22  23
HETATM   23  C2  UNL     1      26.702   2.668  51.295  1.00  0.00     0.164 C 
HETATM   24  C1  UNL     1      26.556   1.196  51.573  1.00  0.00     0.033 C 
ENDBRANCH  22  23
ENDBRANCH   1  22
TORSDOF 5
ENDMDL
MODEL 9
REMARK VINA RESULT:      -5.8      1.816      2.444
REMARK  5 active torsions:
REMARK  status: ('A' for Active; 'I' for Inactive)
REMARK    1  A    between atoms: C2_2  and  O1_3 
REMARK    2  A    between atoms: O1_3  and  C3_4 
REMARK    3  A    between atoms: C4_5  and  N1_6 
REMARK    4  A    between atoms: N1_6  and  C5_7 
REMARK    5  A    between atoms: C5_7  and  C6_8 
ROOT
HETATM    1  C3  UNL     1      22.177   1.642  50.851  1.00  0.00     0.201 C 
HETATM    2  C4  UNL     1      21.872   0.593  51.798  1.00  0.00     0.040 C 
HETATM    3  C7  UNL     1      22.477  -0.002  52.839  1.00  0.00     0.040 C 
HETATM    4  C8  UNL     1      23.834   0.394  53.287  1.00  0.00    -0.018 C 
HETATM    5  C9  UNL     1      24.096   1.628  53.780  1.00  0.00     0.011 C 
HETATM    6  C10 UNL     1      24.954   2.750  53.231  1.00  0.00     0.111 C 
HETATM    7  C11 UNL     1      24.014   3.930  53.053  1.00  0.00     0.063 C 
HETATM    8  C12 UNL     1      22.935   3.568  52.059  1.00  0.00    -0.075 C 
HETATM    9  C13 UNL     1      21.595   4.207  52.026  1.00  0.00     0.044 C 
HETATM   10  C14 UNL     1      23.226   2.604  51.154  1.00  0.00    -0.026 C 
HETATM   11  C15 UNL     1      24.666   2.865  50.726  1.00  0.00     0.160 C 
HETATM   12  N2  UNL     1      25.396   2.313  51.893  1.00  0.00    -0.376 N 
HETATM   13  C16 UNL     1      26.406   1.410  51.383  1.00  0.00     0.105 C 
HETATM   14  C17 UNL     1      26.776   0.201  51.892  1.00  0.00     0.133 C 
HETATM   15  N3  UNL     1      26.107  -0.706  52.850  1.00  0.00    -0.271 NA
HETATM   16  C18 UNL     1      24.795  -0.731  53.099  1.00  0.00     0.127 C 
ENDROOT
BRANCH   2  17
HETATM   17  N1  UNL     1      20.566  -0.001  51.560  1.00  0.00    -0.384 N 
HETATM   18  H7  UNL     1      20.577  -0.808  50.907  1.00  0.00     0.159 HD
BRANCH  17  19
HETATM   19  C5  UNL     1      19.406   0.541  52.209  1.00  0.00     0.189 C 
BRANCH  19  20
HETATM   20  C6  UNL     1      18.397  -0.506  52.497  1.00  0.00     0.250 C 
HETATM   21  O2  UNL     1      18.355  -1.394  53.323  1.00  0.00    -0.305 OA
ENDBRANCH  19  20
ENDBRANCH  17  19
ENDBRANCH   2  17
BRANCH   1  22
HETATM   22  O1  UNL     1      22.271   1.170  49.515  1.00  0.00    -0.376 OA
BRANCH  22  23
HETATM   23  C2  UNL     1      21.571   2.105  48.754  1.00  0.00     0.164 C 
HETATM   24  C1  UNL     1      22.285   2.480  47.483  1.00  0.00     0.033 C 
ENDBRANCH  22  23
ENDBRANCH   1  22
TORSDOF 5
ENDMDL
