MODEL 1
REMARK VINA RESULT:      -8.2      0.000      0.000
REMARK  6 active torsions:
REMARK  status: ('A' for Active; 'I' for Inactive)
REMARK    1  A    between atoms: C4_4  and  C5_5 
REMARK    2  A    between atoms: C5_5  and  C6_6 
REMARK    3  A    between atoms: C5_5  and  N1_8 
REMARK    4  A    between atoms: C6_6  and  O1_7 
REMARK    5  A    between atoms: N1_8  and  C7_9 
REMARK       I    between atoms: N4_20  and  C15_21 
REMARK    6  A    between atoms: C15_21  and  C16_23 
ROOT
HETATM    1  C7  UNL     1      22.293   2.836  52.263  1.00  0.00     0.139 A 
HETATM    2  N2  UNL     1      20.964   2.735  52.369  1.00  0.00    -0.224 NA
HETATM    3  C8  UNL     1      20.245   1.723  52.791  1.00  0.00     0.236 A 
HETATM    4  N3  UNL     1      20.981   0.664  53.158  1.00  0.00    -0.234 NA
HETATM    5  C9  UNL     1      22.279   0.713  53.075  1.00  0.00     0.114 A 
HETATM    6  S1  UNL     1      23.460  -0.547  53.493  1.00  0.00    -0.072 SA
HETATM    7  C10 UNL     1      24.917   0.362  53.073  1.00  0.00     0.010 A 
HETATM    8  C11 UNL     1      24.411   1.660  52.607  1.00  0.00    -0.025 A 
HETATM    9  C12 UNL     1      23.056   1.762  52.636  1.00  0.00     0.053 A 
HETATM   10  C13 UNL     1      25.641   2.390  52.280  1.00  0.00     0.060 C 
HETATM   11  C14 UNL     1      26.599   2.345  53.500  1.00  0.00     0.131 C 
HETATM   12  N4  UNL     1      27.183   1.046  53.673  1.00  0.00    -0.347 N 
HETATM   13  C15 UNL     1      28.437   0.858  54.310  1.00  0.00     0.219 C 
HETATM   14  O2  UNL     1      28.901   1.987  54.668  1.00  0.00    -0.273 OA
HETATM   15  C18 UNL     1      26.357  -0.017  53.134  1.00  0.00     0.172 C 
ENDROOT
BRANCH   1  16
HETATM   16  N1  UNL     1      22.790   4.056  51.737  1.00  0.00    -0.363 N 
HETATM   17  H8  UNL     1      23.042   4.944  52.157  1.00  0.00     0.162 HD
BRANCH  16  18
HETATM   18  C5  UNL     1      23.058   4.231  50.331  1.00  0.00     0.140 C 
BRANCH  18  19
HETATM   19  C4  UNL     1      24.301   4.912  49.973  1.00  0.00    -0.029 A 
HETATM   20  C3  UNL     1      25.405   4.548  49.354  1.00  0.00     0.045 A 
HETATM   21  C2  UNL     1      26.456   5.533  49.182  1.00  0.00     0.066 A 
HETATM   22  C1  UNL     1      27.517   5.083  48.555  1.00  0.00     0.051 C 
HETATM   23  O3  UNL     1      26.378   6.840  49.627  1.00  0.00    -0.324 OA
HETATM   24  C20 UNL     1      25.206   7.204  50.278  1.00  0.00     0.143 A 
HETATM   25  C19 UNL     1      24.244   6.315  50.440  1.00  0.00     0.034 A 
ENDBRANCH  18  19
BRANCH  18  26
HETATM   26  C6  UNL     1      21.904   4.894  49.589  1.00  0.00     0.194 C 
BRANCH  26  27
HETATM   27  O1  UNL     1      20.797   5.120  50.371  1.00  0.00    -0.399 OA
HETATM   28  H7  UNL     1      20.037   5.552  49.912  1.00  0.00     0.209 HD
ENDBRANCH  26  27
ENDBRANCH  18  26
ENDBRANCH  16  18
ENDBRANCH   1  16
BRANCH  13  29
HETATM   29  C16 UNL     1      28.941  -0.533  54.432  1.00  0.00     0.098 C 
HETATM   30  C17 UNL     1      30.079  -0.799  53.470  1.00  0.00     0.014 C 
ENDBRANCH  13  29
TORSDOF 6
ENDMDL
MODEL 2
REMARK VINA RESULT:      -8.2      1.553      1.994
REMARK  6 active torsions:
REMARK  status: ('A' for Active; 'I' for Inactive)
REMARK    1  A    between atoms: C4_4  and  C5_5 
REMARK    2  A    between atoms: C5_5  and  C6_6 
REMARK    3  A    between atoms: C5_5  and  N1_8 
REMARK    4  A    between atoms: C6_6  and  O1_7 
REMARK    5  A    between atoms: N1_8  and  C7_9 
REMARK       I    between atoms: N4_20  and  C15_21 
REMARK    6  A    between atoms: C15_21  and  C16_23 
ROOT
HETATM    1  C7  UNL     1      21.417   0.632  52.169  1.00  0.00     0.139 A 
HETATM    2  N2  UNL     1      20.145   0.362  52.477  1.00  0.00    -0.224 NA
HETATM    3  C8  UNL     1      19.671  -0.377  53.451  1.00  0.00     0.236 A 
HETATM    4  N3  UNL     1      20.626  -0.917  54.221  1.00  0.00    -0.234 NA
HETATM    5  C9  UNL     1      21.880  -0.685  53.963  1.00  0.00     0.114 A 
HETATM    6  S1  UNL     1      23.314  -1.283  54.826  1.00  0.00    -0.072 SA
HETATM    7  C10 UNL     1      24.531  -0.492  53.814  1.00  0.00     0.010 A 
HETATM    8  C11 UNL     1      23.746   0.234  52.807  1.00  0.00    -0.025 A 
HETATM    9  C12 UNL     1      22.402   0.086  52.948  1.00  0.00     0.053 A 
HETATM   10  C13 UNL     1      24.781   0.885  51.997  1.00  0.00     0.060 C 
HETATM   11  C14 UNL     1      25.735   1.678  52.930  1.00  0.00     0.131 C 
HETATM   12  N4  UNL     1      26.594   0.807  53.680  1.00  0.00    -0.347 N 
HETATM   13  C15 UNL     1      27.863   1.222  54.159  1.00  0.00     0.219 C 
HETATM   14  O2  UNL     1      28.068   2.429  53.814  1.00  0.00    -0.273 OA
HETATM   15  C18 UNL     1      26.019  -0.509  53.883  1.00  0.00     0.172 C 
ENDROOT
BRANCH   1  16
HETATM   16  N1  UNL     1      21.628   1.446  51.026  1.00  0.00    -0.363 N 
HETATM   17  H8  UNL     1      21.870   1.243  50.062  1.00  0.00     0.162 HD
BRANCH  16  18
HETATM   18  C5  UNL     1      21.500   2.882  51.074  1.00  0.00     0.140 C 
BRANCH  18  19
HETATM   19  C4  UNL     1      22.710   3.662  50.822  1.00  0.00    -0.029 A 
HETATM   20  C3  UNL     1      23.788   3.479  50.088  1.00  0.00     0.045 A 
HETATM   21  C2  UNL     1      24.809   4.509  50.092  1.00  0.00     0.066 A 
HETATM   22  C1  UNL     1      25.845   4.242  49.332  1.00  0.00     0.051 C 
HETATM   23  O3  UNL     1      24.729   5.680  50.821  1.00  0.00    -0.324 OA
HETATM   24  C20 UNL     1      23.585   5.855  51.591  1.00  0.00     0.143 A 
HETATM   25  C19 UNL     1      22.650   4.924  51.593  1.00  0.00     0.034 A 
ENDBRANCH  18  19
BRANCH  18  26
HETATM   26  C6  UNL     1      20.859   3.373  52.366  1.00  0.00     0.194 C 
BRANCH  26  27
HETATM   27  O1  UNL     1      19.486   3.403  52.328  1.00  0.00    -0.399 OA
HETATM   28  H7  UNL     1      19.094   4.078  51.724  1.00  0.00     0.209 HD
ENDBRANCH  26  27
ENDBRANCH  18  26
ENDBRANCH  16  18
ENDBRANCH   1  16
BRANCH  13  29
HETATM   29  C16 UNL     1      28.663   0.233  54.924  1.00  0.00     0.098 C 
HETATM   30  C17 UNL     1      29.663  -0.478  54.039  1.00  0.00     0.014 C 
ENDBRANCH  13  29
TORSDOF 6
ENDMDL
MODEL 3
REMARK VINA RESULT:      -8.1      2.385      6.130
REMARK  6 active torsions:
REMARK  status: ('A' for Active; 'I' for Inactive)
REMARK    1  A    between atoms: C4_4  and  C5_5 
REMARK    2  A    between atoms: C5_5  and  C6_6 
REMARK    3  A    between atoms: C5_5  and  N1_8 
REMARK    4  A    between atoms: C6_6  and  O1_7 
REMARK    5  A    between atoms: N1_8  and  C7_9 
REMARK       I    between atoms: N4_20  and  C15_21 
REMARK    6  A    between atoms: C15_21  and  C16_23 
ROOT
HETATM    1  C7  UNL     1      22.250   0.354  52.801  1.00  0.00     0.139 A 
HETATM    2  N2  UNL     1      21.037  -0.160  53.027  1.00  0.00    -0.224 NA
HETATM    3  C8  UNL     1      19.862   0.406  52.892  1.00  0.00     0.236 A 
HETATM    4  N3  UNL     1      19.930   1.675  52.466  1.00  0.00    -0.234 NA
HETATM    5  C9  UNL     1      21.087   2.223  52.231  1.00  0.00     0.114 A 
HETATM    6  S1  UNL     1      21.435   3.872  51.669  1.00  0.00    -0.072 SA
HETATM    7  C10 UNL     1      23.197   3.732  51.636  1.00  0.00     0.010 A 
HETATM    8  C11 UNL     1      23.458   2.356  52.079  1.00  0.00    -0.025 A 
HETATM    9  C12 UNL     1      22.332   1.649  52.365  1.00  0.00     0.053 A 
HETATM   10  C13 UNL     1      24.921   2.270  52.028  1.00  0.00     0.060 C 
HETATM   11  C14 UNL     1      25.409   2.719  50.625  1.00  0.00     0.131 C 
HETATM   12  N4  UNL     1      25.291   4.138  50.446  1.00  0.00    -0.347 N 
HETATM   13  C15 UNL     1      26.119   4.861  49.550  1.00  0.00     0.219 C 
HETATM   14  O2  UNL     1      26.925   4.058  48.981  1.00  0.00    -0.273 OA
HETATM   15  C18 UNL     1      24.249   4.721  51.270  1.00  0.00     0.172 C 
ENDROOT
BRANCH   1  16
HETATM   16  N1  UNL     1      23.353  -0.496  53.070  1.00  0.00    -0.363 N 
HETATM   17  H8  UNL     1      23.780  -1.263  52.561  1.00  0.00     0.162 HD
BRANCH  16  18
HETATM   18  C5  UNL     1      24.145  -0.368  54.268  1.00  0.00     0.140 C 
BRANCH  18  19
HETATM   19  C4  UNL     1      25.597  -0.375  54.105  1.00  0.00    -0.029 A 
HETATM   20  C3  UNL     1      26.594   0.244  54.703  1.00  0.00     0.045 A 
HETATM   21  C2  UNL     1      27.945  -0.025  54.249  1.00  0.00     0.066 A 
HETATM   22  C1  UNL     1      28.873   0.635  54.902  1.00  0.00     0.051 C 
HETATM   23  O3  UNL     1      28.262  -0.895  53.223  1.00  0.00    -0.324 OA
HETATM   24  C20 UNL     1      27.198  -1.538  52.604  1.00  0.00     0.143 A 
HETATM   25  C19 UNL     1      25.965  -1.299  53.010  1.00  0.00     0.034 A 
ENDBRANCH  18  19
BRANCH  18  26
HETATM   26  C6  UNL     1      23.766  -1.385  55.336  1.00  0.00     0.194 C 
BRANCH  26  27
HETATM   27  O1  UNL     1      22.422  -1.665  55.386  1.00  0.00    -0.399 OA
HETATM   28  H7  UNL     1      22.180  -2.495  55.864  1.00  0.00     0.209 HD
ENDBRANCH  26  27
ENDBRANCH  18  26
ENDBRANCH  16  18
ENDBRANCH   1  16
BRANCH  13  29
HETATM   29  C16 UNL     1      25.904   6.326  49.450  1.00  0.00     0.098 C 
HETATM   30  C17 UNL     1      26.802   6.950  48.404  1.00  0.00     0.014 C 
ENDBRANCH  13  29
TORSDOF 6
ENDMDL
MODEL 4
REMARK VINA RESULT:      -8.1      2.752      6.090
REMARK  6 active torsions:
REMARK  status: ('A' for Active; 'I' for Inactive)
REMARK    1  A    between atoms: C4_4  and  C5_5 
REMARK    2  A    between atoms: C5_5  and  C6_6 
REMARK    3  A    between atoms: C5_5  and  N1_8 
REMARK    4  A    between atoms: C6_6  and  O1_7 
REMARK    5  A    between atoms: N1_8  and  C7_9 
REMARK       I    between atoms: N4_20  and  C15_21 
REMARK    6  A    between atoms: C15_21  and  C16_23 
ROOT
HETATM    1  C7  UNL     1      23.566   0.228  53.699  1.00  0.00     0.139 A 
HETATM    2  N2  UNL     1      23.727  -0.621  54.719  1.00  0.00    -0.224 NA
HETATM    3  C8  UNL     1      24.829  -1.173  55.168  1.00  0.00     0.236 A 
HETATM    4  N3  UNL     1      25.922  -0.810  54.483  1.00  0.00    -0.234 NA
HETATM    5  C9  UNL     1      25.820   0.015  53.481  1.00  0.00     0.114 A 
HETATM    6  S1  UNL     1      27.107   0.638  52.426  1.00  0.00    -0.072 SA
HETATM    7  C10 UNL     1      26.085   1.646  51.394  1.00  0.00     0.010 A 
HETATM    8  C11 UNL     1      24.730   1.453  51.929  1.00  0.00    -0.025 A 
HETATM    9  C12 UNL     1      24.676   0.607  52.992  1.00  0.00     0.053 A 
HETATM   10  C13 UNL     1      23.914   2.309  51.062  1.00  0.00     0.060 C 
HETATM   11  C14 UNL     1      24.522   3.737  51.037  1.00  0.00     0.131 C 
HETATM   12  N4  UNL     1      25.736   3.787  50.273  1.00  0.00    -0.347 N 
HETATM   13  C15 UNL     1      26.187   4.976  49.643  1.00  0.00     0.219 C 
HETATM   14  O2  UNL     1      25.360   5.914  49.874  1.00  0.00    -0.273 OA
HETATM   15  C18 UNL     1      26.424   2.511  50.230  1.00  0.00     0.172 C 
ENDROOT
BRANCH   1  16
HETATM   16  N1  UNL     1      22.236   0.636  53.424  1.00  0.00    -0.363 N 
HETATM   17  H8  UNL     1      21.724   1.496  53.588  1.00  0.00     0.162 HD
BRANCH  16  18
HETATM   18  C5  UNL     1      21.289  -0.232  52.770  1.00  0.00     0.140 C 
BRANCH  18  19
HETATM   19  C4  UNL     1      20.578   0.314  51.615  1.00  0.00    -0.029 A 
HETATM   20  C3  UNL     1      20.947   0.954  50.525  1.00  0.00     0.045 A 
HETATM   21  C2  UNL     1      19.923   1.352  49.578  1.00  0.00     0.066 A 
HETATM   22  C1  UNL     1      20.383   1.983  48.523  1.00  0.00     0.051 C 
HETATM   23  O3  UNL     1      18.574   1.103  49.742  1.00  0.00    -0.324 OA
HETATM   24  C20 UNL     1      18.203   0.428  50.898  1.00  0.00     0.143 A 
HETATM   25  C19 UNL     1      19.128   0.062  51.766  1.00  0.00     0.034 A 
ENDBRANCH  18  19
BRANCH  18  26
HETATM   26  C6  UNL     1      20.272  -0.829  53.735  1.00  0.00     0.194 C 
BRANCH  26  27
HETATM   27  O1  UNL     1      20.836  -1.457  54.819  1.00  0.00    -0.399 OA
HETATM   28  H7  UNL     1      21.121  -0.861  55.552  1.00  0.00     0.209 HD
ENDBRANCH  26  27
ENDBRANCH  18  26
ENDBRANCH  16  18
ENDBRANCH   1  16
BRANCH  13  29
HETATM   29  C16 UNL     1      27.458   4.906  48.880  1.00  0.00     0.098 C 
HETATM   30  C17 UNL     1      27.794   6.234  48.236  1.00  0.00     0.014 C 
ENDBRANCH  13  29
TORSDOF 6
ENDMDL
MODEL 5
REMARK VINA RESULT:      -8.0      2.717      6.332
REMARK  6 active torsions:
REMARK  status: ('A' for Active; 'I' for Inactive)
REMARK    1  A    between atoms: C4_4  and  C5_5 
REMARK    2  A    between atoms: C5_5  and  C6_6 
REMARK    3  A    between atoms: C5_5  and  N1_8 
REMARK    4  A    between atoms: C6_6  and  O1_7 
REMARK    5  A    between atoms: N1_8  and  C7_9 
REMARK       I    between atoms: N4_20  and  C15_21 
REMARK    6  A    between atoms: C15_21  and  C16_23 
ROOT
HETATM    1  C7  UNL     1      23.933   3.956  51.892  1.00  0.00     0.139 A 
HETATM    2  N2  UNL     1      24.093   5.261  51.647  1.00  0.00    -0.224 NA
HETATM    3  C8  UNL     1      23.197   6.150  51.292  1.00  0.00     0.236 A 
HETATM    4  N3  UNL     1      21.963   5.640  51.168  1.00  0.00    -0.234 NA
HETATM    5  C9  UNL     1      21.755   4.376  51.395  1.00  0.00     0.114 A 
HETATM    6  S1  UNL     1      20.227   3.473  51.295  1.00  0.00    -0.072 SA
HETATM    7  C10 UNL     1      20.872   1.890  51.749  1.00  0.00     0.010 A 
HETATM    8  C11 UNL     1      22.304   2.132  51.970  1.00  0.00    -0.025 A 
HETATM    9  C12 UNL     1      22.678   3.424  51.769  1.00  0.00     0.053 A 
HETATM   10  C13 UNL     1      22.802   0.808  52.355  1.00  0.00     0.060 C 
HETATM   11  C14 UNL     1      21.939   0.258  53.521  1.00  0.00     0.131 C 
HETATM   12  N4  UNL     1      20.635  -0.146  53.077  1.00  0.00    -0.347 N 
HETATM   13  C15 UNL     1      19.878  -1.138  53.752  1.00  0.00     0.219 C 
HETATM   14  O2  UNL     1      20.538  -1.563  54.752  1.00  0.00    -0.273 OA
HETATM   15  C18 UNL     1      20.202   0.566  51.890  1.00  0.00     0.172 C 
ENDROOT
BRANCH   1  16
HETATM   16  N1  UNL     1      25.105   3.232  52.229  1.00  0.00    -0.363 N 
HETATM   17  H8  UNL     1      25.726   3.246  53.032  1.00  0.00     0.162 HD
BRANCH  16  18
HETATM   18  C5  UNL     1      25.656   2.220  51.362  1.00  0.00     0.140 C 
BRANCH  18  19
HETATM   19  C4  UNL     1      26.474   1.184  51.990  1.00  0.00    -0.029 A 
HETATM   20  C3  UNL     1      26.453  -0.132  51.988  1.00  0.00     0.045 A 
HETATM   21  C2  UNL     1      27.459  -0.840  52.757  1.00  0.00     0.066 A 
HETATM   22  C1  UNL     1      27.361  -2.147  52.696  1.00  0.00     0.051 C 
HETATM   23  O3  UNL     1      28.448  -0.221  53.499  1.00  0.00    -0.324 OA
HETATM   24  C20 UNL     1      28.453   1.168  53.489  1.00  0.00     0.143 A 
HETATM   25  C19 UNL     1      27.542   1.820  52.792  1.00  0.00     0.034 A 
ENDBRANCH  18  19
BRANCH  18  26
HETATM   26  C6  UNL     1      26.427   2.808  50.186  1.00  0.00     0.194 C 
BRANCH  26  27
HETATM   27  O1  UNL     1      26.992   4.033  50.447  1.00  0.00    -0.399 OA
HETATM   28  H7  UNL     1      26.374   4.717  50.799  1.00  0.00     0.209 HD
ENDBRANCH  26  27
ENDBRANCH  18  26
ENDBRANCH  16  18
ENDBRANCH   1  16
BRANCH  13  29
HETATM   29  C16 UNL     1      18.542  -1.472  53.199  1.00  0.00     0.098 C 
HETATM   30  C17 UNL     1      17.978  -2.727  53.829  1.00  0.00     0.014 C 
ENDBRANCH  13  29
TORSDOF 6
ENDMDL
MODEL 6
REMARK VINA RESULT:      -8.0      2.774      5.712
REMARK  6 active torsions:
REMARK  status: ('A' for Active; 'I' for Inactive)
REMARK    1  A    between atoms: C4_4  and  C5_5 
REMARK    2  A    between atoms: C5_5  and  C6_6 
REMARK    3  A    between atoms: C5_5  and  N1_8 
REMARK    4  A    between atoms: C6_6  and  O1_7 
REMARK    5  A    between atoms: N1_8  and  C7_9 
REMARK       I    between atoms: N4_20  and  C15_21 
REMARK    6  A    between atoms: C15_21  and  C16_23 
ROOT
HETATM    1  C7  UNL     1      22.669   3.040  50.615  1.00  0.00     0.139 A 
HETATM    2  N2  UNL     1      22.187   3.758  49.595  1.00  0.00    -0.224 NA
HETATM    3  C8  UNL     1      22.840   4.434  48.681  1.00  0.00     0.236 A 
HETATM    4  N3  UNL     1      24.171   4.373  48.824  1.00  0.00    -0.234 NA
HETATM    5  C9  UNL     1      24.691   3.687  49.801  1.00  0.00     0.114 A 
HETATM    6  S1  UNL     1      26.408   3.458  50.199  1.00  0.00    -0.072 SA
HETATM    7  C10 UNL     1      26.174   2.431  51.619  1.00  0.00     0.010 A 
HETATM    8  C11 UNL     1      24.715   2.300  51.734  1.00  0.00    -0.025 A 
HETATM    9  C12 UNL     1      24.027   2.969  50.771  1.00  0.00     0.053 A 
HETATM   10  C13 UNL     1      24.559   1.436  52.909  1.00  0.00     0.060 C 
HETATM   11  C14 UNL     1      25.421   0.159  52.722  1.00  0.00     0.131 C 
HETATM   12  N4  UNL     1      26.822   0.435  52.868  1.00  0.00    -0.347 N 
HETATM   13  C15 UNL     1      27.750  -0.555  53.282  1.00  0.00     0.219 C 
HETATM   14  O2  UNL     1      27.136  -1.650  53.482  1.00  0.00    -0.273 OA
HETATM   15  C18 UNL     1      27.160   1.809  52.547  1.00  0.00     0.172 C 
ENDROOT
BRANCH   1  16
HETATM   16  N1  UNL     1      21.709   2.439  51.470  1.00  0.00    -0.363 N 
HETATM   17  H8  UNL     1      21.521   2.510  52.464  1.00  0.00     0.162 HD
BRANCH  16  18
HETATM   18  C5  UNL     1      20.716   1.517  50.977  1.00  0.00     0.140 C 
BRANCH  18  19
HETATM   19  C4  UNL     1      20.225   0.510  51.915  1.00  0.00    -0.029 A 
HETATM   20  C3  UNL     1      19.048  -0.030  52.154  1.00  0.00     0.045 A 
HETATM   21  C2  UNL     1      18.946  -1.029  53.200  1.00  0.00     0.066 A 
HETATM   22  C1  UNL     1      17.737  -1.512  53.366  1.00  0.00     0.051 C 
HETATM   23  O3  UNL     1      20.009  -1.459  53.971  1.00  0.00    -0.324 OA
HETATM   24  C20 UNL     1      21.243  -0.877  53.706  1.00  0.00     0.143 A 
HETATM   25  C19 UNL     1      21.345   0.033  52.756  1.00  0.00     0.034 A 
ENDBRANCH  18  19
BRANCH  18  26
HETATM   26  C6  UNL     1      21.145   0.822  49.690  1.00  0.00     0.194 C 
BRANCH  26  27
HETATM   27  O1  UNL     1      20.564   1.341  48.558  1.00  0.00    -0.399 OA
HETATM   28  H7  UNL     1      19.630   1.642  48.662  1.00  0.00     0.209 HD
ENDBRANCH  26  27
ENDBRANCH  18  26
ENDBRANCH  16  18
ENDBRANCH   1  16
BRANCH  13  29
HETATM   29  C16 UNL     1      29.174  -0.152  53.397  1.00  0.00     0.098 C 
HETATM   30  C17 UNL     1      30.058  -1.330  53.747  1.00  0.00     0.014 C 
ENDBRANCH  13  29
TORSDOF 6
ENDMDL
MODEL 7
REMARK VINA RESULT:      -7.7      2.413      5.532
REMARK  6 active torsions:
REMARK  status: ('A' for Active; 'I' for Inactive)
REMARK    1  A    between atoms: C4_4  and  C5_5 
REMARK    2  A    between atoms: C5_5  and  C6_6 
REMARK    3  A    between atoms: C5_5  and  N1_8 
REMARK    4  A    between atoms: C6_6  and  O1_7 
REMARK    5  A    between atoms: N1_8  and  C7_9 
REMARK       I    between atoms: N4_20  and  C15_21 
REMARK    6  A    between atoms: C15_21  and  C16_23 
ROOT
HETATM    1  C7  UNL     1      24.535   1.891  52.047  1.00  0.00     0.139 A 
HETATM    2  N2  UNL     1      25.856   1.694  52.125  1.00  0.00    -0.224 NA
HETATM    3  C8  UNL     1      26.516   0.785  52.800  1.00  0.00     0.236 A 
HETATM    4  N3  UNL     1      25.723  -0.043  53.495  1.00  0.00    -0.234 NA
HETATM    5  C9  UNL     1      24.430   0.106  53.452  1.00  0.00     0.114 A 
HETATM    6  S1  UNL     1      23.181  -0.850  54.278  1.00  0.00    -0.072 SA
HETATM    7  C10 UNL     1      21.778   0.035  53.665  1.00  0.00     0.010 A 
HETATM    8  C11 UNL     1      22.356   1.079  52.809  1.00  0.00    -0.025 A 
HETATM    9  C12 UNL     1      23.714   1.051  52.752  1.00  0.00     0.053 A 
HETATM   10  C13 UNL     1      21.170   1.783  52.309  1.00  0.00     0.060 C 
HETATM   11  C14 UNL     1      20.190   0.752  51.689  1.00  0.00     0.131 C 
HETATM   12  N4  UNL     1      19.539  -0.038  52.695  1.00  0.00    -0.347 N 
HETATM   13  C15 UNL     1      18.266  -0.630  52.488  1.00  0.00     0.219 C 
HETATM   14  O2  UNL     1      17.852  -0.341  51.320  1.00  0.00    -0.273 OA
HETATM   15  C18 UNL     1      20.321  -0.154  53.911  1.00  0.00     0.172 C 
ENDROOT
BRANCH   1  16
HETATM   16  N1  UNL     1      24.108   2.987  51.255  1.00  0.00    -0.363 N 
HETATM   17  H8  UNL     1      23.627   3.854  51.468  1.00  0.00     0.162 HD
BRANCH  16  18
HETATM   18  C5  UNL     1      24.338   3.039  49.832  1.00  0.00     0.140 C 
BRANCH  18  19
HETATM   19  C4  UNL     1      25.249   4.073  49.346  1.00  0.00    -0.029 A 
HETATM   20  C3  UNL     1      26.550   4.140  49.158  1.00  0.00     0.045 A 
HETATM   21  C2  UNL     1      27.111   5.376  48.646  1.00  0.00     0.066 A 
HETATM   22  C1  UNL     1      28.414   5.350  48.489  1.00  0.00     0.051 C 
HETATM   23  O3  UNL     1      26.367   6.499  48.339  1.00  0.00    -0.324 OA
HETATM   24  C20 UNL     1      24.996   6.411  48.546  1.00  0.00     0.143 A 
HETATM   25  C19 UNL     1      24.476   5.290  49.011  1.00  0.00     0.034 A 
ENDBRANCH  18  19
BRANCH  18  26
HETATM   26  C6  UNL     1      23.045   3.105  49.029  1.00  0.00     0.194 C 
BRANCH  26  27
HETATM   27  O1  UNL     1      22.392   1.901  48.924  1.00  0.00    -0.399 OA
HETATM   28  H7  UNL     1      22.011   1.703  48.034  1.00  0.00     0.209 HD
ENDBRANCH  26  27
ENDBRANCH  18  26
ENDBRANCH  16  18
ENDBRANCH   1  16
BRANCH  13  29
HETATM   29  C16 UNL     1      17.692  -1.427  53.601  1.00  0.00     0.098 C 
HETATM   30  C17 UNL     1      17.597  -2.894  53.244  1.00  0.00     0.014 C 
ENDBRANCH  13  29
TORSDOF 6
ENDMDL
MODEL 8
REMARK VINA RESULT:      -7.7      4.677      7.796
REMARK  6 active torsions:
REMARK  status: ('A' for Active; 'I' for Inactive)
REMARK    1  A    between atoms: C4_4  and  C5_5 
REMARK    2  A    between atoms: C5_5  and  C6_6 
REMARK    3  A    between atoms: C5_5  and  N1_8 
REMARK    4  A    between atoms: C6_6  and  O1_7 
REMARK    5  A    between atoms: N1_8  and  C7_9 
REMARK       I    between atoms: N4_20  and  C15_21 
REMARK    6  A    between atoms: C15_21  and  C16_23 
ROOT
HETATM    1  C7  UNL     1      28.341   6.687  48.540  1.00  0.00     0.139 A 
HETATM    2  N2  UNL     1      28.573   7.964  48.217  1.00  0.00    -0.224 NA
HETATM    3  C8  UNL     1      27.714   8.926  47.986  1.00  0.00     0.236 A 
HETATM    4  N3  UNL     1      26.436   8.536  48.098  1.00  0.00    -0.234 NA
HETATM    5  C9  UNL     1      26.156   7.304  48.411  1.00  0.00     0.114 A 
HETATM    6  S1  UNL     1      24.559   6.551  48.614  1.00  0.00    -0.072 SA
HETATM    7  C10 UNL     1      25.126   4.925  49.015  1.00  0.00     0.010 A 
HETATM    8  C11 UNL     1      26.591   5.033  48.975  1.00  0.00    -0.025 A 
HETATM    9  C12 UNL     1      27.040   6.277  48.658  1.00  0.00     0.053 A 
HETATM   10  C13 UNL     1      27.026   3.676  49.323  1.00  0.00     0.060 C 
HETATM   11  C14 UNL     1      26.336   3.243  50.643  1.00  0.00     0.131 C 
HETATM   12  N4  UNL     1      24.943   2.956  50.448  1.00  0.00    -0.347 N 
HETATM   13  C15 UNL     1      24.229   2.060  51.284  1.00  0.00     0.219 C 
HETATM   14  O2  UNL     1      25.013   1.598  52.173  1.00  0.00    -0.273 OA
HETATM   15  C18 UNL     1      24.374   3.677  49.325  1.00  0.00     0.172 C 
ENDROOT
BRANCH   1  16
HETATM   16  N1  UNL     1      29.483   5.861  48.699  1.00  0.00    -0.363 N 
HETATM   17  H8  UNL     1      29.608   4.891  48.967  1.00  0.00     0.162 HD
BRANCH  16  18
HETATM   18  C5  UNL     1      30.819   6.347  48.459  1.00  0.00     0.140 C 
BRANCH  18  19
HETATM   19  C4  UNL     1      31.552   5.746  47.347  1.00  0.00    -0.029 A 
HETATM   20  C3  UNL     1      32.268   6.224  46.350  1.00  0.00     0.045 A 
HETATM   21  C2  UNL     1      32.858   5.288  45.412  1.00  0.00     0.066 A 
HETATM   22  C1  UNL     1      33.554   5.854  44.455  1.00  0.00     0.051 C 
HETATM   23  O3  UNL     1      32.719   3.916  45.493  1.00  0.00    -0.324 OA
HETATM   24  C20 UNL     1      31.959   3.430  46.550  1.00  0.00     0.143 A 
HETATM   25  C19 UNL     1      31.418   4.274  47.408  1.00  0.00     0.034 A 
ENDBRANCH  18  19
BRANCH  18  26
HETATM   26  C6  UNL     1      31.695   6.302  49.706  1.00  0.00     0.194 C 
BRANCH  26  27
HETATM   27  O1  UNL     1      31.318   5.345  50.616  1.00  0.00    -0.399 OA
HETATM   28  H7  UNL     1      30.349   5.291  50.796  1.00  0.00     0.209 HD
ENDBRANCH  26  27
ENDBRANCH  18  26
ENDBRANCH  16  18
ENDBRANCH   1  16
BRANCH  13  29
HETATM   29  C16 UNL     1      22.791   1.843  50.986  1.00  0.00     0.098 C 
HETATM   30  C17 UNL     1      22.189   0.786  51.886  1.00  0.00     0.014 C 
ENDBRANCH  13  29
TORSDOF 6
ENDMDL
MODEL 9
REMARK VINA RESULT:      -7.7      2.365      6.012
REMARK  6 active torsions:
REMARK  status: ('A' for Active; 'I' for Inactive)
REMARK    1  A    between atoms: C4_4  and  C5_5 
REMARK    2  A    between atoms: C5_5  and  C6_6 
REMARK    3  A    between atoms: C5_5  and  N1_8 
REMARK    4  A    between atoms: C6_6  and  O1_7 
REMARK    5  A    between atoms: N1_8  and  C7_9 
REMARK       I    between atoms: N4_20  and  C15_21 
REMARK    6  A    between atoms: C15_21  and  C16_23 
ROOT
HETATM    1  C7  UNL     1      24.624   1.515  51.716  1.00  0.00     0.139 A 
HETATM    2  N2  UNL     1      25.926   1.262  51.885  1.00  0.00    -0.224 NA
HETATM    3  C8  UNL     1      26.502   0.421  52.710  1.00  0.00     0.236 A 
HETATM    4  N3  UNL     1      25.633  -0.259  53.470  1.00  0.00    -0.234 NA
HETATM    5  C9  UNL     1      24.354  -0.049  53.343  1.00  0.00     0.114 A 
HETATM    6  S1  UNL     1      23.016  -0.815  54.228  1.00  0.00    -0.072 SA
HETATM    7  C10 UNL     1      21.696   0.050  53.431  1.00  0.00     0.010 A 
HETATM    8  C11 UNL     1      22.370   0.934  52.471  1.00  0.00    -0.025 A 
HETATM    9  C12 UNL     1      23.726   0.827  52.486  1.00  0.00     0.053 A 
HETATM   10  C13 UNL     1      21.250   1.624  51.821  1.00  0.00     0.060 C 
HETATM   11  C14 UNL     1      20.238   0.570  51.299  1.00  0.00     0.131 C 
HETATM   12  N4  UNL     1      19.499  -0.037  52.368  1.00  0.00    -0.347 N 
HETATM   13  C15 UNL     1      18.203  -0.584  52.180  1.00  0.00     0.219 C 
HETATM   14  O2  UNL     1      17.857  -0.437  50.965  1.00  0.00    -0.273 OA
HETATM   15  C18 UNL     1      20.221  -0.025  53.626  1.00  0.00     0.172 C 
ENDROOT
BRANCH   1  16
HETATM   16  N1  UNL     1      24.297   2.513  50.762  1.00  0.00    -0.363 N 
HETATM   17  H8  UNL     1      23.765   2.502  49.898  1.00  0.00     0.162 HD
BRANCH  16  18
HETATM   18  C5  UNL     1      24.726   3.882  50.907  1.00  0.00     0.140 C 
BRANCH  18  19
HETATM   19  C4  UNL     1      23.705   4.915  50.743  1.00  0.00    -0.029 A 
HETATM   20  C3  UNL     1      22.434   4.908  50.398  1.00  0.00     0.045 A 
HETATM   21  C2  UNL     1      21.727   6.173  50.342  1.00  0.00     0.066 A 
HETATM   22  C1  UNL     1      20.467   6.069  49.991  1.00  0.00     0.051 C 
HETATM   23  O3  UNL     1      22.300   7.398  50.628  1.00  0.00    -0.324 OA
HETATM   24  C20 UNL     1      23.642   7.386  50.989  1.00  0.00     0.143 A 
HETATM   25  C19 UNL     1      24.294   6.239  51.043  1.00  0.00     0.034 A 
ENDBRANCH  18  19
BRANCH  18  26
HETATM   26  C6  UNL     1      25.918   4.223  50.022  1.00  0.00     0.194 C 
BRANCH  26  27
HETATM   27  O1  UNL     1      27.117   3.751  50.498  1.00  0.00    -0.399 OA
HETATM   28  H7  UNL     1      27.879   4.374  50.416  1.00  0.00     0.209 HD
ENDBRANCH  26  27
ENDBRANCH  18  26
ENDBRANCH  16  18
ENDBRANCH   1  16
BRANCH  13  29
HETATM   29  C16 UNL     1      17.536  -1.187  53.361  1.00  0.00     0.098 C 
HETATM   30  C17 UNL     1      17.483  -2.696  53.259  1.00  0.00     0.014 C 
ENDBRANCH  13  29
TORSDOF 6
ENDMDL
