MODEL 1
REMARK VINA RESULT:      -8.0      0.000      0.000
REMARK  8 active torsions:
REMARK  status: ('A' for Active; 'I' for Inactive)
REMARK    1  A    between atoms: C2_2  and  C3_3 
REMARK    2  A    between atoms: C9_11  and  N3_12 
REMARK    3  A    between atoms: N3_12  and  C10_13 
REMARK    4  A    between atoms: C11_14  and  C12_15 
REMARK    5  A    between atoms: C16_20  and  N4_21 
REMARK       I    between atoms: N4_21  and  C17_22 
REMARK    6  A    between atoms: C17_22  and  C18_24 
REMARK    7  A    between atoms: C19_25  and  C20_26 
REMARK    8  A    between atoms: C20_26  and  N5_27 
ROOT
HETATM    1  C3  UNL     1      22.601   4.542  51.220  1.00  0.00    -0.029 A 
HETATM    2  C4  UNL     1      21.511   3.794  51.613  1.00  0.00     0.042 A 
HETATM    3  C5  UNL     1      21.634   2.590  52.301  1.00  0.00     0.069 A 
HETATM    4  N1  UNL     1      20.506   1.941  52.641  1.00  0.00    -0.259 NA
HETATM    5  C6  UNL     1      20.589   0.762  53.319  1.00  0.00     0.142 A 
HETATM    6  C7  UNL     1      21.826   0.232  53.655  1.00  0.00     0.089 A 
HETATM    7  C8  UNL     1      21.820  -1.007  54.372  1.00  0.00     0.103 C 
HETATM    8  N2  UNL     1      21.803  -1.994  54.962  1.00  0.00    -0.191 NA
HETATM    9  C9  UNL     1      22.958   0.921  53.291  1.00  0.00     0.067 A 
HETATM   10  C14 UNL     1      22.906   2.111  52.608  1.00  0.00     0.023 A 
HETATM   11  C15 UNL     1      24.016   2.833  52.230  1.00  0.00     0.046 A 
HETATM   12  C16 UNL     1      23.845   4.021  51.551  1.00  0.00     0.042 A 
ENDROOT
BRANCH   9  13
HETATM   13  N3  UNL     1      24.221   0.384  53.627  1.00  0.00    -0.363 N 
HETATM   14  H8  UNL     1      24.898   0.598  54.385  1.00  0.00     0.165 HD
BRANCH  13  15
HETATM   15  C10 UNL     1      24.996  -0.638  53.035  1.00  0.00     0.097 C 
HETATM   16  C11 UNL     1      26.282  -0.728  52.744  1.00  0.00     0.082 C 
BRANCH  16  17
HETATM   17  C12 UNL     1      27.154   0.368  53.044  1.00  0.00    -0.060 C 
HETATM   18  C13 UNL     1      27.897   1.292  53.282  1.00  0.00     0.009 C 
HETATM   19 CL1  UNL     1      28.950   2.638  53.638  1.00  0.00    -0.023 Cl
ENDBRANCH  16  17
ENDBRANCH  13  15
ENDBRANCH   9  13
BRANCH  12  20
HETATM   20  N4  UNL     1      24.948   4.829  51.122  1.00  0.00    -0.323 N 
HETATM   21  C17 UNL     1      25.527   4.261  49.950  1.00  0.00     0.245 C 
HETATM   22  O1  UNL     1      24.852   3.217  49.685  1.00  0.00    -0.268 OA
HETATM   23  H12 UNL     1      25.380   5.710  51.489  1.00  0.00     0.169 HD
BRANCH  21  24
HETATM   24  C18 UNL     1      26.643   4.713  49.173  1.00  0.00     0.072 C 
HETATM   25  C19 UNL     1      26.990   5.866  48.630  1.00  0.00    -0.002 C 
BRANCH  25  26
HETATM   26  C20 UNL     1      26.644   7.272  48.412  1.00  0.00     0.143 C 
BRANCH  26  27
HETATM   27  N5  UNL     1      26.478   7.962  49.655  1.00  0.00    -0.418 N 
HETATM   28  C21 UNL     1      27.451   8.963  49.950  1.00  0.00     0.142 C 
HETATM   29  C22 UNL     1      25.135   8.262  50.027  1.00  0.00     0.142 C 
ENDBRANCH  26  27
ENDBRANCH  25  26
ENDBRANCH  21  24
ENDBRANCH  12  20
BRANCH   1  30
HETATM   30  C2  UNL     1      22.434   5.818  50.499  1.00  0.00     0.036 C 
HETATM   31  C1  UNL     1      22.112   5.621  49.053  1.00  0.00     0.010 C 
ENDBRANCH   1  30
TORSDOF 8
ENDMDL
MODEL 2
REMARK VINA RESULT:      -7.8      3.600      5.930
REMARK  8 active torsions:
REMARK  status: ('A' for Active; 'I' for Inactive)
REMARK    1  A    between atoms: C2_2  and  C3_3 
REMARK    2  A    between atoms: C9_11  and  N3_12 
REMARK    3  A    between atoms: N3_12  and  C10_13 
REMARK    4  A    between atoms: C11_14  and  C12_15 
REMARK    5  A    between atoms: C16_20  and  N4_21 
REMARK       I    between atoms: N4_21  and  C17_22 
REMARK    6  A    between atoms: C17_22  and  C18_24 
REMARK    7  A    between atoms: C19_25  and  C20_26 
REMARK    8  A    between atoms: C20_26  and  N5_27 
ROOT
HETATM    1  C3  UNL     1      19.816  -0.734  53.225  1.00  0.00    -0.029 A 
HETATM    2  C4  UNL     1      20.595  -1.213  54.257  1.00  0.00     0.042 A 
HETATM    3  C5  UNL     1      21.967  -0.989  54.331  1.00  0.00     0.069 A 
HETATM    4  N1  UNL     1      22.633  -1.498  55.382  1.00  0.00    -0.259 NA
HETATM    5  C6  UNL     1      23.975  -1.294  55.489  1.00  0.00     0.142 A 
HETATM    6  C7  UNL     1      24.654  -0.569  54.520  1.00  0.00     0.089 A 
HETATM    7  C8  UNL     1      26.062  -0.398  54.714  1.00  0.00     0.103 C 
HETATM    8  N2  UNL     1      27.189  -0.253  54.888  1.00  0.00    -0.191 NA
HETATM    9  C9  UNL     1      23.942  -0.063  53.458  1.00  0.00     0.067 A 
HETATM   10  C14 UNL     1      22.589  -0.252  53.324  1.00  0.00     0.023 A 
HETATM   11  C15 UNL     1      21.840   0.241  52.279  1.00  0.00     0.046 A 
HETATM   12  C16 UNL     1      20.484  -0.006  52.249  1.00  0.00     0.042 A 
ENDROOT
BRANCH   9  13
HETATM   13  N3  UNL     1      24.628   0.673  52.466  1.00  0.00    -0.363 N 
HETATM   14  H8  UNL     1      25.145   0.391  51.611  1.00  0.00     0.165 HD
BRANCH  13  15
HETATM   15  C10 UNL     1      24.842   2.060  52.305  1.00  0.00     0.097 C 
HETATM   16  C11 UNL     1      24.393   2.936  51.425  1.00  0.00     0.082 C 
BRANCH  16  17
HETATM   17  C12 UNL     1      23.507   2.504  50.384  1.00  0.00    -0.060 C 
HETATM   18  C13 UNL     1      22.748   2.138  49.517  1.00  0.00     0.009 C 
HETATM   19 CL1  UNL     1      21.661   1.628  48.250  1.00  0.00    -0.023 Cl
ENDBRANCH  16  17
ENDBRANCH  13  15
ENDBRANCH   9  13
BRANCH  12  20
HETATM   20  N4  UNL     1      19.637   0.471  51.196  1.00  0.00    -0.323 N 
HETATM   21  C17 UNL     1      19.458   1.878  51.328  1.00  0.00     0.245 C 
HETATM   22  O1  UNL     1      20.123   2.231  52.352  1.00  0.00    -0.268 OA
HETATM   23  H12 UNL     1      19.156   0.001  50.392  1.00  0.00     0.169 HD
BRANCH  21  24
HETATM   24  C18 UNL     1      18.697   2.782  50.516  1.00  0.00     0.072 C 
HETATM   25  C19 UNL     1      18.993   3.832  49.772  1.00  0.00    -0.002 C 
BRANCH  25  26
HETATM   26  C20 UNL     1      20.039   4.726  49.272  1.00  0.00     0.143 C 
BRANCH  26  27
HETATM   27  N5  UNL     1      20.357   5.737  50.235  1.00  0.00    -0.418 N 
HETATM   28  C21 UNL     1      21.366   5.400  51.186  1.00  0.00     0.142 C 
HETATM   29  C22 UNL     1      20.374   7.077  49.748  1.00  0.00     0.142 C 
ENDBRANCH  26  27
ENDBRANCH  25  26
ENDBRANCH  21  24
ENDBRANCH  12  20
BRANCH   1  30
HETATM   30  C2  UNL     1      18.363  -0.984  53.182  1.00  0.00     0.036 C 
HETATM   31  C1  UNL     1      18.002  -2.354  53.658  1.00  0.00     0.010 C 
ENDBRANCH   1  30
TORSDOF 8
ENDMDL
MODEL 3
REMARK VINA RESULT:      -7.7      2.262      4.347
REMARK  8 active torsions:
REMARK  status: ('A' for Active; 'I' for Inactive)
REMARK    1  A    between atoms: C2_2  and  C3_3 
REMARK    2  A    between atoms: C9_11  and  N3_12 
REMARK    3  A    between atoms: N3_12  and  C10_13 
REMARK    4  A    between atoms: C11_14  and  C12_15 
REMARK    5  A    between atoms: C16_20  and  N4_21 
REMARK       I    between atoms: N4_21  and  C17_22 
REMARK    6  A    between atoms: C17_22  and  C18_24 
REMARK    7  A    between atoms: C19_25  and  C20_26 
REMARK    8  A    between atoms: C20_26  and  N5_27 
ROOT
HETATM    1  C3  UNL     1      27.113   1.839  53.318  1.00  0.00    -0.029 A 
HETATM    2  C4  UNL     1      26.810   0.772  54.136  1.00  0.00     0.042 A 
HETATM    3  C5  UNL     1      25.535   0.217  54.208  1.00  0.00     0.069 A 
HETATM    4  N1  UNL     1      25.348  -0.825  55.036  1.00  0.00    -0.259 NA
HETATM    5  C6  UNL     1      24.115  -1.396  55.128  1.00  0.00     0.142 A 
HETATM    6  C7  UNL     1      23.057  -0.907  54.375  1.00  0.00     0.089 A 
HETATM    7  C8  UNL     1      21.798  -1.569  54.529  1.00  0.00     0.103 C 
HETATM    8  N2  UNL     1      20.795  -2.120  54.647  1.00  0.00    -0.191 NA
HETATM    9  C9  UNL     1      23.284   0.161  53.539  1.00  0.00     0.067 A 
HETATM   10  C14 UNL     1      24.516   0.756  53.425  1.00  0.00     0.023 A 
HETATM   11  C15 UNL     1      24.784   1.823  52.596  1.00  0.00     0.046 A 
HETATM   12  C16 UNL     1      26.063   2.339  52.558  1.00  0.00     0.042 A 
ENDROOT
BRANCH   9  13
HETATM   13  N3  UNL     1      22.211   0.666  52.771  1.00  0.00    -0.363 N 
HETATM   14  H8  UNL     1      21.636   1.528  52.846  1.00  0.00     0.165 HD
BRANCH  13  15
HETATM   15  C10 UNL     1      21.552   0.160  51.629  1.00  0.00     0.097 C 
HETATM   16  C11 UNL     1      21.443   0.607  50.390  1.00  0.00     0.082 C 
BRANCH  16  17
HETATM   17  C12 UNL     1      22.078   1.837  50.022  1.00  0.00    -0.060 C 
HETATM   18  C13 UNL     1      22.610   2.873  49.697  1.00  0.00     0.009 C 
HETATM   19 CL1  UNL     1      23.368   4.380  49.249  1.00  0.00    -0.023 Cl
ENDBRANCH  16  17
ENDBRANCH  13  15
ENDBRANCH   9  13
BRANCH  12  20
HETATM   20  N4  UNL     1      26.422   3.447  51.725  1.00  0.00    -0.323 N 
HETATM   21  C17 UNL     1      26.624   2.995  50.389  1.00  0.00     0.245 C 
HETATM   22  O1  UNL     1      26.411   1.741  50.398  1.00  0.00    -0.268 OA
HETATM   23  H12 UNL     1      26.553   4.471  51.907  1.00  0.00     0.169 HD
BRANCH  21  24
HETATM   24  C18 UNL     1      26.994   3.735  49.220  1.00  0.00     0.072 C 
HETATM   25  C19 UNL     1      26.864   4.993  48.839  1.00  0.00    -0.002 C 
BRANCH  25  26
HETATM   26  C20 UNL     1      26.374   6.331  49.174  1.00  0.00     0.143 C 
BRANCH  26  27
HETATM   27  N5  UNL     1      27.255   7.343  48.677  1.00  0.00    -0.418 N 
HETATM   28  C21 UNL     1      27.347   8.533  49.459  1.00  0.00     0.142 C 
HETATM   29  C22 UNL     1      28.471   6.879  48.093  1.00  0.00     0.142 C 
ENDBRANCH  26  27
ENDBRANCH  25  26
ENDBRANCH  21  24
ENDBRANCH  12  20
BRANCH   1  30
HETATM   30  C2  UNL     1      28.477   2.398  53.261  1.00  0.00     0.036 C 
HETATM   31  C1  UNL     1      29.350   1.895  54.366  1.00  0.00     0.010 C 
ENDBRANCH   1  30
TORSDOF 8
ENDMDL
MODEL 4
REMARK VINA RESULT:      -7.7      3.895      7.359
REMARK  8 active torsions:
REMARK  status: ('A' for Active; 'I' for Inactive)
REMARK    1  A    between atoms: C2_2  and  C3_3 
REMARK    2  A    between atoms: C9_11  and  N3_12 
REMARK    3  A    between atoms: N3_12  and  C10_13 
REMARK    4  A    between atoms: C11_14  and  C12_15 
REMARK    5  A    between atoms: C16_20  and  N4_21 
REMARK       I    between atoms: N4_21  and  C17_22 
REMARK    6  A    between atoms: C17_22  and  C18_24 
REMARK    7  A    between atoms: C19_25  and  C20_26 
REMARK    8  A    between atoms: C20_26  and  N5_27 
ROOT
HETATM    1  C3  UNL     1      19.680  -0.829  53.236  1.00  0.00    -0.029 A 
HETATM    2  C4  UNL     1      20.474  -1.295  54.262  1.00  0.00     0.042 A 
HETATM    3  C5  UNL     1      21.844  -1.054  54.320  1.00  0.00     0.069 A 
HETATM    4  N1  UNL     1      22.527  -1.551  55.367  1.00  0.00    -0.259 NA
HETATM    5  C6  UNL     1      23.868  -1.330  55.459  1.00  0.00     0.142 A 
HETATM    6  C7  UNL     1      24.528  -0.600  54.482  1.00  0.00     0.089 A 
HETATM    7  C8  UNL     1      25.935  -0.411  54.661  1.00  0.00     0.103 C 
HETATM    8  N2  UNL     1      27.062  -0.251  54.823  1.00  0.00    -0.191 NA
HETATM    9  C9  UNL     1      23.799  -0.107  53.425  1.00  0.00     0.067 A 
HETATM   10  C14 UNL     1      22.447  -0.313  53.305  1.00  0.00     0.023 A 
HETATM   11  C15 UNL     1      21.682   0.168  52.266  1.00  0.00     0.046 A 
HETATM   12  C16 UNL     1      20.328  -0.096  52.250  1.00  0.00     0.042 A 
ENDROOT
BRANCH   9  13
HETATM   13  N3  UNL     1      24.465   0.635  52.424  1.00  0.00    -0.363 N 
HETATM   14  H8  UNL     1      24.943   0.359  51.544  1.00  0.00     0.165 HD
BRANCH  13  15
HETATM   15  C10 UNL     1      24.708   2.019  52.284  1.00  0.00     0.097 C 
HETATM   16  C11 UNL     1      24.266   2.920  51.425  1.00  0.00     0.082 C 
BRANCH  16  17
HETATM   17  C12 UNL     1      23.358   2.527  50.390  1.00  0.00    -0.060 C 
HETATM   18  C13 UNL     1      22.579   2.199  49.525  1.00  0.00     0.009 C 
HETATM   19 CL1  UNL     1      21.470   1.737  48.258  1.00  0.00    -0.023 Cl
ENDBRANCH  16  17
ENDBRANCH  13  15
ENDBRANCH   9  13
BRANCH  12  20
HETATM   20  N4  UNL     1      19.465   0.366  51.204  1.00  0.00    -0.323 N 
HETATM   21  C17 UNL     1      19.219   1.760  51.369  1.00  0.00     0.245 C 
HETATM   22  O1  UNL     1      19.863   2.118  52.406  1.00  0.00    -0.268 OA
HETATM   23  H12 UNL     1      19.011  -0.105  50.386  1.00  0.00     0.169 HD
BRANCH  21  24
HETATM   24  C18 UNL     1      18.421   2.647  50.576  1.00  0.00     0.072 C 
HETATM   25  C19 UNL     1      17.125   2.807  50.385  1.00  0.00    -0.002 C 
BRANCH  25  26
HETATM   26  C20 UNL     1      15.771   2.356  50.716  1.00  0.00     0.143 C 
BRANCH  26  27
HETATM   27  N5  UNL     1      15.551   2.378  52.130  1.00  0.00    -0.418 N 
HETATM   28  C21 UNL     1      15.271   3.655  52.700  1.00  0.00     0.142 C 
HETATM   29  C22 UNL     1      14.817   1.277  52.663  1.00  0.00     0.142 C 
ENDBRANCH  26  27
ENDBRANCH  25  26
ENDBRANCH  21  24
ENDBRANCH  12  20
BRANCH   1  30
HETATM   30  C2  UNL     1      18.229  -1.097  53.208  1.00  0.00     0.036 C 
HETATM   31  C1  UNL     1      17.894  -2.487  53.646  1.00  0.00     0.010 C 
ENDBRANCH   1  30
TORSDOF 8
ENDMDL
MODEL 5
REMARK VINA RESULT:      -7.5      2.344      4.600
REMARK  8 active torsions:
REMARK  status: ('A' for Active; 'I' for Inactive)
REMARK    1  A    between atoms: C2_2  and  C3_3 
REMARK    2  A    between atoms: C9_11  and  N3_12 
REMARK    3  A    between atoms: N3_12  and  C10_13 
REMARK    4  A    between atoms: C11_14  and  C12_15 
REMARK    5  A    between atoms: C16_20  and  N4_21 
REMARK       I    between atoms: N4_21  and  C17_22 
REMARK    6  A    between atoms: C17_22  and  C18_24 
REMARK    7  A    between atoms: C19_25  and  C20_26 
REMARK    8  A    between atoms: C20_26  and  N5_27 
ROOT
HETATM    1  C3  UNL     1      24.822   1.611  53.019  1.00  0.00    -0.029 A 
HETATM    2  C4  UNL     1      24.296   0.414  53.456  1.00  0.00     0.042 A 
HETATM    3  C5  UNL     1      22.932   0.135  53.423  1.00  0.00     0.069 A 
HETATM    4  N1  UNL     1      22.524  -1.065  53.870  1.00  0.00    -0.259 NA
HETATM    5  C6  UNL     1      21.198  -1.374  53.849  1.00  0.00     0.142 A 
HETATM    6  C7  UNL     1      20.272  -0.458  53.370  1.00  0.00     0.089 A 
HETATM    7  C8  UNL     1      18.900  -0.867  53.378  1.00  0.00     0.103 C 
HETATM    8  N2  UNL     1      17.803  -1.212  53.373  1.00  0.00    -0.191 NA
HETATM    9  C9  UNL     1      20.724   0.760  52.922  1.00  0.00     0.067 A 
HETATM   10  C14 UNL     1      22.054   1.099  52.931  1.00  0.00     0.023 A 
HETATM   11  C15 UNL     1      22.546   2.306  52.487  1.00  0.00     0.046 A 
HETATM   12  C16 UNL     1      23.905   2.537  52.538  1.00  0.00     0.042 A 
ENDROOT
BRANCH   9  13
HETATM   13  N3  UNL     1      19.786   1.699  52.437  1.00  0.00    -0.363 N 
HETATM   14  H8  UNL     1      19.300   2.503  52.881  1.00  0.00     0.165 HD
BRANCH  13  15
HETATM   15  C10 UNL     1      19.187   1.861  51.168  1.00  0.00     0.097 C 
HETATM   16  C11 UNL     1      19.251   2.825  50.267  1.00  0.00     0.082 C 
BRANCH  16  17
HETATM   17  C12 UNL     1      20.056   3.983  50.525  1.00  0.00    -0.060 C 
HETATM   18  C13 UNL     1      20.728   4.961  50.756  1.00  0.00     0.009 C 
HETATM   19 CL1  UNL     1      21.720   6.361  51.079  1.00  0.00    -0.023 Cl
ENDBRANCH  16  17
ENDBRANCH  13  15
ENDBRANCH   9  13
BRANCH  12  20
HETATM   20  N4  UNL     1      24.494   3.766  52.097  1.00  0.00    -0.323 N 
HETATM   21  C17 UNL     1      24.405   3.856  50.678  1.00  0.00     0.245 C 
HETATM   22  O1  UNL     1      23.822   2.797  50.287  1.00  0.00    -0.268 OA
HETATM   23  H12 UNL     1      24.951   4.566  52.598  1.00  0.00     0.169 HD
BRANCH  21  24
HETATM   24  C18 UNL     1      24.857   4.893  49.798  1.00  0.00     0.072 C 
HETATM   25  C19 UNL     1      25.984   5.136  49.153  1.00  0.00    -0.002 C 
BRANCH  25  26
HETATM   26  C20 UNL     1      27.348   4.694  48.858  1.00  0.00     0.143 C 
BRANCH  26  27
HETATM   27  N5  UNL     1      28.104   5.736  48.232  1.00  0.00    -0.418 N 
HETATM   28  C21 UNL     1      27.673   7.069  48.499  1.00  0.00     0.142 C 
HETATM   29  C22 UNL     1      29.514   5.531  48.169  1.00  0.00     0.142 C 
ENDBRANCH  26  27
ENDBRANCH  25  26
ENDBRANCH  21  24
ENDBRANCH  12  20
BRANCH   1  30
HETATM   30  C2  UNL     1      26.273   1.871  53.062  1.00  0.00     0.036 C 
HETATM   31  C1  UNL     1      27.010   1.193  51.952  1.00  0.00     0.010 C 
ENDBRANCH   1  30
TORSDOF 8
ENDMDL
MODEL 6
REMARK VINA RESULT:      -7.5      3.425      8.701
REMARK  8 active torsions:
REMARK  status: ('A' for Active; 'I' for Inactive)
REMARK    1  A    between atoms: C2_2  and  C3_3 
REMARK    2  A    between atoms: C9_11  and  N3_12 
REMARK    3  A    between atoms: N3_12  and  C10_13 
REMARK    4  A    between atoms: C11_14  and  C12_15 
REMARK    5  A    between atoms: C16_20  and  N4_21 
REMARK       I    between atoms: N4_21  and  C17_22 
REMARK    6  A    between atoms: C17_22  and  C18_24 
REMARK    7  A    between atoms: C19_25  and  C20_26 
REMARK    8  A    between atoms: C20_26  and  N5_27 
ROOT
HETATM    1  C3  UNL     1      22.995   0.018  53.724  1.00  0.00    -0.029 A 
HETATM    2  C4  UNL     1      24.340   0.064  53.424  1.00  0.00     0.042 A 
HETATM    3  C5  UNL     1      24.876   0.968  52.511  1.00  0.00     0.069 A 
HETATM    4  N1  UNL     1      26.203   0.932  52.295  1.00  0.00    -0.259 NA
HETATM    5  C6  UNL     1      26.762   1.805  51.412  1.00  0.00     0.142 A 
HETATM    6  C7  UNL     1      25.972   2.725  50.738  1.00  0.00     0.089 A 
HETATM    7  C8  UNL     1      26.643   3.608  49.834  1.00  0.00     0.103 C 
HETATM    8  N2  UNL     1      27.194   4.324  49.122  1.00  0.00    -0.191 NA
HETATM    9  C9  UNL     1      24.619   2.734  50.983  1.00  0.00     0.067 A 
HETATM   10  C14 UNL     1      24.027   1.867  51.868  1.00  0.00     0.023 A 
HETATM   11  C15 UNL     1      22.678   1.847  52.144  1.00  0.00     0.046 A 
HETATM   12  C16 UNL     1      22.192   0.933  53.056  1.00  0.00     0.042 A 
ENDROOT
BRANCH   9  13
HETATM   13  N3  UNL     1      23.808   3.666  50.298  1.00  0.00    -0.363 N 
HETATM   14  H8  UNL     1      23.432   4.598  50.559  1.00  0.00     0.165 HD
BRANCH  13  15
HETATM   15  C10 UNL     1      23.228   3.640  49.010  1.00  0.00     0.097 C 
HETATM   16  C11 UNL     1      21.975   3.593  48.596  1.00  0.00     0.082 C 
BRANCH  16  17
HETATM   17  C12 UNL     1      20.912   3.558  49.556  1.00  0.00    -0.060 C 
HETATM   18  C13 UNL     1      20.015   3.545  50.367  1.00  0.00     0.009 C 
HETATM   19 CL1  UNL     1      18.709   3.506  51.524  1.00  0.00    -0.023 Cl
ENDBRANCH  16  17
ENDBRANCH  13  15
ENDBRANCH   9  13
BRANCH  12  20
HETATM   20  N4  UNL     1      20.803   0.848  53.396  1.00  0.00    -0.323 N 
HETATM   21  C17 UNL     1      20.090   0.220  52.334  1.00  0.00     0.245 C 
HETATM   22  O1  UNL     1      20.948  -0.055  51.437  1.00  0.00    -0.268 OA
HETATM   23  H12 UNL     1      20.249   1.145  54.234  1.00  0.00     0.169 HD
BRANCH  21  24
HETATM   24  C18 UNL     1      18.693  -0.076  52.223  1.00  0.00     0.072 C 
HETATM   25  C19 UNL     1      17.902  -1.017  52.709  1.00  0.00    -0.002 C 
BRANCH  25  26
HETATM   26  C20 UNL     1      17.792  -2.219  53.537  1.00  0.00     0.143 C 
BRANCH  26  27
HETATM   27  N5  UNL     1      16.827  -3.129  53.000  1.00  0.00    -0.418 N 
HETATM   28  C21 UNL     1      16.629  -4.336  53.734  1.00  0.00     0.142 C 
HETATM   29  C22 UNL     1      15.659  -2.538  52.436  1.00  0.00     0.142 C 
ENDBRANCH  26  27
ENDBRANCH  25  26
ENDBRANCH  21  24
ENDBRANCH  12  20
BRANCH   1  30
HETATM   30  C2  UNL     1      22.461  -0.949  54.702  1.00  0.00     0.036 C 
HETATM   31  C1  UNL     1      23.497  -1.413  55.674  1.00  0.00     0.010 C 
ENDBRANCH   1  30
TORSDOF 8
ENDMDL
MODEL 7
REMARK VINA RESULT:      -7.4      2.162      4.537
REMARK  8 active torsions:
REMARK  status: ('A' for Active; 'I' for Inactive)
REMARK    1  A    between atoms: C2_2  and  C3_3 
REMARK    2  A    between atoms: C9_11  and  N3_12 
REMARK    3  A    between atoms: N3_12  and  C10_13 
REMARK    4  A    between atoms: C11_14  and  C12_15 
REMARK    5  A    between atoms: C16_20  and  N4_21 
REMARK       I    between atoms: N4_21  and  C17_22 
REMARK    6  A    between atoms: C17_22  and  C18_24 
REMARK    7  A    between atoms: C19_25  and  C20_26 
REMARK    8  A    between atoms: C20_26  and  N5_27 
ROOT
HETATM    1  C3  UNL     1      25.702   1.044  53.475  1.00  0.00    -0.029 A 
HETATM    2  C4  UNL     1      24.977   0.003  54.016  1.00  0.00     0.042 A 
HETATM    3  C5  UNL     1      23.603  -0.130  53.833  1.00  0.00     0.069 A 
HETATM    4  N1  UNL     1      22.992  -1.185  54.400  1.00  0.00    -0.259 NA
HETATM    5  C6  UNL     1      21.649  -1.350  54.239  1.00  0.00     0.142 A 
HETATM    6  C7  UNL     1      20.915  -0.437  53.495  1.00  0.00     0.089 A 
HETATM    7  C8  UNL     1      19.512  -0.690  53.372  1.00  0.00     0.103 C 
HETATM    8  N2  UNL     1      18.389  -0.911  53.265  1.00  0.00    -0.191 NA
HETATM    9  C9  UNL     1      21.572   0.630  52.930  1.00  0.00     0.067 A 
HETATM   10  C14 UNL     1      22.924   0.822  53.075  1.00  0.00     0.023 A 
HETATM   11  C15 UNL     1      23.618   1.875  52.521  1.00  0.00     0.046 A 
HETATM   12  C16 UNL     1      24.979   1.965  52.729  1.00  0.00     0.042 A 
ENDROOT
BRANCH   9  13
HETATM   13  N3  UNL     1      20.830   1.566  52.175  1.00  0.00    -0.363 N 
HETATM   14  H8  UNL     1      20.395   1.524  51.232  1.00  0.00     0.165 HD
BRANCH  13  15
HETATM   15  C10 UNL     1      20.424   2.890  52.454  1.00  0.00     0.097 C 
HETATM   16  C11 UNL     1      20.579   4.027  51.801  1.00  0.00     0.082 C 
BRANCH  16  17
HETATM   17  C12 UNL     1      21.279   4.037  50.551  1.00  0.00    -0.060 C 
HETATM   18  C13 UNL     1      21.884   4.050  49.504  1.00  0.00     0.009 C 
HETATM   19 CL1  UNL     1      22.745   4.046  47.986  1.00  0.00    -0.023 Cl
ENDBRANCH  16  17
ENDBRANCH  13  15
ENDBRANCH   9  13
BRANCH  12  20
HETATM   20  N4  UNL     1      25.771   3.029  52.189  1.00  0.00    -0.323 N 
HETATM   21  C17 UNL     1      25.927   2.843  50.785  1.00  0.00     0.245 C 
HETATM   22  O1  UNL     1      25.296   1.778  50.491  1.00  0.00    -0.268 OA
HETATM   23  H12 UNL     1      26.229   3.871  52.612  1.00  0.00     0.169 HD
BRANCH  21  24
HETATM   24  C18 UNL     1      26.635   3.643  49.830  1.00  0.00     0.072 C 
HETATM   25  C19 UNL     1      26.406   4.804  49.243  1.00  0.00    -0.002 C 
BRANCH  25  26
HETATM   26  C20 UNL     1      25.504   5.947  49.095  1.00  0.00     0.143 C 
BRANCH  26  27
HETATM   27  N5  UNL     1      25.504   6.761  50.272  1.00  0.00    -0.418 N 
HETATM   28  C21 UNL     1      26.118   8.042  50.147  1.00  0.00     0.142 C 
HETATM   29  C22 UNL     1      24.322   6.706  51.068  1.00  0.00     0.142 C 
ENDBRANCH  26  27
ENDBRANCH  25  26
ENDBRANCH  21  24
ENDBRANCH  12  20
BRANCH   1  30
HETATM   30  C2  UNL     1      27.159   1.151  53.683  1.00  0.00     0.036 C 
HETATM   31  C1  UNL     1      27.654   0.236  54.756  1.00  0.00     0.010 C 
ENDBRANCH   1  30
TORSDOF 8
ENDMDL
MODEL 8
REMARK VINA RESULT:      -7.4      2.896      5.106
REMARK  8 active torsions:
REMARK  status: ('A' for Active; 'I' for Inactive)
REMARK    1  A    between atoms: C2_2  and  C3_3 
REMARK    2  A    between atoms: C9_11  and  N3_12 
REMARK    3  A    between atoms: N3_12  and  C10_13 
REMARK    4  A    between atoms: C11_14  and  C12_15 
REMARK    5  A    between atoms: C16_20  and  N4_21 
REMARK       I    between atoms: N4_21  and  C17_22 
REMARK    6  A    between atoms: C17_22  and  C18_24 
REMARK    7  A    between atoms: C19_25  and  C20_26 
REMARK    8  A    between atoms: C20_26  and  N5_27 
ROOT
HETATM    1  C3  UNL     1      27.274   1.514  53.415  1.00  0.00    -0.029 A 
HETATM    2  C4  UNL     1      26.857   0.458  54.198  1.00  0.00     0.042 A 
HETATM    3  C5  UNL     1      25.533   0.033  54.245  1.00  0.00     0.069 A 
HETATM    4  N1  UNL     1      25.233  -1.009  55.039  1.00  0.00    -0.259 NA
HETATM    5  C6  UNL     1      23.948  -1.455  55.106  1.00  0.00     0.142 A 
HETATM    6  C7  UNL     1      22.952  -0.838  54.362  1.00  0.00     0.089 A 
HETATM    7  C8  UNL     1      21.631  -1.374  54.488  1.00  0.00     0.103 C 
HETATM    8  N2  UNL     1      20.577  -1.824  54.583  1.00  0.00    -0.191 NA
HETATM    9  C9  UNL     1      23.293   0.225  53.561  1.00  0.00     0.067 A 
HETATM   10  C14 UNL     1      24.580   0.696  53.473  1.00  0.00     0.023 A 
HETATM   11  C15 UNL     1      24.962   1.755  52.679  1.00  0.00     0.046 A 
HETATM   12  C16 UNL     1      26.287   2.140  52.665  1.00  0.00     0.042 A 
ENDROOT
BRANCH   9  13
HETATM   13  N3  UNL     1      22.283   0.860  52.803  1.00  0.00    -0.363 N 
HETATM   14  H8  UNL     1      21.496   1.485  53.063  1.00  0.00     0.165 HD
BRANCH  13  15
HETATM   15  C10 UNL     1      22.004   0.856  51.418  1.00  0.00     0.097 C 
HETATM   16  C11 UNL     1      20.921   0.549  50.727  1.00  0.00     0.082 C 
BRANCH  16  17
HETATM   17  C12 UNL     1      19.738   0.126  51.416  1.00  0.00    -0.060 C 
HETATM   18  C13 UNL     1      18.740  -0.219  52.006  1.00  0.00     0.009 C 
HETATM   19 CL1  UNL     1      17.289  -0.723  52.835  1.00  0.00    -0.023 Cl
ENDBRANCH  16  17
ENDBRANCH  13  15
ENDBRANCH   9  13
BRANCH  12  20
HETATM   20  N4  UNL     1      26.763   3.231  51.868  1.00  0.00    -0.323 N 
HETATM   21  C17 UNL     1      26.537   2.950  50.490  1.00  0.00     0.245 C 
HETATM   22  O1  UNL     1      25.979   1.808  50.442  1.00  0.00    -0.268 OA
HETATM   23  H12 UNL     1      27.218   4.146  52.100  1.00  0.00     0.169 HD
BRANCH  21  24
HETATM   24  C18 UNL     1      26.846   3.738  49.334  1.00  0.00     0.072 C 
HETATM   25  C19 UNL     1      26.619   4.989  48.977  1.00  0.00    -0.002 C 
BRANCH  25  26
HETATM   26  C20 UNL     1      26.030   6.280  49.338  1.00  0.00     0.143 C 
BRANCH  26  27
HETATM   27  N5  UNL     1      24.625   6.157  49.581  1.00  0.00    -0.418 N 
HETATM   28  C21 UNL     1      23.866   5.521  48.554  1.00  0.00     0.142 C 
HETATM   29  C22 UNL     1      24.248   5.850  50.922  1.00  0.00     0.142 C 
ENDBRANCH  26  27
ENDBRANCH  25  26
ENDBRANCH  21  24
ENDBRANCH  12  20
BRANCH   1  30
HETATM   30  C2  UNL     1      28.688   1.933  53.383  1.00  0.00     0.036 C 
HETATM   31  C1  UNL     1      29.428   1.550  54.624  1.00  0.00     0.010 C 
ENDBRANCH   1  30
TORSDOF 8
ENDMDL
MODEL 9
REMARK VINA RESULT:      -7.4      2.945      6.042
REMARK  8 active torsions:
REMARK  status: ('A' for Active; 'I' for Inactive)
REMARK    1  A    between atoms: C2_2  and  C3_3 
REMARK    2  A    between atoms: C9_11  and  N3_12 
REMARK    3  A    between atoms: N3_12  and  C10_13 
REMARK    4  A    between atoms: C11_14  and  C12_15 
REMARK    5  A    between atoms: C16_20  and  N4_21 
REMARK       I    between atoms: N4_21  and  C17_22 
REMARK    6  A    between atoms: C17_22  and  C18_24 
REMARK    7  A    between atoms: C19_25  and  C20_26 
REMARK    8  A    between atoms: C20_26  and  N5_27 
ROOT
HETATM    1  C3  UNL     1      22.382  -0.218  52.920  1.00  0.00    -0.029 A 
HETATM    2  C4  UNL     1      23.388  -0.520  53.813  1.00  0.00     0.042 A 
HETATM    3  C5  UNL     1      24.614   0.140  53.817  1.00  0.00     0.069 A 
HETATM    4  N1  UNL     1      25.525  -0.229  54.733  1.00  0.00    -0.259 NA
HETATM    5  C6  UNL     1      26.734   0.398  54.769  1.00  0.00     0.142 A 
HETATM    6  C7  UNL     1      27.025   1.411  53.866  1.00  0.00     0.089 A 
HETATM    7  C8  UNL     1      28.315   2.020  53.979  1.00  0.00     0.103 C 
HETATM    8  N2  UNL     1      29.348   2.514  54.088  1.00  0.00    -0.191 NA
HETATM    9  C9  UNL     1      26.070   1.763  52.942  1.00  0.00     0.067 A 
HETATM   10  C14 UNL     1      24.844   1.149  52.882  1.00  0.00     0.023 A 
HETATM   11  C15 UNL     1      23.860   1.475  51.976  1.00  0.00     0.046 A 
HETATM   12  C16 UNL     1      22.661   0.794  52.011  1.00  0.00     0.042 A 
ENDROOT
BRANCH   9  13
HETATM   13  N3  UNL     1      26.362   2.791  52.018  1.00  0.00    -0.363 N 
HETATM   14  H8  UNL     1      26.397   3.826  52.103  1.00  0.00     0.165 HD
BRANCH  13  15
HETATM   15  C10 UNL     1      26.707   2.754  50.648  1.00  0.00     0.097 C 
HETATM   16  C11 UNL     1      26.162   3.299  49.576  1.00  0.00     0.082 C 
BRANCH  16  17
HETATM   17  C12 UNL     1      24.986   4.106  49.711  1.00  0.00    -0.060 C 
HETATM   18  C13 UNL     1      23.999   4.798  49.815  1.00  0.00     0.009 C 
HETATM   19 CL1  UNL     1      22.561   5.775  49.963  1.00  0.00    -0.023 Cl
ENDBRANCH  16  17
ENDBRANCH  13  15
ENDBRANCH   9  13
BRANCH  12  20
HETATM   20  N4  UNL     1      21.590   1.073  51.101  1.00  0.00    -0.323 N 
HETATM   21  C17 UNL     1      21.135   2.409  51.296  1.00  0.00     0.245 C 
HETATM   22  O1  UNL     1      21.850   2.901  52.224  1.00  0.00    -0.268 OA
HETATM   23  H12 UNL     1      21.110   0.508  50.361  1.00  0.00     0.169 HD
BRANCH  21  24
HETATM   24  C18 UNL     1      20.090   3.125  50.625  1.00  0.00     0.072 C 
HETATM   25  C19 UNL     1      19.768   3.326  49.360  1.00  0.00    -0.002 C 
BRANCH  25  26
HETATM   26  C20 UNL     1      20.096   3.072  47.956  1.00  0.00     0.143 C 
BRANCH  26  27
HETATM   27  N5  UNL     1      21.492   3.270  47.707  1.00  0.00    -0.418 N 
HETATM   28  C21 UNL     1      22.304   2.097  47.735  1.00  0.00     0.142 C 
HETATM   29  C22 UNL     1      21.817   4.237  46.711  1.00  0.00     0.142 C 
ENDBRANCH  26  27
ENDBRANCH  25  26
ENDBRANCH  21  24
ENDBRANCH  12  20
BRANCH   1  30
HETATM   30  C2  UNL     1      21.092  -0.933  52.948  1.00  0.00     0.036 C 
HETATM   31  C1  UNL     1      20.846  -1.620  54.253  1.00  0.00     0.010 C 
ENDBRANCH   1  30
TORSDOF 8
ENDMDL
