MODEL 1
REMARK VINA RESULT:      -8.6      0.000      0.000
REMARK  2 active torsions:
REMARK  status: ('A' for Active; 'I' for Inactive)
REMARK    1  A    between atoms: C10_13  and  C11_14 
REMARK    2  A    between atoms: C12_15  and  C13_16 
ROOT
HETATM    1  C1  UNL     1      18.247  -1.430  53.096  1.00  0.00    -0.003 C 
HETATM    2  C2  UNL     1      17.946  -0.819  51.960  1.00  0.00    -0.026 C 
HETATM    3  C3  UNL     1      18.529   0.347  51.234  1.00  0.00     0.038 C 
HETATM    4  C4  UNL     1      19.916   0.393  51.519  1.00  0.00     0.052 C 
HETATM    5  C5  UNL     1      20.957   1.273  50.974  1.00  0.00     0.063 A 
HETATM    6  C6  UNL     1      21.910   0.970  49.999  1.00  0.00    -0.001 A 
HETATM    7  C7  UNL     1      22.280   1.329  51.455  1.00  0.00     0.091 A 
HETATM    8  S1  UNL     1      21.268   1.672  52.783  1.00  0.00    -0.174 SA
HETATM    9  C8  UNL     1      20.401   3.245  52.331  1.00  0.00     0.042 A 
HETATM   10  C9  UNL     1      21.272   2.784  51.376  1.00  0.00     0.113 A 
HETATM   11  N1  UNL     1      22.445   3.667  50.881  1.00  0.00    -0.290 N 
HETATM   12  N2  UNL     1      23.711   3.091  51.412  1.00  0.00    -0.180 NA
HETATM   13  C10 UNL     1      23.782   1.729  51.642  1.00  0.00     0.078 C 
HETATM   14  C18 UNL     1      20.076   0.333  53.045  1.00  0.00    -0.032 C 
HETATM   15  C19 UNL     1      19.448  -0.708  53.655  1.00  0.00     0.013 C 
HETATM   16  H8  UNL     1      22.541   4.554  50.252  1.00  0.00     0.184 HD
ENDROOT
BRANCH  13  17
HETATM   17  C11 UNL     1      25.160   1.291  51.950  1.00  0.00     0.033 C 
HETATM   18  C12 UNL     1      25.118   0.562  53.033  1.00  0.00     0.034 C 
BRANCH  18  19
HETATM   19  C13 UNL     1      26.442   0.137  53.336  1.00  0.00     0.056 A 
HETATM   20  C14 UNL     1      27.216  -0.846  52.778  1.00  0.00     0.031 A 
HETATM   21  C15 UNL     1      28.491  -1.185  53.139  1.00  0.00     0.004 A 
HETATM   22  C16 UNL     1      29.054  -0.469  54.165  1.00  0.00     0.019 A 
HETATM   23  C17 UNL     1      28.294   0.522  54.737  1.00  0.00     0.117 A 
HETATM   24  N3  UNL     1      27.052   0.814  54.347  1.00  0.00    -0.261 NA
ENDBRANCH  18  19
ENDBRANCH  13  17
TORSDOF 2
ENDMDL
MODEL 2
REMARK VINA RESULT:      -8.4      1.908      7.422
REMARK  2 active torsions:
REMARK  status: ('A' for Active; 'I' for Inactive)
REMARK    1  A    between atoms: C10_13  and  C11_14 
REMARK    2  A    between atoms: C12_15  and  C13_16 
ROOT
HETATM    1  C1  UNL     1      29.411  -0.476  54.050  1.00  0.00    -0.003 C 
HETATM    2  C2  UNL     1      29.419   0.837  54.222  1.00  0.00    -0.026 C 
HETATM    3  C3  UNL     1      28.578   1.948  53.689  1.00  0.00     0.038 C 
HETATM    4  C4  UNL     1      27.274   1.442  53.461  1.00  0.00     0.052 C 
HETATM    5  C5  UNL     1      26.054   2.146  53.046  1.00  0.00     0.063 A 
HETATM    6  C6  UNL     1      24.975   2.531  53.844  1.00  0.00    -0.001 A 
HETATM    7  C7  UNL     1      24.849   1.504  52.698  1.00  0.00     0.091 A 
HETATM    8  S1  UNL     1      26.048   0.877  51.662  1.00  0.00    -0.174 SA
HETATM    9  C8  UNL     1      26.626   2.325  50.663  1.00  0.00     0.042 A 
HETATM   10  C9  UNL     1      25.648   2.622  51.580  1.00  0.00     0.113 A 
HETATM   11  N1  UNL     1      24.308   3.259  51.131  1.00  0.00    -0.290 N 
HETATM   12  N2  UNL     1      23.242   2.229  51.267  1.00  0.00    -0.180 NA
HETATM   13  C10 UNL     1      23.374   1.254  52.238  1.00  0.00     0.078 C 
HETATM   14  C18 UNL     1      27.415   0.168  52.617  1.00  0.00    -0.032 C 
HETATM   15  C19 UNL     1      28.263  -0.771  53.117  1.00  0.00     0.013 C 
HETATM   16  H8  UNL     1      23.994   4.242  50.775  1.00  0.00     0.184 HD
ENDROOT
BRANCH  13  17
HETATM   17  C11 UNL     1      22.139   0.454  52.391  1.00  0.00     0.033 C 
HETATM   18  C12 UNL     1      21.135   1.183  51.984  1.00  0.00     0.034 C 
BRANCH  18  19
HETATM   19  C13 UNL     1      19.943   0.420  52.128  1.00  0.00     0.056 A 
HETATM   20  C14 UNL     1      18.830   0.340  51.333  1.00  0.00     0.031 A 
HETATM   21  C15 UNL     1      17.722  -0.430  51.556  1.00  0.00     0.004 A 
HETATM   22  C16 UNL     1      17.722  -1.202  52.689  1.00  0.00     0.019 A 
HETATM   23  C17 UNL     1      18.829  -1.136  53.500  1.00  0.00     0.117 A 
HETATM   24  N3  UNL     1      19.888  -0.367  53.238  1.00  0.00    -0.261 NA
ENDBRANCH  18  19
ENDBRANCH  13  17
TORSDOF 2
ENDMDL
MODEL 3
REMARK VINA RESULT:      -8.3      3.108      4.347
REMARK  2 active torsions:
REMARK  status: ('A' for Active; 'I' for Inactive)
REMARK    1  A    between atoms: C10_13  and  C11_14 
REMARK    2  A    between atoms: C12_15  and  C13_16 
ROOT
HETATM    1  C1  UNL     1      21.932   3.259  46.455  1.00  0.00    -0.003 C 
HETATM    2  C2  UNL     1      22.072   4.463  46.988  1.00  0.00    -0.026 C 
HETATM    3  C3  UNL     1      22.445   4.947  48.349  1.00  0.00     0.038 C 
HETATM    4  C4  UNL     1      23.320   3.996  48.929  1.00  0.00     0.052 C 
HETATM    5  C5  UNL     1      24.051   4.048  50.201  1.00  0.00     0.063 A 
HETATM    6  C6  UNL     1      25.405   4.330  50.399  1.00  0.00    -0.001 A 
HETATM    7  C7  UNL     1      24.770   2.965  50.747  1.00  0.00     0.091 A 
HETATM    8  S1  UNL     1      23.169   2.422  50.531  1.00  0.00    -0.174 SA
HETATM    9  C8  UNL     1      22.146   3.487  51.649  1.00  0.00     0.042 A 
HETATM   10  C9  UNL     1      23.489   3.771  51.668  1.00  0.00     0.113 A 
HETATM   11  N1  UNL     1      24.293   3.713  52.992  1.00  0.00    -0.290 N 
HETATM   12  N2  UNL     1      25.187   2.524  52.934  1.00  0.00    -0.180 NA
HETATM   13  C10 UNL     1      25.646   2.091  51.704  1.00  0.00     0.078 C 
HETATM   14  C18 UNL     1      22.652   2.619  48.805  1.00  0.00    -0.032 C 
HETATM   15  C19 UNL     1      22.259   2.275  47.549  1.00  0.00     0.013 C 
HETATM   16  H8  UNL     1      24.354   4.326  53.893  1.00  0.00     0.184 HD
ENDROOT
BRANCH  13  17
HETATM   17  C11 UNL     1      26.690   1.052  51.838  1.00  0.00     0.033 C 
HETATM   18  C12 UNL     1      26.784   0.737  53.102  1.00  0.00     0.034 C 
BRANCH  18  19
HETATM   19  C13 UNL     1      27.788  -0.263  53.239  1.00  0.00     0.056 A 
HETATM   20  C14 UNL     1      29.104  -0.165  53.608  1.00  0.00     0.031 A 
HETATM   21  C15 UNL     1      30.001  -1.192  53.713  1.00  0.00     0.004 A 
HETATM   22  C16 UNL     1      29.538  -2.450  53.418  1.00  0.00     0.019 A 
HETATM   23  C17 UNL     1      28.221  -2.569  53.045  1.00  0.00     0.117 A 
HETATM   24  N3  UNL     1      27.385  -1.532  52.959  1.00  0.00    -0.261 NA
ENDBRANCH  18  19
ENDBRANCH  13  17
TORSDOF 2
ENDMDL
MODEL 4
REMARK VINA RESULT:      -8.2      2.075      3.698
REMARK  2 active torsions:
REMARK  status: ('A' for Active; 'I' for Inactive)
REMARK    1  A    between atoms: C10_13  and  C11_14 
REMARK    2  A    between atoms: C12_15  and  C13_16 
ROOT
HETATM    1  C1  UNL     1      21.844   3.148  47.473  1.00  0.00    -0.003 C 
HETATM    2  C2  UNL     1      21.300   3.899  48.419  1.00  0.00    -0.026 C 
HETATM    3  C3  UNL     1      20.966   3.661  49.854  1.00  0.00     0.038 C 
HETATM    4  C4  UNL     1      21.899   2.730  50.373  1.00  0.00     0.052 C 
HETATM    5  C5  UNL     1      22.075   2.247  51.749  1.00  0.00     0.063 A 
HETATM    6  C6  UNL     1      23.049   2.632  52.674  1.00  0.00    -0.001 A 
HETATM    7  C7  UNL     1      22.940   1.196  52.115  1.00  0.00     0.091 A 
HETATM    8  S1  UNL     1      21.866   0.557  50.955  1.00  0.00    -0.174 SA
HETATM    9  C8  UNL     1      20.191   0.669  51.739  1.00  0.00     0.042 A 
HETATM   10  C9  UNL     1      21.215   1.147  52.518  1.00  0.00     0.113 A 
HETATM   11  N1  UNL     1      21.479   0.558  53.928  1.00  0.00    -0.290 N 
HETATM   12  N2  UNL     1      22.738  -0.235  53.866  1.00  0.00    -0.180 NA
HETATM   13  C10 UNL     1      23.716   0.132  52.960  1.00  0.00     0.078 C 
HETATM   14  C18 UNL     1      21.925   1.524  49.424  1.00  0.00    -0.032 C 
HETATM   15  C19 UNL     1      22.150   1.819  48.115  1.00  0.00     0.013 C 
HETATM   16  H8  UNL     1      20.983   0.610  54.898  1.00  0.00     0.184 HD
ENDROOT
BRANCH  13  17
HETATM   17  C11 UNL     1      24.978  -0.607  53.179  1.00  0.00     0.033 C 
HETATM   18  C12 UNL     1      25.963   0.150  52.778  1.00  0.00     0.034 C 
BRANCH  18  19
HETATM   19  C13 UNL     1      27.181  -0.556  52.985  1.00  0.00     0.056 A 
HETATM   20  C14 UNL     1      28.429  -0.105  53.328  1.00  0.00     0.031 A 
HETATM   21  C15 UNL     1      29.551  -0.868  53.507  1.00  0.00     0.004 A 
HETATM   22  C16 UNL     1      29.415  -2.220  53.326  1.00  0.00     0.019 A 
HETATM   23  C17 UNL     1      28.171  -2.692  52.983  1.00  0.00     0.117 A 
HETATM   24  N3  UNL     1      27.106  -1.905  52.820  1.00  0.00    -0.261 NA
ENDBRANCH  18  19
ENDBRANCH  13  17
TORSDOF 2
ENDMDL
MODEL 5
REMARK VINA RESULT:      -8.2      4.720      5.834
REMARK  2 active torsions:
REMARK  status: ('A' for Active; 'I' for Inactive)
REMARK    1  A    between atoms: C10_13  and  C11_14 
REMARK    2  A    between atoms: C12_15  and  C13_16 
ROOT
HETATM    1  C1  UNL     1      23.683  -0.561  53.507  1.00  0.00    -0.003 C 
HETATM    2  C2  UNL     1      22.571  -0.312  52.831  1.00  0.00    -0.026 C 
HETATM    3  C3  UNL     1      22.069   0.875  52.080  1.00  0.00     0.038 C 
HETATM    4  C4  UNL     1      23.188   1.564  51.550  1.00  0.00     0.052 C 
HETATM    5  C5  UNL     1      23.234   2.725  50.651  1.00  0.00     0.063 A 
HETATM    6  C6  UNL     1      23.498   2.736  49.279  1.00  0.00    -0.001 A 
HETATM    7  C7  UNL     1      24.413   3.422  50.318  1.00  0.00     0.091 A 
HETATM    8  S1  UNL     1      24.285   3.472  52.017  1.00  0.00    -0.174 SA
HETATM    9  C8  UNL     1      22.733   4.424  52.354  1.00  0.00     0.042 A 
HETATM   10  C9  UNL     1      23.020   4.261  51.022  1.00  0.00     0.113 A 
HETATM   11  N1  UNL     1      23.186   5.489  50.091  1.00  0.00    -0.290 N 
HETATM   12  N2  UNL     1      24.629   5.607  49.740  1.00  0.00    -0.180 NA
HETATM   13  C10 UNL     1      25.402   4.462  49.694  1.00  0.00     0.078 C 
HETATM   14  C18 UNL     1      24.175   1.798  52.702  1.00  0.00    -0.032 C 
HETATM   15  C19 UNL     1      24.526   0.685  53.401  1.00  0.00     0.013 C 
HETATM   16  H8  UNL     1      22.516   6.229  49.651  1.00  0.00     0.184 HD
ENDROOT
BRANCH  13  17
HETATM   17  C11 UNL     1      26.739   4.721  49.117  1.00  0.00     0.033 C 
HETATM   18  C12 UNL     1      26.781   5.972  48.744  1.00  0.00     0.034 C 
BRANCH  18  19
HETATM   19  C13 UNL     1      28.066   6.228  48.188  1.00  0.00     0.056 A 
HETATM   20  C14 UNL     1      28.518   7.272  47.425  1.00  0.00     0.031 A 
HETATM   21  C15 UNL     1      29.784   7.434  46.932  1.00  0.00     0.004 A 
HETATM   22  C16 UNL     1      30.694   6.452  47.229  1.00  0.00     0.019 A 
HETATM   23  C17 UNL     1      30.259   5.396  47.992  1.00  0.00     0.117 A 
HETATM   24  N3  UNL     1      29.011   5.284  48.451  1.00  0.00    -0.261 NA
ENDBRANCH  18  19
ENDBRANCH  13  17
TORSDOF 2
ENDMDL
MODEL 6
REMARK VINA RESULT:      -7.8      3.008      5.065
REMARK  2 active torsions:
REMARK  status: ('A' for Active; 'I' for Inactive)
REMARK    1  A    between atoms: C10_13  and  C11_14 
REMARK    2  A    between atoms: C12_15  and  C13_16 
ROOT
HETATM    1  C1  UNL     1      24.420   7.516  49.411  1.00  0.00    -0.003 C 
HETATM    2  C2  UNL     1      23.526   7.529  50.387  1.00  0.00    -0.026 C 
HETATM    3  C3  UNL     1      22.814   6.456  51.142  1.00  0.00     0.038 C 
HETATM    4  C4  UNL     1      23.663   5.324  51.203  1.00  0.00     0.052 C 
HETATM    5  C5  UNL     1      23.482   4.053  51.917  1.00  0.00     0.063 A 
HETATM    6  C6  UNL     1      24.076   3.653  53.116  1.00  0.00    -0.001 A 
HETATM    7  C7  UNL     1      24.328   2.936  51.772  1.00  0.00     0.091 A 
HETATM    8  S1  UNL     1      23.742   3.305  50.213  1.00  0.00    -0.174 SA
HETATM    9  C8  UNL     1      21.911   3.049  50.316  1.00  0.00     0.042 A 
HETATM   10  C9  UNL     1      22.583   2.808  51.488  1.00  0.00     0.113 A 
HETATM   11  N1  UNL     1      22.489   1.427  52.186  1.00  0.00    -0.290 N 
HETATM   12  N2  UNL     1      23.802   0.742  52.027  1.00  0.00    -0.180 NA
HETATM   13  C10 UNL     1      24.949   1.508  51.928  1.00  0.00     0.078 C 
HETATM   14  C18 UNL     1      24.128   5.019  49.772  1.00  0.00    -0.032 C 
HETATM   15  C19 UNL     1      24.693   6.064  49.109  1.00  0.00     0.013 C 
HETATM   16  H8  UNL     1      21.724   0.889  52.748  1.00  0.00     0.184 HD
ENDROOT
BRANCH  13  17
HETATM   17  C11 UNL     1      26.173   0.682  52.002  1.00  0.00     0.033 C 
HETATM   18  C12 UNL     1      26.341   0.321  53.246  1.00  0.00     0.034 C 
BRANCH  18  19
HETATM   19  C13 UNL     1      27.518  -0.475  53.324  1.00  0.00     0.056 A 
HETATM   20  C14 UNL     1      28.795  -0.148  53.697  1.00  0.00     0.031 A 
HETATM   21  C15 UNL     1      29.873  -0.989  53.742  1.00  0.00     0.004 A 
HETATM   22  C16 UNL     1      29.656  -2.293  53.377  1.00  0.00     0.019 A 
HETATM   23  C17 UNL     1      28.381  -2.641  53.000  1.00  0.00     0.117 A 
HETATM   24  N3  UNL     1      27.362  -1.780  52.973  1.00  0.00    -0.261 NA
ENDBRANCH  18  19
ENDBRANCH  13  17
TORSDOF 2
ENDMDL
MODEL 7
REMARK VINA RESULT:      -7.8      9.319     12.617
REMARK  2 active torsions:
REMARK  status: ('A' for Active; 'I' for Inactive)
REMARK    1  A    between atoms: C10_13  and  C11_14 
REMARK    2  A    between atoms: C12_15  and  C13_16 
ROOT
HETATM    1  C1  UNL     1      33.813   5.724  42.470  1.00  0.00    -0.003 C 
HETATM    2  C2  UNL     1      34.376   4.731  43.140  1.00  0.00    -0.026 C 
HETATM    3  C3  UNL     1      34.419   4.361  44.585  1.00  0.00     0.038 C 
HETATM    4  C4  UNL     1      33.216   4.805  45.188  1.00  0.00     0.052 C 
HETATM    5  C5  UNL     1      32.720   4.597  46.555  1.00  0.00     0.063 A 
HETATM    6  C6  UNL     1      31.744   3.693  46.983  1.00  0.00    -0.001 A 
HETATM    7  C7  UNL     1      31.576   5.225  47.086  1.00  0.00     0.091 A 
HETATM    8  S1  UNL     1      32.620   6.472  46.576  1.00  0.00    -0.174 SA
HETATM    9  C8  UNL     1      34.131   6.295  47.632  1.00  0.00     0.042 A 
HETATM   10  C9  UNL     1      33.153   5.366  47.882  1.00  0.00     0.113 A 
HETATM   11  N1  UNL     1      32.541   5.222  49.299  1.00  0.00    -0.290 N 
HETATM   12  N2  UNL     1      31.148   5.748  49.254  1.00  0.00    -0.180 NA
HETATM   13  C10 UNL     1      30.441   5.667  48.068  1.00  0.00     0.078 C 
HETATM   14  C18 UNL     1      33.036   6.284  44.822  1.00  0.00    -0.032 C 
HETATM   15  C19 UNL     1      33.092   6.566  43.493  1.00  0.00     0.013 C 
HETATM   16  H8  UNL     1      32.881   4.827  50.258  1.00  0.00     0.184 HD
ENDROOT
BRANCH  13  17
HETATM   17  C11 UNL     1      29.017   6.022  48.249  1.00  0.00     0.033 C 
HETATM   18  C12 UNL     1      28.363   4.928  48.534  1.00  0.00     0.034 C 
BRANCH  18  19
HETATM   19  C13 UNL     1      26.990   5.262  48.709  1.00  0.00     0.056 A 
HETATM   20  C14 UNL     1      26.310   6.420  48.438  1.00  0.00     0.031 A 
HETATM   21  C15 UNL     1      24.977   6.650  48.642  1.00  0.00     0.004 A 
HETATM   22  C16 UNL     1      24.245   5.618  49.171  1.00  0.00     0.019 A 
HETATM   23  C17 UNL     1      24.909   4.448  49.450  1.00  0.00     0.117 A 
HETATM   24  N3  UNL     1      26.214   4.274  49.232  1.00  0.00    -0.261 NA
ENDBRANCH  18  19
ENDBRANCH  13  17
TORSDOF 2
ENDMDL
MODEL 8
REMARK VINA RESULT:      -7.8      3.844      4.806
REMARK  2 active torsions:
REMARK  status: ('A' for Active; 'I' for Inactive)
REMARK    1  A    between atoms: C10_13  and  C11_14 
REMARK    2  A    between atoms: C12_15  and  C13_16 
ROOT
HETATM    1  C1  UNL     1      21.928   3.878  45.603  1.00  0.00    -0.003 C 
HETATM    2  C2  UNL     1      22.160   5.155  45.867  1.00  0.00    -0.026 C 
HETATM    3  C3  UNL     1      22.320   5.930  47.133  1.00  0.00     0.038 C 
HETATM    4  C4  UNL     1      22.879   5.068  48.108  1.00  0.00     0.052 C 
HETATM    5  C5  UNL     1      23.330   5.364  49.474  1.00  0.00     0.063 A 
HETATM    6  C6  UNL     1      24.641   5.530  49.926  1.00  0.00    -0.001 A 
HETATM    7  C7  UNL     1      23.723   4.385  50.408  1.00  0.00     0.091 A 
HETATM    8  S1  UNL     1      22.132   3.993  49.938  1.00  0.00    -0.174 SA
HETATM    9  C8  UNL     1      21.098   5.422  50.503  1.00  0.00     0.042 A 
HETATM   10  C9  UNL     1      22.437   5.545  50.783  1.00  0.00     0.113 A 
HETATM   11  N1  UNL     1      22.927   5.741  52.240  1.00  0.00    -0.290 N 
HETATM   12  N2  UNL     1      23.595   4.482  52.673  1.00  0.00    -0.180 NA
HETATM   13  C10 UNL     1      24.218   3.694  51.722  1.00  0.00     0.078 C 
HETATM   14  C18 UNL     1      22.025   3.793  48.140  1.00  0.00    -0.032 C 
HETATM   15  C19 UNL     1      21.847   3.181  46.938  1.00  0.00     0.013 C 
HETATM   16  H8  UNL     1      22.905   6.555  52.966  1.00  0.00     0.184 HD
ENDROOT
BRANCH  13  17
HETATM   17  C11 UNL     1      25.017   2.613  52.338  1.00  0.00     0.033 C 
HETATM   18  C12 UNL     1      26.022   2.354  51.545  1.00  0.00     0.034 C 
BRANCH  18  19
HETATM   19  C13 UNL     1      26.796   1.313  52.132  1.00  0.00     0.056 A 
HETATM   20  C14 UNL     1      26.615  -0.045  52.131  1.00  0.00     0.031 A 
HETATM   21  C15 UNL     1      27.420  -0.976  52.728  1.00  0.00     0.004 A 
HETATM   22  C16 UNL     1      28.521  -0.504  53.396  1.00  0.00     0.019 A 
HETATM   23  C17 UNL     1      28.720   0.855  53.408  1.00  0.00     0.117 A 
HETATM   24  N3  UNL     1      27.903   1.723  52.809  1.00  0.00    -0.261 NA
ENDBRANCH  18  19
ENDBRANCH  13  17
TORSDOF 2
ENDMDL
MODEL 9
REMARK VINA RESULT:      -7.6      3.740      5.826
REMARK  2 active torsions:
REMARK  status: ('A' for Active; 'I' for Inactive)
REMARK    1  A    between atoms: C10_13  and  C11_14 
REMARK    2  A    between atoms: C12_15  and  C13_16 
ROOT
HETATM    1  C1  UNL     1      21.228   7.950  49.393  1.00  0.00    -0.003 C 
HETATM    2  C2  UNL     1      21.667   7.469  48.239  1.00  0.00    -0.026 C 
HETATM    3  C3  UNL     1      22.800   6.573  47.864  1.00  0.00     0.038 C 
HETATM    4  C4  UNL     1      23.033   5.685  48.942  1.00  0.00     0.052 C 
HETATM    5  C5  UNL     1      23.957   4.547  49.037  1.00  0.00     0.063 A 
HETATM    6  C6  UNL     1      23.653   3.187  48.938  1.00  0.00    -0.001 A 
HETATM    7  C7  UNL     1      24.215   3.833  50.224  1.00  0.00     0.091 A 
HETATM    8  S1  UNL     1      24.594   5.463  50.548  1.00  0.00    -0.174 SA
HETATM    9  C8  UNL     1      25.997   5.867  49.409  1.00  0.00     0.042 A 
HETATM   10  C9  UNL     1      25.529   4.581  49.300  1.00  0.00     0.113 A 
HETATM   11  N1  UNL     1      26.476   3.372  49.515  1.00  0.00    -0.290 N 
HETATM   12  N2  UNL     1      26.110   2.726  50.805  1.00  0.00    -0.180 NA
HETATM   13  C10 UNL     1      24.800   2.798  51.242  1.00  0.00     0.078 C 
HETATM   14  C18 UNL     1      23.168   6.531  50.216  1.00  0.00    -0.032 C 
HETATM   15  C19 UNL     1      22.140   7.389  50.455  1.00  0.00     0.013 C 
HETATM   16  H8  UNL     1      27.291   2.911  48.953  1.00  0.00     0.184 HD
ENDROOT
BRANCH  13  17
HETATM   17  C11 UNL     1      24.558   1.925  52.410  1.00  0.00     0.033 C 
HETATM   18  C12 UNL     1      23.582   1.112  52.109  1.00  0.00     0.034 C 
BRANCH  18  19
HETATM   19  C13 UNL     1      23.343   0.268  53.230  1.00  0.00     0.056 A 
HETATM   20  C14 UNL     1      22.170  -0.160  53.794  1.00  0.00     0.031 A 
HETATM   21  C15 UNL     1      22.038  -0.979  54.881  1.00  0.00     0.004 A 
HETATM   22  C16 UNL     1      23.197  -1.418  55.469  1.00  0.00     0.019 A 
HETATM   23  C17 UNL     1      24.384  -1.000  54.919  1.00  0.00     0.117 A 
HETATM   24  N3  UNL     1      24.459  -0.199  53.854  1.00  0.00    -0.261 NA
ENDBRANCH  18  19
ENDBRANCH  13  17
TORSDOF 2
ENDMDL
