MODEL 1
REMARK VINA RESULT:      -8.8      0.000      0.000
REMARK  6 active torsions:
REMARK  status: ('A' for Active; 'I' for Inactive)
REMARK    1  A    between atoms: C1_2  and  C2_3 
REMARK       I    between atoms: C1_2  and  N1_11 
REMARK    2  A    between atoms: C2_3  and  O2_4 
REMARK    3  A    between atoms: O2_4  and  C3_5 
REMARK    4  A    between atoms: N1_11  and  C9_12 
REMARK    5  A    between atoms: C13_18  and  N4_19 
REMARK    6  A    between atoms: N4_19  and  C14_20 
ROOT
HETATM    1  C9  UNL     1      25.934   4.055  49.614  1.00  0.00     0.033 C 
HETATM    2  C10 UNL     1      25.148   5.063  49.388  1.00  0.00     0.018 C 
HETATM    3  C11 UNL     1      25.121   6.100  50.171  1.00  0.00     0.132 C 
HETATM    4  N2  UNL     1      26.116   6.521  49.285  1.00  0.00    -0.253 NA
HETATM    5  C12 UNL     1      26.111   7.207  48.248  1.00  0.00     0.234 C 
HETATM    6  N3  UNL     1      27.461   7.250  47.839  1.00  0.00    -0.225 NA
HETATM    7  C13 UNL     1      28.305   6.284  47.982  1.00  0.00     0.126 C 
HETATM    8  C20 UNL     1      28.271   4.906  48.558  1.00  0.00     0.035 C 
HETATM    9  C21 UNL     1      27.056   4.712  49.004  1.00  0.00     0.076 C 
ENDROOT
BRANCH   1  10
HETATM   10  N1  UNL     1      25.428   2.898  50.256  1.00  0.00    -0.327 N 
HETATM   11  C1  UNL     1      26.293   2.345  51.220  1.00  0.00     0.246 C 
HETATM   12  O1  UNL     1      27.419   2.822  51.504  1.00  0.00    -0.271 OA
HETATM   13  H8  UNL     1      24.483   2.556  49.971  1.00  0.00     0.168 HD
BRANCH  11  14
HETATM   14  C2  UNL     1      25.676   1.120  51.847  1.00  0.00     0.278 C 
BRANCH  14  15
HETATM   15  O2  UNL     1      26.339   0.844  53.057  1.00  0.00    -0.342 OA
BRANCH  15  16
HETATM   16  C3  UNL     1      27.235  -0.210  53.086  1.00  0.00     0.069 A 
HETATM   17  C4  UNL     1      26.835  -1.461  52.697  1.00  0.00     0.037 A 
HETATM   18  C5  UNL     1      27.725  -2.525  52.723  1.00  0.00     0.003 A 
HETATM   19  C6  UNL     1      29.041  -2.358  53.141  1.00  0.00     0.000 A 
HETATM   20  C7  UNL     1      29.470  -1.088  53.543  1.00  0.00     0.003 A 
HETATM   21  C8  UNL     1      28.548  -0.065  53.498  1.00  0.00     0.037 A 
ENDBRANCH  15  16
ENDBRANCH  14  15
ENDBRANCH  11  14
ENDBRANCH   1  10
BRANCH   7  22
HETATM   22  N4  UNL     1      29.545   6.740  47.437  1.00  0.00    -0.341 N 
HETATM   23  H11 UNL     1      29.401   7.431  46.632  1.00  0.00     0.167 HD
BRANCH  22  24
HETATM   24  C14 UNL     1      30.915   6.427  47.776  1.00  0.00     0.034 A 
HETATM   25  C15 UNL     1      31.707   7.412  48.368  1.00  0.00     0.029 A 
HETATM   26  C16 UNL     1      33.005   7.083  48.668  1.00  0.00     0.004 A 
HETATM   27  C17 UNL     1      33.588   5.857  48.430  1.00  0.00     0.019 A 
HETATM   28  C18 UNL     1      32.790   4.896  47.845  1.00  0.00     0.013 A 
HETATM   29 BR1  UNL     1      33.508   3.169  47.478  1.00  0.00    -0.051 Br
HETATM   30  C19 UNL     1      31.486   5.204  47.536  1.00  0.00     0.048 A 
ENDBRANCH  22  24
ENDBRANCH   7  22
TORSDOF 6
ENDMDL
MODEL 2
REMARK VINA RESULT:      -8.7      4.592     10.091
REMARK  6 active torsions:
REMARK  status: ('A' for Active; 'I' for Inactive)
REMARK    1  A    between atoms: C1_2  and  C2_3 
REMARK       I    between atoms: C1_2  and  N1_11 
REMARK    2  A    between atoms: C2_3  and  O2_4 
REMARK    3  A    between atoms: O2_4  and  C3_5 
REMARK    4  A    between atoms: N1_11  and  C9_12 
REMARK    5  A    between atoms: C13_18  and  N4_19 
REMARK    6  A    between atoms: N4_19  and  C14_20 
ROOT
HETATM    1  C9  UNL     1      26.052   2.401  51.499  1.00  0.00     0.033 C 
HETATM    2  C10 UNL     1      26.729   1.313  51.705  1.00  0.00     0.018 C 
HETATM    3  C11 UNL     1      27.307   1.070  52.843  1.00  0.00     0.132 C 
HETATM    4  N2  UNL     1      26.064   0.490  53.103  1.00  0.00    -0.253 NA
HETATM    5  C12 UNL     1      25.614  -0.665  52.997  1.00  0.00     0.234 C 
HETATM    6  N3  UNL     1      24.272  -0.568  53.427  1.00  0.00    -0.225 NA
HETATM    7  C13 UNL     1      23.509   0.455  53.230  1.00  0.00     0.126 C 
HETATM    8  C20 UNL     1      23.653   1.793  52.583  1.00  0.00     0.035 C 
HETATM    9  C21 UNL     1      24.879   1.866  52.134  1.00  0.00     0.076 C 
ENDROOT
BRANCH   1  10
HETATM   10  N1  UNL     1      26.656   3.489  50.822  1.00  0.00    -0.327 N 
HETATM   11  C1  UNL     1      25.982   3.890  49.653  1.00  0.00     0.246 C 
HETATM   12  O1  UNL     1      24.932   3.345  49.230  1.00  0.00    -0.271 OA
HETATM   13  H8  UNL     1      27.527   3.894  51.231  1.00  0.00     0.168 HD
BRANCH  11  14
HETATM   14  C2  UNL     1      26.695   5.047  48.999  1.00  0.00     0.278 C 
BRANCH  14  15
HETATM   15  O2  UNL     1      28.047   4.705  48.814  1.00  0.00    -0.342 OA
BRANCH  15  16
HETATM   16  C3  UNL     1      28.871   5.613  48.176  1.00  0.00     0.069 A 
HETATM   17  C4  UNL     1      28.366   6.812  47.744  1.00  0.00     0.037 A 
HETATM   18  C5  UNL     1      29.184   7.730  47.102  1.00  0.00     0.003 A 
HETATM   19  C6  UNL     1      30.532   7.468  46.879  1.00  0.00     0.000 A 
HETATM   20  C7  UNL     1      31.067   6.249  47.312  1.00  0.00     0.003 A 
HETATM   21  C8  UNL     1      30.214   5.372  47.943  1.00  0.00     0.037 A 
ENDBRANCH  15  16
ENDBRANCH  14  15
ENDBRANCH  11  14
ENDBRANCH   1  10
BRANCH   7  22
HETATM   22  N4  UNL     1      22.245   0.139  53.817  1.00  0.00    -0.341 N 
HETATM   23  H11 UNL     1      22.311   0.026  54.880  1.00  0.00     0.167 HD
BRANCH  22  24
HETATM   24  C14 UNL     1      20.937  -0.055  53.233  1.00  0.00     0.034 A 
HETATM   25  C15 UNL     1      20.045  -0.936  53.847  1.00  0.00     0.029 A 
HETATM   26  C16 UNL     1      18.817  -1.102  53.260  1.00  0.00     0.004 A 
HETATM   27  C17 UNL     1      18.392  -0.467  52.112  1.00  0.00     0.019 A 
HETATM   28  C18 UNL     1      19.287   0.401  51.520  1.00  0.00     0.013 A 
HETATM   29 BR1  UNL     1      18.791   1.325  49.928  1.00  0.00    -0.051 Br
HETATM   30  C19 UNL     1      20.525   0.582  52.091  1.00  0.00     0.048 A 
ENDBRANCH  22  24
ENDBRANCH   7  22
TORSDOF 6
ENDMDL
MODEL 3
REMARK VINA RESULT:      -8.6      2.741      7.803
REMARK  6 active torsions:
REMARK  status: ('A' for Active; 'I' for Inactive)
REMARK    1  A    between atoms: C1_2  and  C2_3 
REMARK       I    between atoms: C1_2  and  N1_11 
REMARK    2  A    between atoms: C2_3  and  O2_4 
REMARK    3  A    between atoms: O2_4  and  C3_5 
REMARK    4  A    between atoms: N1_11  and  C9_12 
REMARK    5  A    between atoms: C13_18  and  N4_19 
REMARK    6  A    between atoms: N4_19  and  C14_20 
ROOT
HETATM    1  C9  UNL     1      27.976   6.183  48.258  1.00  0.00     0.033 C 
HETATM    2  C10 UNL     1      27.200   7.087  48.772  1.00  0.00     0.018 C 
HETATM    3  C11 UNL     1      26.063   7.405  48.229  1.00  0.00     0.132 C 
HETATM    4  N2  UNL     1      25.624   6.378  49.069  1.00  0.00    -0.253 NA
HETATM    5  C12 UNL     1      25.155   6.349  50.220  1.00  0.00     0.234 C 
HETATM    6  N3  UNL     1      24.923   4.980  50.479  1.00  0.00    -0.225 NA
HETATM    7  C13 UNL     1      25.663   4.014  50.047  1.00  0.00     0.126 C 
HETATM    8  C20 UNL     1      26.892   3.897  49.207  1.00  0.00     0.035 C 
HETATM    9  C21 UNL     1      27.235   5.112  48.865  1.00  0.00     0.076 C 
ENDROOT
BRANCH   1  10
HETATM   10  N1  UNL     1      29.072   6.573  47.450  1.00  0.00    -0.327 N 
HETATM   11  C1  UNL     1      30.321   6.110  47.906  1.00  0.00     0.246 C 
HETATM   12  O1  UNL     1      30.473   5.408  48.937  1.00  0.00    -0.271 OA
HETATM   13  H8  UNL     1      28.873   7.155  46.606  1.00  0.00     0.168 HD
BRANCH  11  14
HETATM   14  C2  UNL     1      31.427   6.572  46.990  1.00  0.00     0.278 C 
BRANCH  14  15
HETATM   15  O2  UNL     1      32.666   6.318  47.606  1.00  0.00    -0.342 OA
BRANCH  15  16
HETATM   16  C3  UNL     1      33.476   5.337  47.065  1.00  0.00     0.069 A 
HETATM   17  C4  UNL     1      34.052   4.397  47.879  1.00  0.00     0.037 A 
HETATM   18  C5  UNL     1      34.867   3.408  47.347  1.00  0.00     0.003 A 
HETATM   19  C6  UNL     1      35.124   3.338  45.982  1.00  0.00     0.000 A 
HETATM   20  C7  UNL     1      34.545   4.289  45.133  1.00  0.00     0.003 A 
HETATM   21  C8  UNL     1      33.744   5.249  45.710  1.00  0.00     0.037 A 
ENDBRANCH  15  16
ENDBRANCH  14  15
ENDBRANCH  11  14
ENDBRANCH   1  10
BRANCH   7  22
HETATM   22  N4  UNL     1      25.081   2.804  50.536  1.00  0.00    -0.341 N 
HETATM   23  H11 UNL     1      24.198   2.535  49.995  1.00  0.00     0.167 HD
BRANCH  22  24
HETATM   24  C14 UNL     1      25.469   1.918  51.610  1.00  0.00     0.034 A 
HETATM   25  C15 UNL     1      24.497   1.117  52.212  1.00  0.00     0.029 A 
HETATM   26  C16 UNL     1      24.900   0.295  53.233  1.00  0.00     0.004 A 
HETATM   27  C17 UNL     1      26.189   0.197  53.712  1.00  0.00     0.019 A 
HETATM   28  C18 UNL     1      27.136   0.995  53.105  1.00  0.00     0.013 A 
HETATM   29 BR1  UNL     1      28.946   0.929  53.700  1.00  0.00    -0.051 Br
HETATM   30  C19 UNL     1      26.754   1.827  52.079  1.00  0.00     0.048 A 
ENDBRANCH  22  24
ENDBRANCH   7  22
TORSDOF 6
ENDMDL
MODEL 4
REMARK VINA RESULT:      -8.6      2.083      3.009
REMARK  6 active torsions:
REMARK  status: ('A' for Active; 'I' for Inactive)
REMARK    1  A    between atoms: C1_2  and  C2_3 
REMARK       I    between atoms: C1_2  and  N1_11 
REMARK    2  A    between atoms: C2_3  and  O2_4 
REMARK    3  A    between atoms: O2_4  and  C3_5 
REMARK    4  A    between atoms: N1_11  and  C9_12 
REMARK    5  A    between atoms: C13_18  and  N4_19 
REMARK    6  A    between atoms: N4_19  and  C14_20 
ROOT
HETATM    1  C9  UNL     1      25.572   4.022  49.846  1.00  0.00     0.033 C 
HETATM    2  C10 UNL     1      24.824   5.063  49.643  1.00  0.00     0.018 C 
HETATM    3  C11 UNL     1      24.870   6.102  50.422  1.00  0.00     0.132 C 
HETATM    4  N2  UNL     1      25.851   6.477  49.500  1.00  0.00    -0.253 NA
HETATM    5  C12 UNL     1      25.839   7.159  48.461  1.00  0.00     0.234 C 
HETATM    6  N3  UNL     1      27.175   7.141  48.005  1.00  0.00    -0.225 NA
HETATM    7  C13 UNL     1      27.980   6.139  48.123  1.00  0.00     0.126 C 
HETATM    8  C20 UNL     1      27.905   4.766  48.705  1.00  0.00     0.035 C 
HETATM    9  C21 UNL     1      26.700   4.627  49.194  1.00  0.00     0.076 C 
ENDROOT
BRANCH   1  10
HETATM   10  N1  UNL     1      25.038   2.890  50.510  1.00  0.00    -0.327 N 
HETATM   11  C1  UNL     1      25.951   2.229  51.353  1.00  0.00     0.246 C 
HETATM   12  O1  UNL     1      27.141   2.595  51.519  1.00  0.00    -0.271 OA
HETATM   13  H8  UNL     1      24.040   2.643  50.326  1.00  0.00     0.168 HD
BRANCH  11  14
HETATM   14  C2  UNL     1      25.300   1.039  52.014  1.00  0.00     0.278 C 
BRANCH  14  15
HETATM   15  O2  UNL     1      23.903   1.163  51.901  1.00  0.00    -0.342 OA
BRANCH  15  16
HETATM   16  C3  UNL     1      23.112   0.560  52.862  1.00  0.00     0.069 A 
HETATM   17  C4  UNL     1      23.631  -0.431  53.653  1.00  0.00     0.037 A 
HETATM   18  C5  UNL     1      22.846  -1.042  54.620  1.00  0.00     0.003 A 
HETATM   19  C6  UNL     1      21.520  -0.674  54.817  1.00  0.00     0.000 A 
HETATM   20  C7  UNL     1      20.970   0.336  54.018  1.00  0.00     0.003 A 
HETATM   21  C8  UNL     1      21.790   0.912  53.073  1.00  0.00     0.037 A 
ENDBRANCH  15  16
ENDBRANCH  14  15
ENDBRANCH  11  14
ENDBRANCH   1  10
BRANCH   7  22
HETATM   22  N4  UNL     1      29.219   6.538  47.533  1.00  0.00    -0.341 N 
HETATM   23  H11 UNL     1      29.074   7.134  46.656  1.00  0.00     0.167 HD
BRANCH  22  24
HETATM   24  C14 UNL     1      30.589   6.272  47.907  1.00  0.00     0.034 A 
HETATM   25  C15 UNL     1      31.306   7.254  48.595  1.00  0.00     0.029 A 
HETATM   26  C16 UNL     1      32.607   6.970  48.925  1.00  0.00     0.004 A 
HETATM   27  C17 UNL     1      33.262   5.793  48.633  1.00  0.00     0.019 A 
HETATM   28  C18 UNL     1      32.539   4.835  47.954  1.00  0.00     0.013 A 
HETATM   29 BR1  UNL     1      33.361   3.175  47.505  1.00  0.00    -0.051 Br
HETATM   30  C19 UNL     1      31.233   5.098  47.612  1.00  0.00     0.048 A 
ENDBRANCH  22  24
ENDBRANCH   7  22
TORSDOF 6
ENDMDL
MODEL 5
REMARK VINA RESULT:      -8.3      1.352      1.979
REMARK  6 active torsions:
REMARK  status: ('A' for Active; 'I' for Inactive)
REMARK    1  A    between atoms: C1_2  and  C2_3 
REMARK       I    between atoms: C1_2  and  N1_11 
REMARK    2  A    between atoms: C2_3  and  O2_4 
REMARK    3  A    between atoms: O2_4  and  C3_5 
REMARK    4  A    between atoms: N1_11  and  C9_12 
REMARK    5  A    between atoms: C13_18  and  N4_19 
REMARK    6  A    between atoms: N4_19  and  C14_20 
ROOT
HETATM    1  C9  UNL     1      26.747   5.585  49.198  1.00  0.00     0.033 C 
HETATM    2  C10 UNL     1      26.096   6.507  48.557  1.00  0.00     0.018 C 
HETATM    3  C11 UNL     1      26.125   7.752  48.928  1.00  0.00     0.132 C 
HETATM    4  N2  UNL     1      27.223   7.756  48.065  1.00  0.00    -0.253 NA
HETATM    5  C12 UNL     1      27.370   8.031  46.861  1.00  0.00     0.234 C 
HETATM    6  N3  UNL     1      28.744   7.824  46.610  1.00  0.00    -0.225 NA
HETATM    7  C13 UNL     1      29.463   6.907  47.166  1.00  0.00     0.126 C 
HETATM    8  C20 UNL     1      29.235   5.827  48.172  1.00  0.00     0.035 C 
HETATM    9  C21 UNL     1      27.977   5.897  48.524  1.00  0.00     0.076 C 
ENDROOT
BRANCH   1  10
HETATM   10  N1  UNL     1      26.071   4.770  50.139  1.00  0.00    -0.327 N 
HETATM   11  C1  UNL     1      26.327   3.393  50.003  1.00  0.00     0.246 C 
HETATM   12  O1  UNL     1      27.089   2.907  49.130  1.00  0.00    -0.271 OA
HETATM   13  H8  UNL     1      25.454   5.242  50.838  1.00  0.00     0.168 HD
BRANCH  11  14
HETATM   14  C2  UNL     1      25.567   2.605  51.040  1.00  0.00     0.278 C 
BRANCH  14  15
HETATM   15  O2  UNL     1      26.233   2.715  52.275  1.00  0.00    -0.342 OA
BRANCH  15  16
HETATM   16  C3  UNL     1      27.058   1.677  52.668  1.00  0.00     0.069 A 
HETATM   17  C4  UNL     1      28.241   1.946  53.305  1.00  0.00     0.037 A 
HETATM   18  C5  UNL     1      29.076   0.913  53.704  1.00  0.00     0.003 A 
HETATM   19  C6  UNL     1      28.744  -0.417  53.474  1.00  0.00     0.000 A 
HETATM   20  C7  UNL     1      27.540  -0.714  52.824  1.00  0.00     0.003 A 
HETATM   21  C8  UNL     1      26.746   0.347  52.449  1.00  0.00     0.037 A 
ENDBRANCH  15  16
ENDBRANCH  14  15
ENDBRANCH  11  14
ENDBRANCH   1  10
BRANCH   7  22
HETATM   22  N4  UNL     1      30.782   7.045  46.635  1.00  0.00    -0.341 N 
HETATM   23  H11 UNL     1      30.789   7.578  45.706  1.00  0.00     0.167 HD
BRANCH  22  24
HETATM   24  C14 UNL     1      32.065   6.593  47.123  1.00  0.00     0.034 A 
HETATM   25  C15 UNL     1      32.695   7.313  48.140  1.00  0.00     0.029 A 
HETATM   26  C16 UNL     1      33.915   6.859  48.572  1.00  0.00     0.004 A 
HETATM   27  C17 UNL     1      34.570   5.750  48.081  1.00  0.00     0.019 A 
HETATM   28  C18 UNL     1      33.933   5.052  47.076  1.00  0.00     0.013 A 
HETATM   29 BR1  UNL     1      34.761   3.503  46.333  1.00  0.00    -0.051 Br
HETATM   30  C19 UNL     1      32.708   5.488  46.627  1.00  0.00     0.048 A 
ENDBRANCH  22  24
ENDBRANCH   7  22
TORSDOF 6
ENDMDL
MODEL 6
REMARK VINA RESULT:      -8.2      2.213      3.267
REMARK  6 active torsions:
REMARK  status: ('A' for Active; 'I' for Inactive)
REMARK    1  A    between atoms: C1_2  and  C2_3 
REMARK       I    between atoms: C1_2  and  N1_11 
REMARK    2  A    between atoms: C2_3  and  O2_4 
REMARK    3  A    between atoms: O2_4  and  C3_5 
REMARK    4  A    between atoms: N1_11  and  C9_12 
REMARK    5  A    between atoms: C13_18  and  N4_19 
REMARK    6  A    between atoms: N4_19  and  C14_20 
ROOT
HETATM    1  C9  UNL     1      24.408   2.475  50.770  1.00  0.00     0.033 C 
HETATM    2  C10 UNL     1      23.262   2.774  50.238  1.00  0.00     0.018 C 
HETATM    3  C11 UNL     1      22.474   3.662  50.764  1.00  0.00     0.132 C 
HETATM    4  N2  UNL     1      23.216   4.498  49.926  1.00  0.00    -0.253 NA
HETATM    5  C12 UNL     1      23.052   4.923  48.769  1.00  0.00     0.234 C 
HETATM    6  N3  UNL     1      24.185   5.727  48.517  1.00  0.00    -0.225 NA
HETATM    7  C13 UNL     1      25.372   5.487  48.966  1.00  0.00     0.126 C 
HETATM    8  C20 UNL     1      26.003   4.441  49.824  1.00  0.00     0.035 C 
HETATM    9  C21 UNL     1      25.055   3.604  50.161  1.00  0.00     0.076 C 
ENDROOT
BRANCH   1  10
HETATM   10  N1  UNL     1      24.527   1.326  51.589  1.00  0.00    -0.327 N 
HETATM   11  C1  UNL     1      24.804   1.605  52.941  1.00  0.00     0.246 C 
HETATM   12  O1  UNL     1      24.936   2.765  53.403  1.00  0.00    -0.271 OA
HETATM   13  H8  UNL     1      24.403   0.392  51.139  1.00  0.00     0.168 HD
BRANCH  11  14
HETATM   14  C2  UNL     1      24.915   0.327  53.735  1.00  0.00     0.278 C 
BRANCH  14  15
HETATM   15  O2  UNL     1      25.527  -0.655  52.936  1.00  0.00    -0.342 OA
BRANCH  15  16
HETATM   16  C3  UNL     1      26.869  -0.923  53.140  1.00  0.00     0.069 A 
HETATM   17  C4  UNL     1      27.664  -0.001  53.770  1.00  0.00     0.037 A 
HETATM   18  C5  UNL     1      29.010  -0.259  53.979  1.00  0.00     0.003 A 
HETATM   19  C6  UNL     1      29.593  -1.451  53.562  1.00  0.00     0.000 A 
HETATM   20  C7  UNL     1      28.799  -2.406  52.916  1.00  0.00     0.003 A 
HETATM   21  C8  UNL     1      27.468  -2.102  52.733  1.00  0.00     0.037 A 
ENDBRANCH  15  16
ENDBRANCH  14  15
ENDBRANCH  11  14
ENDBRANCH   1  10
BRANCH   7  22
HETATM   22  N4  UNL     1      26.212   6.535  48.479  1.00  0.00    -0.341 N 
HETATM   23  H11 UNL     1      25.647   7.344  48.063  1.00  0.00     0.167 HD
BRANCH  22  24
HETATM   24  C14 UNL     1      27.650   6.676  48.447  1.00  0.00     0.034 A 
HETATM   25  C15 UNL     1      28.435   5.551  48.182  1.00  0.00     0.029 A 
HETATM   26  C16 UNL     1      29.796   5.721  48.168  1.00  0.00     0.004 A 
HETATM   27  C17 UNL     1      30.450   6.912  48.396  1.00  0.00     0.019 A 
HETATM   28  C18 UNL     1      29.659   8.012  48.655  1.00  0.00     0.013 A 
HETATM   29 BR1  UNL     1      30.474   9.704  48.982  1.00  0.00    -0.051 Br
HETATM   30  C19 UNL     1      28.292   7.866  48.674  1.00  0.00     0.048 A 
ENDBRANCH  22  24
ENDBRANCH   7  22
TORSDOF 6
ENDMDL
MODEL 7
REMARK VINA RESULT:      -8.1      3.688      8.135
REMARK  6 active torsions:
REMARK  status: ('A' for Active; 'I' for Inactive)
REMARK    1  A    between atoms: C1_2  and  C2_3 
REMARK       I    between atoms: C1_2  and  N1_11 
REMARK    2  A    between atoms: C2_3  and  O2_4 
REMARK    3  A    between atoms: O2_4  and  C3_5 
REMARK    4  A    between atoms: N1_11  and  C9_12 
REMARK    5  A    between atoms: C13_18  and  N4_19 
REMARK    6  A    between atoms: N4_19  and  C14_20 
ROOT
HETATM    1  C9  UNL     1      26.607   6.021  49.158  1.00  0.00     0.033 C 
HETATM    2  C10 UNL     1      25.573   6.804  49.145  1.00  0.00     0.018 C 
HETATM    3  C11 UNL     1      24.774   6.869  48.122  1.00  0.00     0.132 C 
HETATM    4  N2  UNL     1      24.141   5.844  48.829  1.00  0.00    -0.253 NA
HETATM    5  C12 UNL     1      23.209   5.814  49.652  1.00  0.00     0.234 C 
HETATM    6  N3  UNL     1      23.066   4.449  49.982  1.00  0.00    -0.225 NA
HETATM    7  C13 UNL     1      24.039   3.605  50.062  1.00  0.00     0.126 C 
HETATM    8  C20 UNL     1      25.519   3.651  49.865  1.00  0.00     0.035 C 
HETATM    9  C21 UNL     1      25.818   4.881  49.532  1.00  0.00     0.076 C 
ENDROOT
BRANCH   1  10
HETATM   10  N1  UNL     1      27.890   6.543  48.859  1.00  0.00    -0.327 N 
HETATM   11  C1  UNL     1      28.820   5.581  48.421  1.00  0.00     0.246 C 
HETATM   12  O1  UNL     1      28.555   4.359  48.297  1.00  0.00    -0.271 OA
HETATM   13  H8  UNL     1      28.039   7.569  48.984  1.00  0.00     0.168 HD
BRANCH  11  14
HETATM   14  C2  UNL     1      30.153   6.224  48.129  1.00  0.00     0.278 C 
BRANCH  14  15
HETATM   15  O2  UNL     1      31.162   5.501  48.791  1.00  0.00    -0.342 OA
BRANCH  15  16
HETATM   16  C3  UNL     1      32.159   4.920  48.028  1.00  0.00     0.069 A 
HETATM   17  C4  UNL     1      31.836   4.004  47.061  1.00  0.00     0.037 A 
HETATM   18  C5  UNL     1      32.828   3.416  46.290  1.00  0.00     0.003 A 
HETATM   19  C6  UNL     1      34.170   3.732  46.471  1.00  0.00     0.000 A 
HETATM   20  C7  UNL     1      34.521   4.665  47.454  1.00  0.00     0.003 A 
HETATM   21  C8  UNL     1      33.500   5.221  48.192  1.00  0.00     0.037 A 
ENDBRANCH  15  16
ENDBRANCH  14  15
ENDBRANCH  11  14
ENDBRANCH   1  10
BRANCH   7  22
HETATM   22  N4  UNL     1      23.461   2.348  50.420  1.00  0.00    -0.341 N 
HETATM   23  H11 UNL     1      22.747   2.011  49.697  1.00  0.00     0.167 HD
BRANCH  22  24
HETATM   24  C14 UNL     1      23.668   1.488  51.564  1.00  0.00     0.034 A 
HETATM   25  C15 UNL     1      24.972   1.144  51.925  1.00  0.00     0.029 A 
HETATM   26  C16 UNL     1      25.129   0.319  53.010  1.00  0.00     0.004 A 
HETATM   27  C17 UNL     1      24.102  -0.197  53.772  1.00  0.00     0.019 A 
HETATM   28  C18 UNL     1      22.821   0.155  53.400  1.00  0.00     0.013 A 
HETATM   29 BR1  UNL     1      21.336  -0.509  54.393  1.00  0.00    -0.051 Br
HETATM   30  C19 UNL     1      22.639   0.981  52.316  1.00  0.00     0.048 A 
ENDBRANCH  22  24
ENDBRANCH   7  22
TORSDOF 6
ENDMDL
MODEL 8
REMARK VINA RESULT:      -8.0      3.689      9.087
REMARK  6 active torsions:
REMARK  status: ('A' for Active; 'I' for Inactive)
REMARK    1  A    between atoms: C1_2  and  C2_3 
REMARK       I    between atoms: C1_2  and  N1_11 
REMARK    2  A    between atoms: C2_3  and  O2_4 
REMARK    3  A    between atoms: O2_4  and  C3_5 
REMARK    4  A    between atoms: N1_11  and  C9_12 
REMARK    5  A    between atoms: C13_18  and  N4_19 
REMARK    6  A    between atoms: N4_19  and  C14_20 
ROOT
HETATM    1  C9  UNL     1      26.635   6.386  49.108  1.00  0.00     0.033 C 
HETATM    2  C10 UNL     1      25.905   7.099  49.910  1.00  0.00     0.018 C 
HETATM    3  C11 UNL     1      24.717   7.505  49.576  1.00  0.00     0.132 C 
HETATM    4  N2  UNL     1      24.374   6.282  50.158  1.00  0.00    -0.253 NA
HETATM    5  C12 UNL     1      24.022   5.941  51.301  1.00  0.00     0.234 C 
HETATM    6  N3  UNL     1      23.831   4.545  51.216  1.00  0.00    -0.225 NA
HETATM    7  C13 UNL     1      24.535   3.749  50.482  1.00  0.00     0.126 C 
HETATM    8  C20 UNL     1      25.675   3.896  49.529  1.00  0.00     0.035 C 
HETATM    9  C21 UNL     1      25.969   5.169  49.484  1.00  0.00     0.076 C 
ENDROOT
BRANCH   1  10
HETATM   10  N1  UNL     1      27.642   7.009  48.330  1.00  0.00    -0.327 N 
HETATM   11  C1  UNL     1      28.803   6.231  48.155  1.00  0.00     0.246 C 
HETATM   12  O1  UNL     1      28.952   5.080  48.636  1.00  0.00    -0.271 OA
HETATM   13  H8  UNL     1      27.450   7.967  47.961  1.00  0.00     0.168 HD
BRANCH  11  14
HETATM   14  C2  UNL     1      29.817   6.972  47.320  1.00  0.00     0.278 C 
BRANCH  14  15
HETATM   15  O2  UNL     1      30.808   7.499  48.167  1.00  0.00    -0.342 OA
BRANCH  15  16
HETATM   16  C3  UNL     1      30.985   8.870  48.195  1.00  0.00     0.069 A 
HETATM   17  C4  UNL     1      31.787   9.477  47.265  1.00  0.00     0.037 A 
HETATM   18  C5  UNL     1      31.971  10.852  47.284  1.00  0.00     0.003 A 
HETATM   19  C6  UNL     1      31.353  11.652  48.238  1.00  0.00     0.000 A 
HETATM   20  C7  UNL     1      30.529  11.052  49.197  1.00  0.00     0.003 A 
HETATM   21  C8  UNL     1      30.379   9.685  49.136  1.00  0.00     0.037 A 
ENDBRANCH  15  16
ENDBRANCH  14  15
ENDBRANCH  11  14
ENDBRANCH   1  10
BRANCH   7  22
HETATM   22  N4  UNL     1      24.016   2.434  50.692  1.00  0.00    -0.341 N 
HETATM   23  H11 UNL     1      23.311   2.153  49.937  1.00  0.00     0.167 HD
BRANCH  22  24
HETATM   24  C14 UNL     1      24.271   1.456  51.725  1.00  0.00     0.034 A 
HETATM   25  C15 UNL     1      25.586   1.054  51.967  1.00  0.00     0.029 A 
HETATM   26  C16 UNL     1      25.789   0.117  52.949  1.00  0.00     0.004 A 
HETATM   27  C17 UNL     1      24.799  -0.458  53.716  1.00  0.00     0.019 A 
HETATM   28  C18 UNL     1      23.506  -0.048  53.463  1.00  0.00     0.013 A 
HETATM   29 BR1  UNL     1      22.068  -0.787  54.473  1.00  0.00    -0.051 Br
HETATM   30  C19 UNL     1      23.278   0.890  52.483  1.00  0.00     0.048 A 
ENDBRANCH  22  24
ENDBRANCH   7  22
TORSDOF 6
ENDMDL
MODEL 9
REMARK VINA RESULT:      -7.8      5.751      9.229
REMARK  6 active torsions:
REMARK  status: ('A' for Active; 'I' for Inactive)
REMARK    1  A    between atoms: C1_2  and  C2_3 
REMARK       I    between atoms: C1_2  and  N1_11 
REMARK    2  A    between atoms: C2_3  and  O2_4 
REMARK    3  A    between atoms: O2_4  and  C3_5 
REMARK    4  A    between atoms: N1_11  and  C9_12 
REMARK    5  A    between atoms: C13_18  and  N4_19 
REMARK    6  A    between atoms: N4_19  and  C14_20 
ROOT
HETATM    1  C9  UNL     1      24.058   2.766  50.525  1.00  0.00     0.033 C 
HETATM    2  C10 UNL     1      23.618   3.976  50.366  1.00  0.00     0.018 C 
HETATM    3  C11 UNL     1      23.513   4.518  49.189  1.00  0.00     0.132 C 
HETATM    4  N2  UNL     1      22.245   3.940  49.277  1.00  0.00    -0.253 NA
HETATM    5  C12 UNL     1      21.134   4.354  49.653  1.00  0.00     0.234 C 
HETATM    6  N3  UNL     1      20.265   3.254  49.489  1.00  0.00    -0.225 NA
HETATM    7  C13 UNL     1      20.600   2.019  49.667  1.00  0.00     0.126 C 
HETATM    8  C20 UNL     1      21.845   1.290  50.050  1.00  0.00     0.035 C 
HETATM    9  C21 UNL     1      22.774   2.194  50.229  1.00  0.00     0.076 C 
ENDROOT
BRANCH   1  10
HETATM   10  N1  UNL     1      25.411   2.549  50.886  1.00  0.00    -0.327 N 
HETATM   11  C1  UNL     1      25.627   2.417  52.271  1.00  0.00     0.246 C 
HETATM   12  O1  UNL     1      24.713   2.479  53.130  1.00  0.00    -0.271 OA
HETATM   13  H8  UNL     1      26.119   2.507  50.119  1.00  0.00     0.168 HD
BRANCH  11  14
HETATM   14  C2  UNL     1      27.090   2.192  52.561  1.00  0.00     0.278 C 
BRANCH  14  15
HETATM   15  O2  UNL     1      27.208   1.329  53.666  1.00  0.00    -0.342 OA
BRANCH  15  16
HETATM   16  C3  UNL     1      27.818   0.102  53.475  1.00  0.00     0.069 A 
HETATM   17  C4  UNL     1      27.110  -0.940  52.937  1.00  0.00     0.037 A 
HETATM   18  C5  UNL     1      27.712  -2.174  52.742  1.00  0.00     0.003 A 
HETATM   19  C6  UNL     1      29.043  -2.393  53.083  1.00  0.00     0.000 A 
HETATM   20  C7  UNL     1      29.784  -1.342  53.634  1.00  0.00     0.003 A 
HETATM   21  C8  UNL     1      29.140  -0.136  53.807  1.00  0.00     0.037 A 
ENDBRANCH  15  16
ENDBRANCH  14  15
ENDBRANCH  11  14
ENDBRANCH   1  10
BRANCH   7  22
HETATM   22  N4  UNL     1      19.434   1.238  49.400  1.00  0.00    -0.341 N 
HETATM   23  H11 UNL     1      19.367   0.952  48.370  1.00  0.00     0.167 HD
BRANCH  22  24
HETATM   24  C14 UNL     1      18.361   0.791  50.259  1.00  0.00     0.034 A 
HETATM   25  C15 UNL     1      17.083   1.323  50.079  1.00  0.00     0.029 A 
HETATM   26  C16 UNL     1      16.092   0.883  50.918  1.00  0.00     0.004 A 
HETATM   27  C17 UNL     1      16.257  -0.043  51.926  1.00  0.00     0.019 A 
HETATM   28  C18 UNL     1      17.526  -0.558  52.089  1.00  0.00     0.013 A 
HETATM   29 BR1  UNL     1      17.853  -1.845  53.457  1.00  0.00    -0.051 Br
HETATM   30  C19 UNL     1      18.536  -0.131  51.259  1.00  0.00     0.048 A 
ENDBRANCH  22  24
ENDBRANCH   7  22
TORSDOF 6
ENDMDL
