MODEL 1
REMARK VINA RESULT:     -10.5      0.000      0.000
REMARK  1 active torsions:
REMARK  status: ('A' for Active; 'I' for Inactive)
REMARK    1  A    between atoms: C8_10  and  O3_11 
ROOT
HETATM    1  O1  UNL     1      22.670  -1.728  55.719  1.00  0.00    -0.287 OA
HETATM    2  C1  UNL     1      22.539  -1.068  54.685  1.00  0.00     0.190 A 
HETATM    3  C2  UNL     1      21.240  -0.919  54.281  1.00  0.00     0.093 A 
HETATM    4  C3  UNL     1      21.061  -0.205  53.154  1.00  0.00     0.080 A 
HETATM    5  O2  UNL     1      22.051   0.339  52.449  1.00  0.00    -0.310 OA
HETATM    6  C4  UNL     1      23.311   0.246  52.765  1.00  0.00     0.095 A 
HETATM    7  C5  UNL     1      24.302   0.815  52.033  1.00  0.00     0.075 A 
HETATM    8  C6  UNL     1      25.633   0.644  52.488  1.00  0.00     0.074 A 
HETATM    9  C7  UNL     1      25.849  -0.074  53.623  1.00  0.00     0.074 A 
HETATM   10  C8  UNL     1      24.807  -0.626  54.322  1.00  0.00     0.085 A 
HETATM   11  C9  UNL     1      23.509  -0.482  53.914  1.00  0.00     0.081 A 
HETATM   12  O4  UNL     1      26.160   1.377  51.440  1.00  0.00    -0.349 OA
HETATM   13  C10 UNL     1      26.038   2.817  51.462  1.00  0.00     0.205 C 
HETATM   14  C11 UNL     1      26.564   3.337  50.162  1.00  0.00     0.296 C 
HETATM   15  N1  UNL     1      26.468   4.782  50.089  1.00  0.00     0.085 N 
HETATM   16  C12 UNL     1      25.128   5.264  50.093  1.00  0.00     0.269 C 
HETATM   17  C13 UNL     1      24.295   4.908  48.891  1.00  0.00     0.030 C 
HETATM   18  C14 UNL     1      22.928   5.555  49.102  1.00  0.00     0.002 C 
HETATM   19  C15 UNL     1      21.981   5.208  47.977  1.00  0.00     0.000 C 
HETATM   20  C16 UNL     1      21.682   3.745  47.907  1.00  0.00     0.000 C 
HETATM   21  C17 UNL     1      21.024   3.157  49.120  1.00  0.00     0.004 C 
HETATM   22  C18 UNL     1      19.669   3.693  49.333  1.00  0.00     0.028 C 
HETATM   23  C19 UNL     1      18.697   3.448  48.283  1.00  0.00    -0.015 C 
HETATM   24  C20 UNL     1      17.403   3.340  48.339  1.00  0.00    -0.030 C 
HETATM   25  C21 UNL     1      16.985   2.687  49.386  1.00  0.00     0.012 C 
HETATM   26  C22 UNL     1      17.870   2.128  50.384  1.00  0.00     0.001 C 
HETATM   27  C23 UNL     1      18.764   1.195  50.455  1.00  0.00     0.000 C 
HETATM   28  C24 UNL     1      19.761   0.325  50.960  1.00  0.00     0.003 C 
HETATM   29  C25 UNL     1      20.179   0.350  52.181  1.00  0.00     0.037 C 
HETATM   30  H9  UNL     1      27.086   5.265  50.757  1.00  0.00     0.315 HD
ENDROOT
BRANCH  10  31
HETATM   31  O3  UNL     1      25.158  -1.327  55.450  1.00  0.00    -0.360 OA
HETATM   32  H4  UNL     1      24.645  -2.142  55.759  1.00  0.00     0.217 HD
ENDBRANCH  10  31
TORSDOF 1
ENDMDL
MODEL 2
REMARK VINA RESULT:      -9.9      3.032      8.491
REMARK  1 active torsions:
REMARK  status: ('A' for Active; 'I' for Inactive)
REMARK    1  A    between atoms: C8_10  and  O3_11 
ROOT
HETATM    1  O1  UNL     1      23.718   6.635  47.537  1.00  0.00    -0.287 OA
HETATM    2  C1  UNL     1      23.780   5.624  48.244  1.00  0.00     0.190 A 
HETATM    3  C2  UNL     1      24.973   5.475  48.896  1.00  0.00     0.093 A 
HETATM    4  C3  UNL     1      25.076   4.381  49.674  1.00  0.00     0.080 A 
HETATM    5  O2  UNL     1      24.107   3.481  49.830  1.00  0.00    -0.310 OA
HETATM    6  C4  UNL     1      22.944   3.550  49.248  1.00  0.00     0.095 A 
HETATM    7  C5  UNL     1      21.970   2.622  49.426  1.00  0.00     0.075 A 
HETATM    8  C6  UNL     1      20.746   2.817  48.738  1.00  0.00     0.074 A 
HETATM    9  C7  UNL     1      20.610   3.911  47.941  1.00  0.00     0.074 A 
HETATM   10  C8  UNL     1      21.630   4.816  47.799  1.00  0.00     0.085 A 
HETATM   11  C9  UNL     1      22.826   4.662  48.448  1.00  0.00     0.081 A 
HETATM   12  O4  UNL     1      20.189   1.664  49.261  1.00  0.00    -0.349 OA
HETATM   13  C10 UNL     1      19.742   1.663  50.635  1.00  0.00     0.205 C 
HETATM   14  C11 UNL     1      19.315   0.270  50.972  1.00  0.00     0.296 C 
HETATM   15  N1  UNL     1      18.860   0.170  52.346  1.00  0.00     0.085 N 
HETATM   16  C12 UNL     1      19.885   0.417  53.303  1.00  0.00     0.269 C 
HETATM   17  C13 UNL     1      21.003  -0.589  53.348  1.00  0.00     0.030 C 
HETATM   18  C14 UNL     1      21.949  -0.139  54.458  1.00  0.00     0.002 C 
HETATM   19  C15 UNL     1      23.153  -1.048  54.551  1.00  0.00     0.000 C 
HETATM   20  C16 UNL     1      23.999  -1.011  53.319  1.00  0.00     0.000 C 
HETATM   21  C17 UNL     1      24.587   0.325  52.973  1.00  0.00     0.004 C 
HETATM   22  C18 UNL     1      25.565   0.779  53.977  1.00  0.00     0.028 C 
HETATM   23  C19 UNL     1      26.737  -0.056  54.170  1.00  0.00    -0.015 C 
HETATM   24  C20 UNL     1      27.937   0.253  54.564  1.00  0.00    -0.030 C 
HETATM   25  C21 UNL     1      28.366   1.382  54.074  1.00  0.00     0.012 C 
HETATM   26  C22 UNL     1      27.591   2.207  53.174  1.00  0.00     0.001 C 
HETATM   27  C23 UNL     1      27.127   2.134  51.968  1.00  0.00     0.000 C 
HETATM   28  C24 UNL     1      26.465   2.464  50.760  1.00  0.00     0.003 C 
HETATM   29  C25 UNL     1      25.845   3.580  50.568  1.00  0.00     0.037 C 
HETATM   30  H9  UNL     1      17.989   0.690  52.524  1.00  0.00     0.315 HD
ENDROOT
BRANCH  10  31
HETATM   31  O3  UNL     1      21.368   5.877  46.967  1.00  0.00    -0.360 OA
HETATM   32  H4  UNL     1      20.989   6.749  47.309  1.00  0.00     0.217 HD
ENDBRANCH  10  31
TORSDOF 1
ENDMDL
MODEL 3
REMARK VINA RESULT:      -9.8      3.417      8.504
REMARK  1 active torsions:
REMARK  status: ('A' for Active; 'I' for Inactive)
REMARK    1  A    between atoms: C8_10  and  O3_11 
ROOT
HETATM    1  O1  UNL     1      26.278   8.031  47.582  1.00  0.00    -0.287 OA
HETATM    2  C1  UNL     1      25.788   7.020  48.093  1.00  0.00     0.190 A 
HETATM    3  C2  UNL     1      26.694   6.236  48.753  1.00  0.00     0.093 A 
HETATM    4  C3  UNL     1      26.194   5.123  49.321  1.00  0.00     0.080 A 
HETATM    5  O2  UNL     1      24.910   4.771  49.271  1.00  0.00    -0.310 OA
HETATM    6  C4  UNL     1      23.986   5.460  48.667  1.00  0.00     0.095 A 
HETATM    7  C5  UNL     1      22.683   5.082  48.634  1.00  0.00     0.075 A 
HETATM    8  C6  UNL     1      21.774   5.925  47.946  1.00  0.00     0.074 A 
HETATM    9  C7  UNL     1      22.248   7.057  47.358  1.00  0.00     0.074 A 
HETATM   10  C8  UNL     1      23.576   7.387  47.424  1.00  0.00     0.085 A 
HETATM   11  C9  UNL     1      24.483   6.599  48.080  1.00  0.00     0.081 A 
HETATM   12  O4  UNL     1      20.695   5.106  48.226  1.00  0.00    -0.349 OA
HETATM   13  C10 UNL     1      20.135   5.118  49.558  1.00  0.00     0.205 C 
HETATM   14  C11 UNL     1      19.084   4.055  49.618  1.00  0.00     0.296 C 
HETATM   15  N1  UNL     1      18.472   3.984  50.931  1.00  0.00     0.085 N 
HETATM   16  C12 UNL     1      19.375   3.581  51.957  1.00  0.00     0.269 C 
HETATM   17  C13 UNL     1      19.898   2.174  51.861  1.00  0.00     0.030 C 
HETATM   18  C14 UNL     1      20.805   1.963  53.070  1.00  0.00     0.002 C 
HETATM   19  C15 UNL     1      21.442   0.592  53.042  1.00  0.00     0.000 C 
HETATM   20  C16 UNL     1      22.353   0.405  51.872  1.00  0.00     0.000 C 
HETATM   21  C17 UNL     1      23.521   1.343  51.800  1.00  0.00     0.004 C 
HETATM   22  C18 UNL     1      24.470   1.136  52.907  1.00  0.00     0.028 C 
HETATM   23  C19 UNL     1      25.102  -0.169  52.990  1.00  0.00    -0.015 C 
HETATM   24  C20 UNL     1      26.254  -0.519  53.480  1.00  0.00    -0.030 C 
HETATM   25  C21 UNL     1      27.205   0.334  53.222  1.00  0.00     0.012 C 
HETATM   26  C22 UNL     1      27.004   1.545  52.459  1.00  0.00     0.001 C 
HETATM   27  C23 UNL     1      26.706   1.873  51.242  1.00  0.00     0.000 C 
HETATM   28  C24 UNL     1      26.417   2.645  50.091  1.00  0.00     0.003 C 
HETATM   29  C25 UNL     1      26.401   3.936  50.083  1.00  0.00     0.037 C 
HETATM   30  H9  UNL     1      17.920   4.820  51.168  1.00  0.00     0.315 HD
ENDROOT
BRANCH  10  31
HETATM   31  O3  UNL     1      23.927   8.554  46.791  1.00  0.00    -0.360 OA
HETATM   32  H4  UNL     1      23.983   9.438  47.280  1.00  0.00     0.217 HD
ENDBRANCH  10  31
TORSDOF 1
ENDMDL
MODEL 4
REMARK VINA RESULT:      -9.6      2.412      5.962
REMARK  1 active torsions:
REMARK  status: ('A' for Active; 'I' for Inactive)
REMARK    1  A    between atoms: C8_10  and  O3_11 
ROOT
HETATM    1  O1  UNL     1      21.137  -2.214  54.643  1.00  0.00    -0.287 OA
HETATM    2  C1  UNL     1      21.279  -1.233  53.907  1.00  0.00     0.190 A 
HETATM    3  C2  UNL     1      22.576  -0.812  53.787  1.00  0.00     0.093 A 
HETATM    4  C3  UNL     1      22.766   0.258  52.993  1.00  0.00     0.080 A 
HETATM    5  O2  UNL     1      21.790   0.893  52.346  1.00  0.00    -0.310 OA
HETATM    6  C4  UNL     1      20.534   0.556  52.407  1.00  0.00     0.095 A 
HETATM    7  C5  UNL     1      19.557   1.217  51.735  1.00  0.00     0.075 A 
HETATM    8  C6  UNL     1      18.228   0.745  51.880  1.00  0.00     0.074 A 
HETATM    9  C7  UNL     1      18.000  -0.333  52.678  1.00  0.00     0.074 A 
HETATM   10  C8  UNL     1      19.028  -0.960  53.333  1.00  0.00     0.085 A 
HETATM   11  C9  UNL     1      20.324  -0.535  53.216  1.00  0.00     0.081 A 
HETATM   12  O4  UNL     1      17.717   1.718  51.040  1.00  0.00    -0.349 OA
HETATM   13  C10 UNL     1      17.909   1.582  49.614  1.00  0.00     0.205 C 
HETATM   14  C11 UNL     1      17.383   2.824  48.966  1.00  0.00     0.296 C 
HETATM   15  N1  UNL     1      17.546   2.782  47.525  1.00  0.00     0.085 N 
HETATM   16  C12 UNL     1      18.908   2.771  47.108  1.00  0.00     0.269 C 
HETATM   17  C13 UNL     1      19.699   4.018  47.403  1.00  0.00     0.030 C 
HETATM   18  C14 UNL     1      21.099   3.788  46.840  1.00  0.00     0.002 C 
HETATM   19  C15 UNL     1      22.006   4.959  47.138  1.00  0.00     0.000 C 
HETATM   20  C16 UNL     1      22.233   5.154  48.603  1.00  0.00     0.000 C 
HETATM   21  C17 UNL     1      22.886   4.008  49.318  1.00  0.00     0.004 C 
HETATM   22  C18 UNL     1      24.269   3.784  48.864  1.00  0.00     0.028 C 
HETATM   23  C19 UNL     1      25.207   4.874  49.068  1.00  0.00    -0.015 C 
HETATM   24  C20 UNL     1      26.495   4.857  49.240  1.00  0.00    -0.030 C 
HETATM   25  C21 UNL     1      26.902   3.876  49.995  1.00  0.00     0.012 C 
HETATM   26  C22 UNL     1      26.011   2.906  50.592  1.00  0.00     0.001 C 
HETATM   27  C23 UNL     1      25.074   2.889  51.485  1.00  0.00     0.000 C 
HETATM   28  C24 UNL     1      24.047   2.432  52.346  1.00  0.00     0.003 C 
HETATM   29  C25 UNL     1      23.655   1.204  52.401  1.00  0.00     0.037 C 
HETATM   30  H9  UNL     1      16.966   2.063  47.070  1.00  0.00     0.315 HD
ENDROOT
BRANCH  10  31
HETATM   31  O3  UNL     1      18.667  -2.036  54.106  1.00  0.00    -0.360 OA
HETATM   32  H4  UNL     1      17.955  -1.972  54.821  1.00  0.00     0.217 HD
ENDBRANCH  10  31
TORSDOF 1
ENDMDL
MODEL 5
REMARK VINA RESULT:      -9.5      2.231      5.506
REMARK  1 active torsions:
REMARK  status: ('A' for Active; 'I' for Inactive)
REMARK    1  A    between atoms: C8_10  and  O3_11 
ROOT
HETATM    1  O1  UNL     1      25.313  -1.285  54.979  1.00  0.00    -0.287 OA
HETATM    2  C1  UNL     1      24.673  -0.472  54.306  1.00  0.00     0.190 A 
HETATM    3  C2  UNL     1      25.453   0.441  53.649  1.00  0.00     0.093 A 
HETATM    4  C3  UNL     1      24.787   1.345  52.907  1.00  0.00     0.080 A 
HETATM    5  O2  UNL     1      23.460   1.384  52.788  1.00  0.00    -0.310 OA
HETATM    6  C4  UNL     1      22.649   0.553  53.377  1.00  0.00     0.095 A 
HETATM    7  C5  UNL     1      21.300   0.610  53.237  1.00  0.00     0.075 A 
HETATM    8  C6  UNL     1      20.529  -0.357  53.928  1.00  0.00     0.074 A 
HETATM    9  C7  UNL     1      21.170  -1.284  54.690  1.00  0.00     0.074 A 
HETATM   10  C8  UNL     1      22.537  -1.292  54.794  1.00  0.00     0.085 A 
HETATM   11  C9  UNL     1      23.316  -0.375  54.141  1.00  0.00     0.081 A 
HETATM   12  O4  UNL     1      19.335   0.151  53.448  1.00  0.00    -0.349 OA
HETATM   13  C10 UNL     1      18.961  -0.117  52.078  1.00  0.00     0.205 C 
HETATM   14  C11 UNL     1      17.712   0.654  51.790  1.00  0.00     0.296 C 
HETATM   15  N1  UNL     1      17.266   0.455  50.424  1.00  0.00     0.085 N 
HETATM   16  C12 UNL     1      18.173   0.964  49.451  1.00  0.00     0.269 C 
HETATM   17  C13 UNL     1      18.348   2.459  49.430  1.00  0.00     0.030 C 
HETATM   18  C14 UNL     1      19.325   2.767  48.299  1.00  0.00     0.002 C 
HETATM   19  C15 UNL     1      19.627   4.246  48.226  1.00  0.00     0.000 C 
HETATM   20  C16 UNL     1      20.320   4.753  49.449  1.00  0.00     0.000 C 
HETATM   21  C17 UNL     1      21.653   4.132  49.746  1.00  0.00     0.004 C 
HETATM   22  C18 UNL     1      22.658   4.456  48.721  1.00  0.00     0.028 C 
HETATM   23  C19 UNL     1      22.984   5.860  48.545  1.00  0.00    -0.015 C 
HETATM   24  C20 UNL     1      24.077   6.428  48.132  1.00  0.00    -0.030 C 
HETATM   25  C21 UNL     1      25.158   5.854  48.581  1.00  0.00     0.012 C 
HETATM   26  C22 UNL     1      25.145   4.706  49.460  1.00  0.00     0.001 C 
HETATM   27  C23 UNL     1      24.782   4.431  50.672  1.00  0.00     0.000 C 
HETATM   28  C24 UNL     1      24.536   3.722  51.873  1.00  0.00     0.003 C 
HETATM   29  C25 UNL     1      24.811   2.471  52.033  1.00  0.00     0.037 C 
HETATM   30  H9  UNL     1      16.951  -0.507  50.235  1.00  0.00     0.315 HD
ENDROOT
BRANCH  10  31
HETATM   31  O3  UNL     1      23.063  -2.278  55.593  1.00  0.00    -0.360 OA
HETATM   32  H4  UNL     1      22.694  -3.219  55.602  1.00  0.00     0.217 HD
ENDBRANCH  10  31
TORSDOF 1
ENDMDL
MODEL 6
REMARK VINA RESULT:      -9.4      2.912      6.746
REMARK  1 active torsions:
REMARK  status: ('A' for Active; 'I' for Inactive)
REMARK    1  A    between atoms: C8_10  and  O3_11 
ROOT
HETATM    1  O1  UNL     1      16.118  -2.389  52.826  1.00  0.00    -0.287 OA
HETATM    2  C1  UNL     1      17.097  -1.642  52.730  1.00  0.00     0.190 A 
HETATM    3  C2  UNL     1      18.181  -2.051  53.457  1.00  0.00     0.093 A 
HETATM    4  C3  UNL     1      19.266  -1.258  53.376  1.00  0.00     0.080 A 
HETATM    5  O2  UNL     1      19.325  -0.144  52.649  1.00  0.00    -0.310 OA
HETATM    6  C4  UNL     1      18.341   0.312  51.929  1.00  0.00     0.095 A 
HETATM    7  C5  UNL     1      18.427   1.448  51.191  1.00  0.00     0.075 A 
HETATM    8  C6  UNL     1      17.285   1.834  50.446  1.00  0.00     0.074 A 
HETATM    9  C7  UNL     1      16.171   1.055  50.507  1.00  0.00     0.074 A 
HETATM   10  C8  UNL     1      16.141  -0.082  51.271  1.00  0.00     0.085 A 
HETATM   11  C9  UNL     1      17.225  -0.487  52.003  1.00  0.00     0.081 A 
HETATM   12  O4  UNL     1      17.909   2.959  49.939  1.00  0.00    -0.349 OA
HETATM   13  C10 UNL     1      18.889   2.802  48.889  1.00  0.00     0.205 C 
HETATM   14  C11 UNL     1      19.494   4.145  48.630  1.00  0.00     0.296 C 
HETATM   15  N1  UNL     1      20.506   4.082  47.592  1.00  0.00     0.085 N 
HETATM   16  C12 UNL     1      21.640   3.298  47.952  1.00  0.00     0.269 C 
HETATM   17  C13 UNL     1      22.484   3.835  49.076  1.00  0.00     0.030 C 
HETATM   18  C14 UNL     1      23.643   2.857  49.255  1.00  0.00     0.002 C 
HETATM   19  C15 UNL     1      24.528   3.266  50.410  1.00  0.00     0.000 C 
HETATM   20  C16 UNL     1      23.815   3.224  51.723  1.00  0.00     0.000 C 
HETATM   21  C17 UNL     1      23.289   1.882  52.135  1.00  0.00     0.004 C 
HETATM   22  C18 UNL     1      24.369   0.915  52.392  1.00  0.00     0.028 C 
HETATM   23  C19 UNL     1      25.299   1.242  53.457  1.00  0.00    -0.015 C 
HETATM   24  C20 UNL     1      26.005   0.470  54.228  1.00  0.00    -0.030 C 
HETATM   25  C21 UNL     1      25.366  -0.598  54.614  1.00  0.00     0.012 C 
HETATM   26  C22 UNL     1      24.002  -0.892  54.234  1.00  0.00     0.001 C 
HETATM   27  C23 UNL     1      22.823  -0.400  54.440  1.00  0.00     0.000 C 
HETATM   28  C24 UNL     1      21.420  -0.211  54.401  1.00  0.00     0.003 C 
HETATM   29  C25 UNL     1      20.614  -0.982  53.751  1.00  0.00     0.037 C 
HETATM   30  H9  UNL     1      20.123   3.857  46.663  1.00  0.00     0.315 HD
ENDROOT
BRANCH  10  31
HETATM   31  O3  UNL     1      14.959  -0.780  51.249  1.00  0.00    -0.360 OA
HETATM   32  H4  UNL     1      14.266  -0.645  50.524  1.00  0.00     0.217 HD
ENDBRANCH  10  31
TORSDOF 1
ENDMDL
MODEL 7
REMARK VINA RESULT:      -9.4      2.706      6.790
REMARK  1 active torsions:
REMARK  status: ('A' for Active; 'I' for Inactive)
REMARK    1  A    between atoms: C8_10  and  O3_11 
ROOT
HETATM    1  O1  UNL     1      17.472   4.864  48.366  1.00  0.00    -0.287 OA
HETATM    2  C1  UNL     1      18.429   4.490  49.050  1.00  0.00     0.190 A 
HETATM    3  C2  UNL     1      18.147   3.427  49.865  1.00  0.00     0.093 A 
HETATM    4  C3  UNL     1      19.168   2.994  50.627  1.00  0.00     0.080 A 
HETATM    5  O2  UNL     1      20.387   3.531  50.620  1.00  0.00    -0.310 OA
HETATM    6  C4  UNL     1      20.736   4.540  49.875  1.00  0.00     0.095 A 
HETATM    7  C5  UNL     1      21.987   5.068  49.882  1.00  0.00     0.075 A 
HETATM    8  C6  UNL     1      22.240   6.163  49.019  1.00  0.00     0.074 A 
HETATM    9  C7  UNL     1      21.229   6.627  48.236  1.00  0.00     0.074 A 
HETATM   10  C8  UNL     1      19.984   6.054  48.272  1.00  0.00     0.085 A 
HETATM   11  C9  UNL     1      19.702   4.994  49.092  1.00  0.00     0.081 A 
HETATM   12  O4  UNL     1      23.560   6.264  49.420  1.00  0.00    -0.349 OA
HETATM   13  C10 UNL     1      24.516   5.296  48.934  1.00  0.00     0.205 C 
HETATM   14  C11 UNL     1      25.817   5.556  49.624  1.00  0.00     0.296 C 
HETATM   15  N1  UNL     1      26.840   4.617  49.205  1.00  0.00     0.085 N 
HETATM   16  C12 UNL     1      26.560   3.270  49.574  1.00  0.00     0.269 C 
HETATM   17  C13 UNL     1      26.558   2.978  51.051  1.00  0.00     0.030 C 
HETATM   18  C14 UNL     1      26.273   1.485  51.198  1.00  0.00     0.002 C 
HETATM   19  C15 UNL     1      26.184   1.088  52.654  1.00  0.00     0.000 C 
HETATM   20  C16 UNL     1      25.041   1.745  53.360  1.00  0.00     0.000 C 
HETATM   21  C17 UNL     1      23.677   1.432  52.820  1.00  0.00     0.004 C 
HETATM   22  C18 UNL     1      23.319   0.015  53.001  1.00  0.00     0.028 C 
HETATM   23  C19 UNL     1      23.250  -0.472  54.367  1.00  0.00    -0.015 C 
HETATM   24  C20 UNL     1      22.545  -1.433  54.885  1.00  0.00    -0.030 C 
HETATM   25  C21 UNL     1      21.333  -1.498  54.411  1.00  0.00     0.012 C 
HETATM   26  C22 UNL     1      20.817  -0.586  53.415  1.00  0.00     0.001 C 
HETATM   27  C23 UNL     1      20.530   0.673  53.326  1.00  0.00     0.000 C 
HETATM   28  C24 UNL     1      20.104   1.921  52.809  1.00  0.00     0.003 C 
HETATM   29  C25 UNL     1      19.670   2.084  51.604  1.00  0.00     0.037 C 
HETATM   30  H9  UNL     1      27.115   4.729  48.219  1.00  0.00     0.315 HD
ENDROOT
BRANCH  10  31
HETATM   31  O3  UNL     1      19.051   6.614  47.435  1.00  0.00    -0.360 OA
HETATM   32  H4  UNL     1      18.274   7.161  47.781  1.00  0.00     0.217 HD
ENDBRANCH  10  31
TORSDOF 1
ENDMDL
MODEL 8
REMARK VINA RESULT:      -9.3      2.208      5.409
REMARK  1 active torsions:
REMARK  status: ('A' for Active; 'I' for Inactive)
REMARK    1  A    between atoms: C8_10  and  O3_11 
ROOT
HETATM    1  O1  UNL     1      27.732   0.241  52.707  1.00  0.00    -0.287 OA
HETATM    2  C1  UNL     1      26.667   0.805  52.442  1.00  0.00     0.190 A 
HETATM    3  C2  UNL     1      26.792   1.842  51.558  1.00  0.00     0.093 A 
HETATM    4  C3  UNL     1      25.649   2.481  51.247  1.00  0.00     0.080 A 
HETATM    5  O2  UNL     1      24.454   2.158  51.740  1.00  0.00    -0.310 OA
HETATM    6  C4  UNL     1      24.249   1.186  52.581  1.00  0.00     0.095 A 
HETATM    7  C5  UNL     1      23.021   0.873  53.066  1.00  0.00     0.075 A 
HETATM    8  C6  UNL     1      22.932  -0.213  53.973  1.00  0.00     0.074 A 
HETATM    9  C7  UNL     1      24.069  -0.879  54.310  1.00  0.00     0.074 A 
HETATM   10  C8  UNL     1      25.284  -0.517  53.788  1.00  0.00     0.085 A 
HETATM   11  C9  UNL     1      25.409   0.525  52.909  1.00  0.00     0.081 A 
HETATM   12  O4  UNL     1      21.562  -0.076  54.110  1.00  0.00    -0.349 OA
HETATM   13  C10 UNL     1      20.703  -0.531  53.041  1.00  0.00     0.205 C 
HETATM   14  C11 UNL     1      19.301  -0.142  53.390  1.00  0.00     0.296 C 
HETATM   15  N1  UNL     1      18.363  -0.550  52.361  1.00  0.00     0.085 N 
HETATM   16  C12 UNL     1      18.565   0.111  51.115  1.00  0.00     0.269 C 
HETATM   17  C13 UNL     1      18.302   1.593  51.104  1.00  0.00     0.030 C 
HETATM   18  C14 UNL     1      18.547   2.068  49.675  1.00  0.00     0.002 C 
HETATM   19  C15 UNL     1      18.374   3.565  49.559  1.00  0.00     0.000 C 
HETATM   20  C16 UNL     1      19.376   4.323  50.368  1.00  0.00     0.000 C 
HETATM   21  C17 UNL     1      20.813   4.102  49.998  1.00  0.00     0.004 C 
HETATM   22  C18 UNL     1      21.125   4.607  48.651  1.00  0.00     0.028 C 
HETATM   23  C19 UNL     1      20.946   6.031  48.429  1.00  0.00    -0.015 C 
HETATM   24  C20 UNL     1      21.542   6.837  47.603  1.00  0.00    -0.030 C 
HETATM   25  C21 UNL     1      22.819   6.605  47.485  1.00  0.00     0.012 C 
HETATM   26  C22 UNL     1      23.510   5.560  48.207  1.00  0.00     0.001 C 
HETATM   27  C23 UNL     1      23.815   5.287  49.435  1.00  0.00     0.000 C 
HETATM   28  C24 UNL     1      24.333   4.626  50.576  1.00  0.00     0.003 C 
HETATM   29  C25 UNL     1      24.977   3.508  50.523  1.00  0.00     0.037 C 
HETATM   30  H9  UNL     1      18.269  -1.572  52.279  1.00  0.00     0.315 HD
ENDROOT
BRANCH  10  31
HETATM   31  O3  UNL     1      26.354  -1.268  54.207  1.00  0.00    -0.360 OA
HETATM   32  H4  UNL     1      26.803  -1.949  53.610  1.00  0.00     0.217 HD
ENDBRANCH  10  31
TORSDOF 1
ENDMDL
MODEL 9
REMARK VINA RESULT:      -9.0      7.597     11.519
REMARK  1 active torsions:
REMARK  status: ('A' for Active; 'I' for Inactive)
REMARK    1  A    between atoms: C8_10  and  O3_11 
ROOT
HETATM    1  O1  UNL     1      35.169   6.220  48.713  1.00  0.00    -0.287 OA
HETATM    2  C1  UNL     1      34.011   6.566  48.465  1.00  0.00     0.190 A 
HETATM    3  C2  UNL     1      33.069   5.629  48.791  1.00  0.00     0.093 A 
HETATM    4  C3  UNL     1      31.794   5.973  48.532  1.00  0.00     0.080 A 
HETATM    5  O2  UNL     1      31.427   7.137  47.998  1.00  0.00    -0.310 OA
HETATM    6  C4  UNL     1      32.259   8.081  47.662  1.00  0.00     0.095 A 
HETATM    7  C5  UNL     1      31.861   9.261  47.123  1.00  0.00     0.075 A 
HETATM    8  C6  UNL     1      32.867  10.208  46.805  1.00  0.00     0.074 A 
HETATM    9  C7  UNL     1      34.166   9.891  47.053  1.00  0.00     0.074 A 
HETATM   10  C8  UNL     1      34.509   8.681  47.599  1.00  0.00     0.085 A 
HETATM   11  C9  UNL     1      33.566   7.742  47.919  1.00  0.00     0.081 A 
HETATM   12  O4  UNL     1      31.948  11.130  46.335  1.00  0.00    -0.349 OA
HETATM   13  C10 UNL     1      31.152  11.872  47.286  1.00  0.00     0.205 C 
HETATM   14  C11 UNL     1      30.163  12.684  46.512  1.00  0.00     0.296 C 
HETATM   15  N1  UNL     1      29.306  13.458  47.391  1.00  0.00     0.085 N 
HETATM   16  C12 UNL     1      28.467  12.656  48.217  1.00  0.00     0.269 C 
HETATM   17  C13 UNL     1      27.414  11.851  47.504  1.00  0.00     0.030 C 
HETATM   18  C14 UNL     1      26.628  11.111  48.583  1.00  0.00     0.002 C 
HETATM   19  C15 UNL     1      25.576  10.213  47.973  1.00  0.00     0.000 C 
HETATM   20  C16 UNL     1      26.165   9.120  47.141  1.00  0.00     0.000 C 
HETATM   21  C17 UNL     1      27.069   8.167  47.865  1.00  0.00     0.004 C 
HETATM   22  C18 UNL     1      26.348   7.372  48.873  1.00  0.00     0.028 C 
HETATM   23  C19 UNL     1      25.286   6.509  48.387  1.00  0.00    -0.015 C 
HETATM   24  C20 UNL     1      24.816   5.397  48.867  1.00  0.00    -0.030 C 
HETATM   25  C21 UNL     1      25.739   4.610  49.344  1.00  0.00     0.012 C 
HETATM   26  C22 UNL     1      27.148   4.934  49.332  1.00  0.00     0.001 C 
HETATM   27  C23 UNL     1      28.083   5.107  48.455  1.00  0.00     0.000 C 
HETATM   28  C24 UNL     1      29.347   5.371  47.872  1.00  0.00     0.003 C 
HETATM   29  C25 UNL     1      30.406   5.647  48.557  1.00  0.00     0.037 C 
HETATM   30  H9  UNL     1      29.809  14.197  47.902  1.00  0.00     0.315 HD
ENDROOT
BRANCH  10  31
HETATM   31  O3  UNL     1      35.853   8.482  47.799  1.00  0.00    -0.360 OA
HETATM   32  H4  UNL     1      36.217   7.634  48.212  1.00  0.00     0.217 HD
ENDBRANCH  10  31
TORSDOF 1
ENDMDL
