MODEL 1
REMARK VINA RESULT:      -8.7      0.000      0.000
REMARK  3 active torsions:
REMARK  status: ('A' for Active; 'I' for Inactive)
REMARK    1  A    between atoms: C4_7  and  C5_8 
REMARK    2  A    between atoms: N4_15  and  C12_16 
REMARK    3  A    between atoms: C12_16  and  C13_17 
ROOT
HETATM    1  C1  UNL     1      23.412   1.204  51.872  1.00  0.00     0.206 C 
HETATM    2  N1  UNL     1      23.014   2.168  52.624  1.00  0.00    -0.238 NA
HETATM    3  C2  UNL     1      21.654   2.586  52.409  1.00  0.00     0.229 C 
HETATM    4  N2  UNL     1      21.855   3.823  52.233  1.00  0.00    -0.264 NA
HETATM    5  C3  UNL     1      23.058   4.574  52.248  1.00  0.00     0.267 C 
HETATM    6  N3  UNL     1      24.208   3.797  52.360  1.00  0.00    -0.395 N 
HETATM    7  C4  UNL     1      24.744   3.175  51.211  1.00  0.00     0.129 C 
HETATM    8  C11 UNL     1      25.653   2.050  51.732  1.00  0.00     0.153 C 
HETATM    9  N4  UNL     1      24.772   1.067  52.340  1.00  0.00    -0.369 N 
HETATM   10  H5  UNL     1      24.868   4.008  53.118  1.00  0.00     0.155 HD
ENDROOT
BRANCH   9  11
HETATM   11  C12 UNL     1      24.913  -0.037  53.218  1.00  0.00     0.162 C 
BRANCH  11  12
HETATM   12  C13 UNL     1      26.371  -0.219  53.507  1.00  0.00    -0.040 A 
HETATM   13  C14 UNL     1      27.139  -1.097  52.752  1.00  0.00     0.009 A 
HETATM   14  C15 UNL     1      28.490  -1.231  53.084  1.00  0.00     0.001 A 
HETATM   15  C16 UNL     1      29.046  -0.513  54.127  1.00  0.00     0.000 A 
HETATM   16  C17 UNL     1      28.283   0.346  54.860  1.00  0.00     0.001 A 
HETATM   17  C18 UNL     1      26.967   0.472  54.533  1.00  0.00     0.009 A 
ENDBRANCH  11  12
ENDBRANCH   9  11
BRANCH   7  18
HETATM   18  C5  UNL     1      25.498   4.094  50.327  1.00  0.00    -0.034 A 
HETATM   19  C6  UNL     1      26.674   3.688  49.681  1.00  0.00     0.009 A 
HETATM   20  C7  UNL     1      27.446   4.454  48.842  1.00  0.00     0.001 A 
HETATM   21  C8  UNL     1      27.032   5.739  48.607  1.00  0.00     0.000 A 
HETATM   22  C9  UNL     1      25.874   6.213  49.212  1.00  0.00     0.001 A 
HETATM   23  C10 UNL     1      25.139   5.402  50.046  1.00  0.00     0.009 A 
ENDBRANCH   7  18
TORSDOF 3
ENDMDL
MODEL 2
REMARK VINA RESULT:      -8.4      2.358      3.272
REMARK  3 active torsions:
REMARK  status: ('A' for Active; 'I' for Inactive)
REMARK    1  A    between atoms: C4_7  and  C5_8 
REMARK    2  A    between atoms: N4_15  and  C12_16 
REMARK    3  A    between atoms: C12_16  and  C13_17 
ROOT
HETATM    1  C1  UNL     1      22.717  -0.992  53.317  1.00  0.00     0.206 C 
HETATM    2  N1  UNL     1      21.803  -0.219  53.787  1.00  0.00    -0.238 NA
HETATM    3  C2  UNL     1      20.475  -0.772  53.781  1.00  0.00     0.229 C 
HETATM    4  N2  UNL     1      19.879   0.162  53.170  1.00  0.00    -0.264 NA
HETATM    5  C3  UNL     1      20.368   1.389  52.653  1.00  0.00     0.267 C 
HETATM    6  N3  UNL     1      21.752   1.522  52.733  1.00  0.00    -0.395 N 
HETATM    7  C4  UNL     1      22.569   0.913  51.755  1.00  0.00     0.129 C 
HETATM    8  C11 UNL     1      23.971   0.826  52.379  1.00  0.00     0.153 C 
HETATM    9  N4  UNL     1      23.870  -0.135  53.465  1.00  0.00    -0.369 N 
HETATM   10  H5  UNL     1      22.136   2.352  53.200  1.00  0.00     0.155 HD
ENDROOT
BRANCH   9  11
HETATM   11  C12 UNL     1      24.649  -0.497  54.593  1.00  0.00     0.162 C 
BRANCH  11  12
HETATM   12  C13 UNL     1      26.090  -0.499  54.184  1.00  0.00    -0.040 A 
HETATM   13  C14 UNL     1      26.528  -1.299  53.136  1.00  0.00     0.009 A 
HETATM   14  C15 UNL     1      27.888  -1.265  52.815  1.00  0.00     0.001 A 
HETATM   15  C16 UNL     1      28.769  -0.461  53.514  1.00  0.00     0.000 A 
HETATM   16  C17 UNL     1      28.327   0.321  54.540  1.00  0.00     0.001 A 
HETATM   17  C18 UNL     1      27.001   0.282  54.849  1.00  0.00     0.009 A 
ENDBRANCH  11  12
ENDBRANCH   9  11
BRANCH   7  18
HETATM   18  C5  UNL     1      22.612   1.645  50.467  1.00  0.00    -0.034 A 
HETATM   19  C6  UNL     1      21.831   1.249  49.373  1.00  0.00     0.009 A 
HETATM   20  C7  UNL     1      21.791   1.854  48.140  1.00  0.00     0.001 A 
HETATM   21  C8  UNL     1      22.587   2.954  47.956  1.00  0.00     0.000 A 
HETATM   22  C9  UNL     1      23.390   3.408  48.995  1.00  0.00     0.001 A 
HETATM   23  C10 UNL     1      23.392   2.761  50.211  1.00  0.00     0.009 A 
ENDBRANCH   7  18
TORSDOF 3
ENDMDL
MODEL 3
REMARK VINA RESULT:      -8.3      1.333      5.974
REMARK  3 active torsions:
REMARK  status: ('A' for Active; 'I' for Inactive)
REMARK    1  A    between atoms: C4_7  and  C5_8 
REMARK    2  A    between atoms: N4_15  and  C12_16 
REMARK    3  A    between atoms: C12_16  and  C13_17 
ROOT
HETATM    1  C1  UNL     1      24.604   4.022  51.473  1.00  0.00     0.206 C 
HETATM    2  N1  UNL     1      23.884   2.959  51.400  1.00  0.00    -0.238 NA
HETATM    3  C2  UNL     1      22.810   2.885  52.354  1.00  0.00     0.229 C 
HETATM    4  N2  UNL     1      23.071   1.751  52.853  1.00  0.00    -0.264 NA
HETATM    5  C3  UNL     1      24.106   0.827  52.556  1.00  0.00     0.267 C 
HETATM    6  N3  UNL     1      25.048   1.308  51.651  1.00  0.00    -0.395 N 
HETATM    7  C4  UNL     1      26.086   2.151  52.106  1.00  0.00     0.129 C 
HETATM    8  C11 UNL     1      26.617   2.870  50.855  1.00  0.00     0.153 C 
HETATM    9  N4  UNL     1      25.551   3.755  50.415  1.00  0.00    -0.369 N 
HETATM   10  H5  UNL     1      25.243   0.752  50.809  1.00  0.00     0.155 HD
ENDROOT
BRANCH   9  11
HETATM   11  C12 UNL     1      25.239   4.482  49.239  1.00  0.00     0.162 C 
BRANCH  11  12
HETATM   12  C13 UNL     1      26.408   5.358  48.907  1.00  0.00    -0.040 A 
HETATM   13  C14 UNL     1      26.273   6.741  48.885  1.00  0.00     0.009 A 
HETATM   14  C15 UNL     1      27.399   7.499  48.554  1.00  0.00     0.001 A 
HETATM   15  C16 UNL     1      28.608   6.896  48.259  1.00  0.00     0.000 A 
HETATM   16  C17 UNL     1      28.728   5.538  48.285  1.00  0.00     0.001 A 
HETATM   17  C18 UNL     1      27.628   4.804  48.608  1.00  0.00     0.009 A 
ENDBRANCH  11  12
ENDBRANCH   9  11
BRANCH   7  18
HETATM   18  C5  UNL     1      27.179   1.435  52.805  1.00  0.00    -0.034 A 
HETATM   19  C6  UNL     1      27.341   0.048  52.684  1.00  0.00     0.009 A 
HETATM   20  C7  UNL     1      28.317  -0.711  53.282  1.00  0.00     0.001 A 
HETATM   21  C8  UNL     1      29.223  -0.057  54.074  1.00  0.00     0.000 A 
HETATM   22  C9  UNL     1      29.127   1.319  54.242  1.00  0.00     0.001 A 
HETATM   23  C10 UNL     1      28.127   2.032  53.620  1.00  0.00     0.009 A 
ENDBRANCH   7  18
TORSDOF 3
ENDMDL
MODEL 4
REMARK VINA RESULT:      -8.2      2.174      5.093
REMARK  3 active torsions:
REMARK  status: ('A' for Active; 'I' for Inactive)
REMARK    1  A    between atoms: C4_7  and  C5_8 
REMARK    2  A    between atoms: N4_15  and  C12_16 
REMARK    3  A    between atoms: C12_16  and  C13_17 
ROOT
HETATM    1  C1  UNL     1      24.650   3.005  53.011  1.00  0.00     0.206 C 
HETATM    2  N1  UNL     1      23.852   3.564  52.172  1.00  0.00    -0.238 NA
HETATM    3  C2  UNL     1      23.250   4.789  52.627  1.00  0.00     0.229 C 
HETATM    4  N2  UNL     1      22.036   4.498  52.419  1.00  0.00    -0.264 NA
HETATM    5  C3  UNL     1      21.445   3.322  51.890  1.00  0.00     0.267 C 
HETATM    6  N3  UNL     1      22.348   2.284  51.679  1.00  0.00    -0.395 N 
HETATM    7  C4  UNL     1      22.737   1.465  52.762  1.00  0.00     0.129 C 
HETATM    8  C11 UNL     1      24.045   0.787  52.325  1.00  0.00     0.153 C 
HETATM    9  N4  UNL     1      25.041   1.843  52.248  1.00  0.00    -0.369 N 
HETATM   10  H5  UNL     1      22.395   1.860  50.744  1.00  0.00     0.155 HD
ENDROOT
BRANCH   9  11
HETATM   11  C12 UNL     1      26.329   2.001  51.679  1.00  0.00     0.162 C 
BRANCH  11  12
HETATM   12  C13 UNL     1      27.320   1.309  52.564  1.00  0.00    -0.040 A 
HETATM   13  C14 UNL     1      28.199   2.042  53.352  1.00  0.00     0.009 A 
HETATM   14  C15 UNL     1      29.107   1.334  54.144  1.00  0.00     0.001 A 
HETATM   15  C16 UNL     1      29.130  -0.049  54.147  1.00  0.00     0.000 A 
HETATM   16  C17 UNL     1      28.261  -0.757  53.371  1.00  0.00     0.001 A 
HETATM   17  C18 UNL     1      27.379  -0.062  52.600  1.00  0.00     0.009 A 
ENDBRANCH  11  12
ENDBRANCH   9  11
BRANCH   7  18
HETATM   18  C5  UNL     1      21.723   0.454  53.145  1.00  0.00    -0.034 A 
HETATM   19  C6  UNL     1      22.047  -0.633  53.968  1.00  0.00     0.009 A 
HETATM   20  C7  UNL     1      21.189  -1.621  54.385  1.00  0.00     0.001 A 
HETATM   21  C8  UNL     1      19.888  -1.541  53.962  1.00  0.00     0.000 A 
HETATM   22  C9  UNL     1      19.491  -0.491  53.144  1.00  0.00     0.001 A 
HETATM   23  C10 UNL     1      20.394   0.472  52.754  1.00  0.00     0.009 A 
ENDBRANCH   7  18
TORSDOF 3
ENDMDL
MODEL 5
REMARK VINA RESULT:      -8.0      2.088      5.752
REMARK  3 active torsions:
REMARK  status: ('A' for Active; 'I' for Inactive)
REMARK    1  A    between atoms: C4_7  and  C5_8 
REMARK    2  A    between atoms: N4_15  and  C12_16 
REMARK    3  A    between atoms: C12_16  and  C13_17 
ROOT
HETATM    1  C1  UNL     1      23.323   1.926  50.849  1.00  0.00     0.206 C 
HETATM    2  N1  UNL     1      24.037   2.979  50.665  1.00  0.00    -0.238 NA
HETATM    3  C2  UNL     1      24.409   3.230  49.298  1.00  0.00     0.229 C 
HETATM    4  N2  UNL     1      25.660   3.341  49.455  1.00  0.00    -0.264 NA
HETATM    5  C3  UNL     1      26.456   3.252  50.626  1.00  0.00     0.267 C 
HETATM    6  N3  UNL     1      25.749   2.864  51.760  1.00  0.00    -0.395 N 
HETATM    7  C4  UNL     1      25.476   1.496  51.978  1.00  0.00     0.129 C 
HETATM    8  C11 UNL     1      24.314   1.458  52.984  1.00  0.00     0.153 C 
HETATM    9  N4  UNL     1      23.156   1.986  52.283  1.00  0.00    -0.369 N 
HETATM   10  H5  UNL     1      25.800   3.461  52.595  1.00  0.00     0.155 HD
ENDROOT
BRANCH   9  11
HETATM   11  C12 UNL     1      21.875   2.478  52.639  1.00  0.00     0.162 C 
BRANCH  11  12
HETATM   12  C13 UNL     1      20.957   1.307  52.813  1.00  0.00    -0.040 A 
HETATM   13  C14 UNL     1      19.853   1.144  51.985  1.00  0.00     0.009 A 
HETATM   14  C15 UNL     1      19.029   0.038  52.210  1.00  0.00     0.001 A 
HETATM   15  C16 UNL     1      19.302  -0.866  53.221  1.00  0.00     0.000 A 
HETATM   16  C17 UNL     1      20.389  -0.695  54.026  1.00  0.00     0.001 A 
HETATM   17  C18 UNL     1      21.188   0.385  53.803  1.00  0.00     0.009 A 
ENDBRANCH  11  12
ENDBRANCH   9  11
BRANCH   7  18
HETATM   18  C5  UNL     1      26.636   0.725  52.485  1.00  0.00    -0.034 A 
HETATM   19  C6  UNL     1      26.685  -0.672  52.390  1.00  0.00     0.009 A 
HETATM   20  C7  UNL     1      27.707  -1.481  52.822  1.00  0.00     0.001 A 
HETATM   21  C8  UNL     1      28.788  -0.870  53.401  1.00  0.00     0.000 A 
HETATM   22  C9  UNL     1      28.813   0.513  53.530  1.00  0.00     0.001 A 
HETATM   23  C10 UNL     1      27.759   1.276  53.081  1.00  0.00     0.009 A 
ENDBRANCH   7  18
TORSDOF 3
ENDMDL
MODEL 6
REMARK VINA RESULT:      -7.9      2.083      6.731
REMARK  3 active torsions:
REMARK  status: ('A' for Active; 'I' for Inactive)
REMARK    1  A    between atoms: C4_7  and  C5_8 
REMARK    2  A    between atoms: N4_15  and  C12_16 
REMARK    3  A    between atoms: C12_16  and  C13_17 
ROOT
HETATM    1  C1  UNL     1      26.800   0.750  51.566  1.00  0.00     0.206 C 
HETATM    2  N1  UNL     1      27.272   0.951  52.745  1.00  0.00    -0.238 NA
HETATM    3  C2  UNL     1      28.185  -0.056  53.215  1.00  0.00     0.229 C 
HETATM    4  N2  UNL     1      27.625  -0.328  54.317  1.00  0.00    -0.264 NA
HETATM    5  C3  UNL     1      26.453   0.204  54.914  1.00  0.00     0.267 C 
HETATM    6  N3  UNL     1      25.751   1.083  54.093  1.00  0.00    -0.395 N 
HETATM    7  C4  UNL     1      24.879   0.570  53.107  1.00  0.00     0.129 C 
HETATM    8  C11 UNL     1      24.668   1.713  52.102  1.00  0.00     0.153 C 
HETATM    9  N4  UNL     1      25.946   1.909  51.438  1.00  0.00    -0.369 N 
HETATM   10  H5  UNL     1      25.537   2.021  54.452  1.00  0.00     0.155 HD
ENDROOT
BRANCH   9  11
HETATM   11  C12 UNL     1      26.546   2.912  50.636  1.00  0.00     0.162 C 
BRANCH  11  12
HETATM   12  C13 UNL     1      25.454   3.748  50.042  1.00  0.00    -0.040 A 
HETATM   13  C14 UNL     1      24.462   3.168  49.261  1.00  0.00     0.009 A 
HETATM   14  C15 UNL     1      23.481   4.007  48.725  1.00  0.00     0.001 A 
HETATM   15  C16 UNL     1      23.494   5.369  48.965  1.00  0.00     0.000 A 
HETATM   16  C17 UNL     1      24.472   5.927  49.734  1.00  0.00     0.001 A 
HETATM   17  C18 UNL     1      25.426   5.105  50.252  1.00  0.00     0.009 A 
ENDBRANCH  11  12
ENDBRANCH   9  11
BRANCH   7  18
HETATM   18  C5  UNL     1      23.582   0.093  53.641  1.00  0.00    -0.034 A 
HETATM   19  C6  UNL     1      22.384   0.765  53.363  1.00  0.00     0.009 A 
HETATM   20  C7  UNL     1      21.132   0.409  53.802  1.00  0.00     0.001 A 
HETATM   21  C8  UNL     1      21.037  -0.710  54.586  1.00  0.00     0.000 A 
HETATM   22  C9  UNL     1      22.182  -1.430  54.905  1.00  0.00     0.001 A 
HETATM   23  C10 UNL     1      23.413  -1.027  54.439  1.00  0.00     0.009 A 
ENDBRANCH   7  18
TORSDOF 3
ENDMDL
MODEL 7
REMARK VINA RESULT:      -7.7      2.631      5.532
REMARK  3 active torsions:
REMARK  status: ('A' for Active; 'I' for Inactive)
REMARK    1  A    between atoms: C4_7  and  C5_8 
REMARK    2  A    between atoms: N4_15  and  C12_16 
REMARK    3  A    between atoms: C12_16  and  C13_17 
ROOT
HETATM    1  C1  UNL     1      22.938   3.430  51.715  1.00  0.00     0.206 C 
HETATM    2  N1  UNL     1      23.180   2.811  50.614  1.00  0.00    -0.238 NA
HETATM    3  C2  UNL     1      22.796   3.518  49.421  1.00  0.00     0.229 C 
HETATM    4  N2  UNL     1      22.089   2.618  48.881  1.00  0.00    -0.264 NA
HETATM    5  C3  UNL     1      21.774   1.305  49.316  1.00  0.00     0.267 C 
HETATM    6  N3  UNL     1      22.226   1.012  50.600  1.00  0.00    -0.395 N 
HETATM    7  C4  UNL     1      21.476   1.441  51.718  1.00  0.00     0.129 C 
HETATM    8  C11 UNL     1      22.447   1.407  52.908  1.00  0.00     0.153 C 
HETATM    9  N4  UNL     1      23.425   2.454  52.662  1.00  0.00    -0.369 N 
HETATM   10  H5  UNL     1      22.814   0.180  50.733  1.00  0.00     0.155 HD
ENDROOT
BRANCH   9  11
HETATM   11  C12 UNL     1      24.703   2.806  53.164  1.00  0.00     0.162 C 
BRANCH  11  12
HETATM   12  C13 UNL     1      25.564   1.580  53.148  1.00  0.00    -0.040 A 
HETATM   13  C14 UNL     1      25.848   0.930  51.953  1.00  0.00     0.009 A 
HETATM   14  C15 UNL     1      26.646  -0.216  52.010  1.00  0.00     0.001 A 
HETATM   15  C16 UNL     1      27.139  -0.688  53.213  1.00  0.00     0.000 A 
HETATM   16  C17 UNL     1      26.854  -0.041  54.378  1.00  0.00     0.001 A 
HETATM   17  C18 UNL     1      26.075   1.075  54.317  1.00  0.00     0.009 A 
ENDBRANCH  11  12
ENDBRANCH   9  11
BRANCH   7  18
HETATM   18  C5  UNL     1      20.279   0.611  51.992  1.00  0.00    -0.034 A 
HETATM   19  C6  UNL     1      20.223  -0.254  53.093  1.00  0.00     0.009 A 
HETATM   20  C7  UNL     1      19.168  -1.061  53.440  1.00  0.00     0.001 A 
HETATM   21  C8  UNL     1      18.057  -1.020  52.639  1.00  0.00     0.000 A 
HETATM   22  C9  UNL     1      18.037  -0.186  51.528  1.00  0.00     0.001 A 
HETATM   23  C10 UNL     1      19.125   0.601  51.225  1.00  0.00     0.009 A 
ENDBRANCH   7  18
TORSDOF 3
ENDMDL
MODEL 8
REMARK VINA RESULT:      -7.6      2.477      6.094
REMARK  3 active torsions:
REMARK  status: ('A' for Active; 'I' for Inactive)
REMARK    1  A    between atoms: C4_7  and  C5_8 
REMARK    2  A    between atoms: N4_15  and  C12_16 
REMARK    3  A    between atoms: C12_16  and  C13_17 
ROOT
HETATM    1  C1  UNL     1      22.037   4.654  50.683  1.00  0.00     0.206 C 
HETATM    2  N1  UNL     1      22.235   3.884  49.672  1.00  0.00    -0.238 NA
HETATM    3  C2  UNL     1      21.070   3.623  48.869  1.00  0.00     0.229 C 
HETATM    4  N2  UNL     1      21.111   2.359  48.871  1.00  0.00    -0.264 NA
HETATM    5  C3  UNL     1      22.033   1.465  49.476  1.00  0.00     0.267 C 
HETATM    6  N3  UNL     1      22.970   2.090  50.294  1.00  0.00    -0.395 N 
HETATM    7  C4  UNL     1      22.618   2.443  51.615  1.00  0.00     0.129 C 
HETATM    8  C11 UNL     1      23.640   3.505  52.050  1.00  0.00     0.153 C 
HETATM    9  N4  UNL     1      23.370   4.682  51.240  1.00  0.00    -0.369 N 
HETATM   10  H5  UNL     1      23.967   1.917  50.115  1.00  0.00     0.155 HD
ENDROOT
BRANCH   9  11
HETATM   11  C12 UNL     1      24.047   5.883  50.913  1.00  0.00     0.162 C 
BRANCH  11  12
HETATM   12  C13 UNL     1      25.264   5.529  50.114  1.00  0.00    -0.040 A 
HETATM   13  C14 UNL     1      25.912   6.490  49.347  1.00  0.00     0.009 A 
HETATM   14  C15 UNL     1      27.033   6.091  48.614  1.00  0.00     0.001 A 
HETATM   15  C16 UNL     1      27.485   4.784  48.651  1.00  0.00     0.000 A 
HETATM   16  C17 UNL     1      26.842   3.851  49.408  1.00  0.00     0.001 A 
HETATM   17  C18 UNL     1      25.750   4.245  50.119  1.00  0.00     0.009 A 
ENDBRANCH  11  12
ENDBRANCH   9  11
BRANCH   7  18
HETATM   18  C5  UNL     1      22.611   1.302  52.560  1.00  0.00    -0.034 A 
HETATM   19  C6  UNL     1      23.777   0.578  52.843  1.00  0.00     0.009 A 
HETATM   20  C7  UNL     1      23.884  -0.489  53.701  1.00  0.00     0.001 A 
HETATM   21  C8  UNL     1      22.744  -0.890  54.348  1.00  0.00     0.000 A 
HETATM   22  C9  UNL     1      21.548  -0.220  54.119  1.00  0.00     0.001 A 
HETATM   23  C10 UNL     1      21.498   0.843  53.247  1.00  0.00     0.009 A 
ENDBRANCH   7  18
TORSDOF 3
ENDMDL
MODEL 9
REMARK VINA RESULT:      -7.5      6.621      9.623
REMARK  3 active torsions:
REMARK  status: ('A' for Active; 'I' for Inactive)
REMARK    1  A    between atoms: C4_7  and  C5_8 
REMARK    2  A    between atoms: N4_15  and  C12_16 
REMARK    3  A    between atoms: C12_16  and  C13_17 
ROOT
HETATM    1  C1  UNL     1      32.254   8.671  47.851  1.00  0.00     0.206 C 
HETATM    2  N1  UNL     1      31.920   8.639  46.609  1.00  0.00    -0.238 NA
HETATM    3  C2  UNL     1      31.494   9.899  46.061  1.00  0.00     0.229 C 
HETATM    4  N2  UNL     1      30.381   9.536  45.580  1.00  0.00    -0.264 NA
HETATM    5  C3  UNL     1      29.746   8.268  45.576  1.00  0.00     0.267 C 
HETATM    6  N3  UNL     1      30.411   7.302  46.326  1.00  0.00    -0.395 N 
HETATM    7  C4  UNL     1      30.231   7.261  47.726  1.00  0.00     0.129 C 
HETATM    8  C11 UNL     1      31.422   6.460  48.276  1.00  0.00     0.153 C 
HETATM    9  N4  UNL     1      32.600   7.283  48.052  1.00  0.00    -0.369 N 
HETATM   10  H5  UNL     1      30.662   6.417  45.869  1.00  0.00     0.155 HD
ENDROOT
BRANCH   9  11
HETATM   11  C12 UNL     1      34.004   7.089  48.050  1.00  0.00     0.162 C 
BRANCH  11  12
HETATM   12  C13 UNL     1      34.291   5.761  47.419  1.00  0.00    -0.040 A 
HETATM   13  C14 UNL     1      34.194   5.595  46.043  1.00  0.00     0.009 A 
HETATM   14  C15 UNL     1      34.461   4.327  45.520  1.00  0.00     0.001 A 
HETATM   15  C16 UNL     1      34.813   3.272  46.343  1.00  0.00     0.000 A 
HETATM   16  C17 UNL     1      34.906   3.447  47.692  1.00  0.00     0.001 A 
HETATM   17  C18 UNL     1      34.643   4.685  48.196  1.00  0.00     0.009 A 
ENDBRANCH  11  12
ENDBRANCH   9  11
BRANCH   7  18
HETATM   18  C5  UNL     1      28.948   6.652  48.150  1.00  0.00    -0.034 A 
HETATM   19  C6  UNL     1      27.823   7.438  48.436  1.00  0.00     0.009 A 
HETATM   20  C7  UNL     1      26.590   6.979  48.832  1.00  0.00     0.001 A 
HETATM   21  C8  UNL     1      26.437   5.624  48.959  1.00  0.00     0.000 A 
HETATM   22  C9  UNL     1      27.507   4.779  48.692  1.00  0.00     0.001 A 
HETATM   23  C10 UNL     1      28.723   5.293  48.300  1.00  0.00     0.009 A 
ENDBRANCH   7  18
TORSDOF 3
ENDMDL
