MODEL 1
REMARK VINA RESULT:      -8.5      0.000      0.000
REMARK  4 active torsions:
REMARK  status: ('A' for Active; 'I' for Inactive)
REMARK    1  A    between atoms: C2_2  and  O1_3 
REMARK    2  A    between atoms: C2_2  and  C3_4 
REMARK    3  A    between atoms: C3_4  and  C4_5 
REMARK    4  A    between atoms: C4_5  and  C5_6 
ROOT
HETATM    1  C5  UNL     1      25.593   0.147  52.937  1.00  0.00    -0.034 A 
HETATM    2  C6  UNL     1      24.255  -0.090  53.276  1.00  0.00     0.104 A 
HETATM    3  N1  UNL     1      23.451   0.727  52.571  1.00  0.00    -0.332 N 
HETATM    4  C7  UNL     1      22.118   0.681  52.725  1.00  0.00     0.096 C 
HETATM    5  C8  UNL     1      21.158   0.277  51.823  1.00  0.00     0.018 C 
HETATM    6  C9  UNL     1      21.278   0.207  50.452  1.00  0.00     0.001 C 
HETATM    7  C10 UNL     1      21.007   1.249  49.625  1.00  0.00     0.001 C 
HETATM    8  C11 UNL     1      20.726   2.446  50.191  1.00  0.00     0.010 C 
HETATM    9  C12 UNL     1      21.447   3.351  50.928  1.00  0.00    -0.025 C 
HETATM   10  C13 UNL     1      22.823   3.388  51.005  1.00  0.00     0.042 C 
HETATM   11  C14 UNL     1      23.828   2.459  50.907  1.00  0.00     0.048 C 
HETATM   12  C15 UNL     1      24.196   1.489  51.786  1.00  0.00     0.045 A 
HETATM   13  C16 UNL     1      25.514   1.148  51.995  1.00  0.00    -0.027 A 
HETATM   14  C17 UNL     1      26.781   1.683  51.382  1.00  0.00     0.051 C 
HETATM   15  C18 UNL     1      23.040   4.834  51.255  1.00  0.00     0.252 C 
HETATM   16  O2  UNL     1      24.188   5.386  51.403  1.00  0.00    -0.268 OA
HETATM   17  N2  UNL     1      21.780   5.546  51.310  1.00  0.00    -0.353 N 
HETATM   18  C19 UNL     1      20.901   4.452  51.765  1.00  0.00     0.162 C 
HETATM   19  H18 UNL     1      21.756   6.572  51.047  1.00  0.00     0.163 HD
ENDROOT
BRANCH   1  20
HETATM   20  C4  UNL     1      26.793  -0.543  53.487  1.00  0.00     0.047 C 
BRANCH  20  21
HETATM   21  C3  UNL     1      27.188  -1.761  52.720  1.00  0.00     0.068 C 
BRANCH  21  22
HETATM   22  C2  UNL     1      28.573  -2.124  53.186  1.00  0.00     0.034 C 
HETATM   23  C1  UNL     1      29.537  -1.236  53.365  1.00  0.00     0.045 C 
BRANCH  22  24
HETATM   24  O1  UNL     1      28.628  -3.500  53.374  1.00  0.00    -0.366 OA
HETATM   25  H3  UNL     1      29.040  -4.082  52.649  1.00  0.00     0.217 HD
ENDBRANCH  22  24
ENDBRANCH  21  22
ENDBRANCH  20  21
ENDBRANCH   1  20
TORSDOF 4
ENDMDL
MODEL 2
REMARK VINA RESULT:      -8.2      2.500      7.015
REMARK  4 active torsions:
REMARK  status: ('A' for Active; 'I' for Inactive)
REMARK    1  A    between atoms: C2_2  and  O1_3 
REMARK    2  A    between atoms: C2_2  and  C3_4 
REMARK    3  A    between atoms: C3_4  and  C4_5 
REMARK    4  A    between atoms: C4_5  and  C5_6 
ROOT
HETATM    1  C5  UNL     1      22.461   3.620  52.070  1.00  0.00    -0.034 A 
HETATM    2  C6  UNL     1      23.751   3.725  52.606  1.00  0.00     0.104 A 
HETATM    3  N1  UNL     1      24.194   2.511  52.978  1.00  0.00    -0.332 N 
HETATM    4  C7  UNL     1      25.413   2.360  53.520  1.00  0.00     0.096 C 
HETATM    5  C8  UNL     1      26.516   1.717  53.001  1.00  0.00     0.018 C 
HETATM    6  C9  UNL     1      26.533   0.753  52.017  1.00  0.00     0.001 C 
HETATM    7  C10 UNL     1      26.408  -0.575  52.270  1.00  0.00     0.001 C 
HETATM    8  C11 UNL     1      26.131  -0.950  53.541  1.00  0.00     0.010 C 
HETATM    9  C12 UNL     1      25.051  -0.795  54.373  1.00  0.00    -0.025 C 
HETATM   10  C13 UNL     1      23.781  -0.454  53.961  1.00  0.00     0.042 C 
HETATM   11  C14 UNL     1      23.256   0.269  52.918  1.00  0.00     0.048 C 
HETATM   12  C15 UNL     1      23.259   1.613  52.713  1.00  0.00     0.045 A 
HETATM   13  C16 UNL     1      22.188   2.273  52.154  1.00  0.00    -0.027 A 
HETATM   14  C17 UNL     1      20.860   1.761  51.663  1.00  0.00     0.051 C 
HETATM   15  C18 UNL     1      22.971  -1.111  55.015  1.00  0.00     0.252 C 
HETATM   16  O2  UNL     1      21.690  -1.086  55.074  1.00  0.00    -0.268 OA
HETATM   17  N2  UNL     1      23.817  -1.790  55.974  1.00  0.00    -0.353 N 
HETATM   18  C19 UNL     1      25.035  -0.964  55.850  1.00  0.00     0.162 C 
HETATM   19  H18 UNL     1      23.436  -2.627  56.497  1.00  0.00     0.163 HD
ENDROOT
BRANCH   1  20
HETATM   20  C4  UNL     1      21.616   4.727  51.542  1.00  0.00     0.047 C 
BRANCH  20  21
HETATM   21  C3  UNL     1      22.210   5.423  50.363  1.00  0.00     0.068 C 
BRANCH  21  22
HETATM   22  C2  UNL     1      22.669   6.770  50.855  1.00  0.00     0.034 C 
HETATM   23  C1  UNL     1      23.938   7.142  50.878  1.00  0.00     0.045 C 
BRANCH  22  24
HETATM   24  O1  UNL     1      21.555   7.497  51.256  1.00  0.00    -0.366 OA
HETATM   25  H3  UNL     1      21.298   7.506  52.240  1.00  0.00     0.217 HD
ENDBRANCH  22  24
ENDBRANCH  21  22
ENDBRANCH  20  21
ENDBRANCH   1  20
TORSDOF 4
ENDMDL
MODEL 3
REMARK VINA RESULT:      -8.2      2.542      6.860
REMARK  4 active torsions:
REMARK  status: ('A' for Active; 'I' for Inactive)
REMARK    1  A    between atoms: C2_2  and  O1_3 
REMARK    2  A    between atoms: C2_2  and  C3_4 
REMARK    3  A    between atoms: C3_4  and  C4_5 
REMARK    4  A    between atoms: C4_5  and  C5_6 
ROOT
HETATM    1  C5  UNL     1      21.680   2.416  51.696  1.00  0.00    -0.034 A 
HETATM    2  C6  UNL     1      22.901   2.997  52.063  1.00  0.00     0.104 A 
HETATM    3  N1  UNL     1      23.716   2.063  52.586  1.00  0.00    -0.332 N 
HETATM    4  C7  UNL     1      24.949   2.384  53.009  1.00  0.00     0.096 C 
HETATM    5  C8  UNL     1      26.167   2.004  52.490  1.00  0.00     0.018 C 
HETATM    6  C9  UNL     1      26.429   0.913  51.689  1.00  0.00     0.001 C 
HETATM    7  C10 UNL     1      26.732  -0.316  52.177  1.00  0.00     0.001 C 
HETATM    8  C11 UNL     1      26.651  -0.499  53.516  1.00  0.00     0.010 C 
HETATM    9  C12 UNL     1      25.620  -0.507  54.422  1.00  0.00    -0.025 C 
HETATM   10  C13 UNL     1      24.287  -0.641  54.099  1.00  0.00     0.042 C 
HETATM   11  C14 UNL     1      23.512  -0.321  53.012  1.00  0.00     0.048 C 
HETATM   12  C15 UNL     1      23.090   0.896  52.581  1.00  0.00     0.045 A 
HETATM   13  C16 UNL     1      21.840   1.091  52.039  1.00  0.00    -0.027 A 
HETATM   14  C17 UNL     1      20.710   0.127  51.790  1.00  0.00     0.051 C 
HETATM   15  C18 UNL     1      23.775  -1.287  55.332  1.00  0.00     0.252 C 
HETATM   16  O2  UNL     1      22.554  -1.626  55.526  1.00  0.00    -0.268 OA
HETATM   17  N2  UNL     1      24.839  -1.486  56.295  1.00  0.00    -0.353 N 
HETATM   18  C19 UNL     1      25.735  -0.381  55.899  1.00  0.00     0.162 C 
HETATM   19  H18 UNL     1      24.761  -2.278  56.992  1.00  0.00     0.163 HD
ENDROOT
BRANCH   1  20
HETATM   20  C4  UNL     1      20.509   3.101  51.083  1.00  0.00     0.047 C 
BRANCH  20  21
HETATM   21  C3  UNL     1      20.742   3.540  49.675  1.00  0.00     0.068 C 
BRANCH  21  22
HETATM   22  C2  UNL     1      20.672   2.298  48.827  1.00  0.00     0.034 C 
HETATM   23  C1  UNL     1      21.713   1.795  48.185  1.00  0.00     0.045 C 
BRANCH  22  24
HETATM   24  O1  UNL     1      19.368   1.818  48.855  1.00  0.00    -0.366 OA
HETATM   25  H3  UNL     1      18.610   2.430  48.561  1.00  0.00     0.217 HD
ENDBRANCH  22  24
ENDBRANCH  21  22
ENDBRANCH  20  21
ENDBRANCH   1  20
TORSDOF 4
ENDMDL
MODEL 4
REMARK VINA RESULT:      -8.1      2.202      3.551
REMARK  4 active torsions:
REMARK  status: ('A' for Active; 'I' for Inactive)
REMARK    1  A    between atoms: C2_2  and  O1_3 
REMARK    2  A    between atoms: C2_2  and  C3_4 
REMARK    3  A    between atoms: C3_4  and  C4_5 
REMARK    4  A    between atoms: C4_5  and  C5_6 
ROOT
HETATM    1  C5  UNL     1      26.289   0.871  52.397  1.00  0.00    -0.034 A 
HETATM    2  C6  UNL     1      26.739   1.730  51.386  1.00  0.00     0.104 A 
HETATM    3  N1  UNL     1      25.691   2.338  50.800  1.00  0.00    -0.332 N 
HETATM    4  C7  UNL     1      25.875   3.213  49.799  1.00  0.00     0.096 C 
HETATM    5  C8  UNL     1      25.643   4.571  49.786  1.00  0.00     0.018 C 
HETATM    6  C9  UNL     1      24.812   5.284  50.623  1.00  0.00     0.001 C 
HETATM    7  C10 UNL     1      23.494   5.486  50.371  1.00  0.00     0.001 C 
HETATM    8  C11 UNL     1      22.951   4.849  49.307  1.00  0.00     0.010 C 
HETATM    9  C12 UNL     1      22.703   3.535  49.000  1.00  0.00    -0.025 C 
HETATM   10  C13 UNL     1      22.672   2.503  49.914  1.00  0.00     0.042 C 
HETATM   11  C14 UNL     1      23.283   2.251  51.117  1.00  0.00     0.048 C 
HETATM   12  C15 UNL     1      24.575   1.919  51.376  1.00  0.00     0.045 A 
HETATM   13  C16 UNL     1      24.920   1.019  52.359  1.00  0.00    -0.027 A 
HETATM   14  C17 UNL     1      24.070   0.235  53.322  1.00  0.00     0.051 C 
HETATM   15  C18 UNL     1      21.717   1.584  49.250  1.00  0.00     0.252 C 
HETATM   16  O2  UNL     1      21.346   0.450  49.721  1.00  0.00    -0.268 OA
HETATM   17  N2  UNL     1      21.254   2.134  47.993  1.00  0.00    -0.353 N 
HETATM   18  C19 UNL     1      22.418   2.975  47.652  1.00  0.00     0.162 C 
HETATM   19  H18 UNL     1      20.301   1.854  47.627  1.00  0.00     0.163 HD
ENDROOT
BRANCH   1  20
HETATM   20  C4  UNL     1      27.124   0.014  53.283  1.00  0.00     0.047 C 
BRANCH  20  21
HETATM   21  C3  UNL     1      27.274  -1.388  52.793  1.00  0.00     0.068 C 
BRANCH  21  22
HETATM   22  C2  UNL     1      28.649  -1.838  53.210  1.00  0.00     0.034 C 
HETATM   23  C1  UNL     1      29.633  -1.001  53.495  1.00  0.00     0.045 C 
BRANCH  22  24
HETATM   24  O1  UNL     1      28.671  -3.227  53.232  1.00  0.00    -0.366 OA
HETATM   25  H3  UNL     1      28.988  -3.729  52.405  1.00  0.00     0.217 HD
ENDBRANCH  22  24
ENDBRANCH  21  22
ENDBRANCH  20  21
ENDBRANCH   1  20
TORSDOF 4
ENDMDL
MODEL 5
REMARK VINA RESULT:      -7.8      3.096      6.043
REMARK  4 active torsions:
REMARK  status: ('A' for Active; 'I' for Inactive)
REMARK    1  A    between atoms: C2_2  and  O1_3 
REMARK    2  A    between atoms: C2_2  and  C3_4 
REMARK    3  A    between atoms: C3_4  and  C4_5 
REMARK    4  A    between atoms: C4_5  and  C5_6 
ROOT
HETATM    1  C5  UNL     1      24.043   4.149  49.818  1.00  0.00    -0.034 A 
HETATM    2  C6  UNL     1      24.437   4.136  51.162  1.00  0.00     0.104 A 
HETATM    3  N1  UNL     1      24.015   3.003  51.753  1.00  0.00    -0.332 N 
HETATM    4  C7  UNL     1      24.277   2.764  53.047  1.00  0.00     0.096 C 
HETATM    5  C8  UNL     1      25.091   1.799  53.600  1.00  0.00     0.018 C 
HETATM    6  C9  UNL     1      25.506   0.621  53.015  1.00  0.00     0.001 C 
HETATM    7  C10 UNL     1      24.801  -0.536  53.087  1.00  0.00     0.001 C 
HETATM    8  C11 UNL     1      23.575  -0.493  53.659  1.00  0.00     0.010 C 
HETATM    9  C12 UNL     1      22.380   0.093  53.322  1.00  0.00    -0.025 C 
HETATM   10  C13 UNL     1      22.055   0.556  52.065  1.00  0.00     0.042 C 
HETATM   11  C14 UNL     1      22.761   1.061  51.001  1.00  0.00     0.048 C 
HETATM   12  C15 UNL     1      23.364   2.271  50.862  1.00  0.00     0.045 A 
HETATM   13  C16 UNL     1      23.370   2.957  49.669  1.00  0.00    -0.027 A 
HETATM   14  C17 UNL     1      22.785   2.607  48.326  1.00  0.00     0.051 C 
HETATM   15  C18 UNL     1      20.583   0.381  52.086  1.00  0.00     0.252 C 
HETATM   16  O2  UNL     1      19.797   0.676  51.116  1.00  0.00    -0.268 OA
HETATM   17  N2  UNL     1      20.143  -0.168  53.352  1.00  0.00    -0.353 N 
HETATM   18  C19 UNL     1      21.223   0.333  54.224  1.00  0.00     0.162 C 
HETATM   19  H18 UNL     1      19.253  -0.740  53.384  1.00  0.00     0.163 HD
ENDROOT
BRANCH   1  20
HETATM   20  C4  UNL     1      24.309   5.218  48.816  1.00  0.00     0.047 C 
BRANCH  20  21
HETATM   21  C3  UNL     1      24.498   6.570  49.419  1.00  0.00     0.068 C 
BRANCH  21  22
HETATM   22  C2  UNL     1      25.985   6.778  49.532  1.00  0.00     0.034 C 
HETATM   23  C1  UNL     1      26.847   6.390  48.607  1.00  0.00     0.045 C 
BRANCH  22  24
HETATM   24  O1  UNL     1      26.250   7.421  50.735  1.00  0.00    -0.366 OA
HETATM   25  H3  UNL     1      25.481   7.618  51.370  1.00  0.00     0.217 HD
ENDBRANCH  22  24
ENDBRANCH  21  22
ENDBRANCH  20  21
ENDBRANCH   1  20
TORSDOF 4
ENDMDL
MODEL 6
REMARK VINA RESULT:      -7.8      2.152      3.358
REMARK  4 active torsions:
REMARK  status: ('A' for Active; 'I' for Inactive)
REMARK    1  A    between atoms: C2_2  and  O1_3 
REMARK    2  A    between atoms: C2_2  and  C3_4 
REMARK    3  A    between atoms: C3_4  and  C4_5 
REMARK    4  A    between atoms: C4_5  and  C5_6 
ROOT
HETATM    1  C5  UNL     1      25.244   0.070  52.927  1.00  0.00    -0.034 A 
HETATM    2  C6  UNL     1      25.474   1.084  51.988  1.00  0.00     0.104 A 
HETATM    3  N1  UNL     1      24.335   1.764  51.759  1.00  0.00    -0.332 N 
HETATM    4  C7  UNL     1      24.309   2.790  50.893  1.00  0.00     0.096 C 
HETATM    5  C8  UNL     1      24.112   4.129  51.147  1.00  0.00     0.018 C 
HETATM    6  C9  UNL     1      23.510   4.690  52.253  1.00  0.00     0.001 C 
HETATM    7  C10 UNL     1      22.174   4.912  52.343  1.00  0.00     0.001 C 
HETATM    8  C11 UNL     1      21.389   4.446  51.343  1.00  0.00     0.010 C 
HETATM    9  C12 UNL     1      21.046   3.194  50.899  1.00  0.00    -0.025 C 
HETATM   10  C13 UNL     1      21.199   2.030  51.621  1.00  0.00     0.042 C 
HETATM   11  C14 UNL     1      22.061   1.597  52.599  1.00  0.00     0.048 C 
HETATM   12  C15 UNL     1      23.370   1.246  52.501  1.00  0.00     0.045 A 
HETATM   13  C16 UNL     1      23.907   0.206  53.225  1.00  0.00    -0.027 A 
HETATM   14  C17 UNL     1      23.278  -0.733  54.222  1.00  0.00     0.051 C 
HETATM   15  C18 UNL     1      20.096   1.215  51.056  1.00  0.00     0.252 C 
HETATM   16  O2  UNL     1      19.815   0.017  51.415  1.00  0.00    -0.268 OA
HETATM   17  N2  UNL     1      19.374   1.952  50.040  1.00  0.00    -0.353 N 
HETATM   18  C19 UNL     1      20.450   2.852  49.580  1.00  0.00     0.162 C 
HETATM   19  H18 UNL     1      18.356   1.721  49.861  1.00  0.00     0.163 HD
ENDROOT
BRANCH   1  20
HETATM   20  C4  UNL     1      26.238  -0.906  53.454  1.00  0.00     0.047 C 
BRANCH  20  21
HETATM   21  C3  UNL     1      27.555  -0.857  52.751  1.00  0.00     0.068 C 
BRANCH  21  22
HETATM   22  C2  UNL     1      28.598  -0.667  53.820  1.00  0.00     0.034 C 
HETATM   23  C1  UNL     1      29.893  -0.832  53.610  1.00  0.00     0.045 C 
BRANCH  22  24
HETATM   24  O1  UNL     1      27.960  -0.306  55.001  1.00  0.00    -0.366 OA
HETATM   25  H3  UNL     1      28.505  -0.238  55.857  1.00  0.00     0.217 HD
ENDBRANCH  22  24
ENDBRANCH  21  22
ENDBRANCH  20  21
ENDBRANCH   1  20
TORSDOF 4
ENDMDL
MODEL 7
REMARK VINA RESULT:      -7.6      2.948      6.495
REMARK  4 active torsions:
REMARK  status: ('A' for Active; 'I' for Inactive)
REMARK    1  A    between atoms: C2_2  and  O1_3 
REMARK    2  A    between atoms: C2_2  and  C3_4 
REMARK    3  A    between atoms: C3_4  and  C4_5 
REMARK    4  A    between atoms: C4_5  and  C5_6 
ROOT
HETATM    1  C5  UNL     1      21.395   0.954  53.134  1.00  0.00    -0.034 A 
HETATM    2  C6  UNL     1      21.884   2.250  52.926  1.00  0.00     0.104 A 
HETATM    3  N1  UNL     1      23.215   2.214  52.735  1.00  0.00    -0.332 N 
HETATM    4  C7  UNL     1      23.909   3.342  52.512  1.00  0.00     0.096 C 
HETATM    5  C8  UNL     1      24.564   3.741  51.367  1.00  0.00     0.018 C 
HETATM    6  C9  UNL     1      25.005   2.940  50.336  1.00  0.00     0.001 C 
HETATM    7  C10 UNL     1      26.227   2.349  50.319  1.00  0.00     0.001 C 
HETATM    8  C11 UNL     1      26.994   2.459  51.429  1.00  0.00     0.010 C 
HETATM    9  C12 UNL     1      26.896   1.984  52.713  1.00  0.00    -0.025 C 
HETATM   10  C13 UNL     1      26.077   0.950  53.112  1.00  0.00     0.042 C 
HETATM   11  C14 UNL     1      24.876   0.440  52.685  1.00  0.00     0.048 C 
HETATM   12  C15 UNL     1      23.625   0.958  52.808  1.00  0.00     0.045 A 
HETATM   13  C16 UNL     1      22.524   0.169  53.052  1.00  0.00    -0.027 A 
HETATM   14  C17 UNL     1      22.396  -1.321  53.229  1.00  0.00     0.051 C 
HETATM   15  C18 UNL     1      26.851   0.420  54.260  1.00  0.00     0.252 C 
HETATM   16  O2  UNL     1      26.495  -0.577  54.983  1.00  0.00    -0.268 OA
HETATM   17  N2  UNL     1      28.069   1.178  54.459  1.00  0.00    -0.353 N 
HETATM   18  C19 UNL     1      27.642   2.476  53.902  1.00  0.00     0.162 C 
HETATM   19  H18 UNL     1      28.904   0.704  54.907  1.00  0.00     0.163 HD
ENDROOT
BRANCH   1  20
HETATM   20  C4  UNL     1      19.982   0.557  53.384  1.00  0.00     0.047 C 
BRANCH  20  21
HETATM   21  C3  UNL     1      19.319  -0.070  52.202  1.00  0.00     0.068 C 
BRANCH  21  22
HETATM   22  C2  UNL     1      18.176  -0.887  52.742  1.00  0.00     0.034 C 
HETATM   23  C1  UNL     1      16.944  -0.819  52.267  1.00  0.00     0.045 C 
BRANCH  22  24
HETATM   24  O1  UNL     1      18.651  -1.678  53.781  1.00  0.00    -0.366 OA
HETATM   25  H3  UNL     1      18.153  -1.680  54.668  1.00  0.00     0.217 HD
ENDBRANCH  22  24
ENDBRANCH  21  22
ENDBRANCH  20  21
ENDBRANCH   1  20
TORSDOF 4
ENDMDL
MODEL 8
REMARK VINA RESULT:      -7.3      2.664      3.761
REMARK  4 active torsions:
REMARK  status: ('A' for Active; 'I' for Inactive)
REMARK    1  A    between atoms: C2_2  and  O1_3 
REMARK    2  A    between atoms: C2_2  and  C3_4 
REMARK    3  A    between atoms: C3_4  and  C4_5 
REMARK    4  A    between atoms: C4_5  and  C5_6 
ROOT
HETATM    1  C5  UNL     1      23.662   1.264  52.464  1.00  0.00    -0.034 A 
HETATM    2  C6  UNL     1      22.385   1.673  52.060  1.00  0.00     0.104 A 
HETATM    3  N1  UNL     1      22.477   2.447  50.963  1.00  0.00    -0.332 N 
HETATM    4  C7  UNL     1      21.377   2.959  50.388  1.00  0.00     0.096 C 
HETATM    5  C8  UNL     1      20.831   2.669  49.157  1.00  0.00     0.018 C 
HETATM    6  C9  UNL     1      21.469   2.107  48.073  1.00  0.00     0.001 C 
HETATM    7  C10 UNL     1      22.129   2.834  47.135  1.00  0.00     0.001 C 
HETATM    8  C11 UNL     1      22.264   4.164  47.350  1.00  0.00     0.010 C 
HETATM    9  C12 UNL     1      22.946   4.922  48.269  1.00  0.00    -0.025 C 
HETATM   10  C13 UNL     1      23.976   4.463  49.062  1.00  0.00     0.042 C 
HETATM   11  C14 UNL     1      24.323   3.249  49.601  1.00  0.00     0.048 C 
HETATM   12  C15 UNL     1      23.751   2.566  50.627  1.00  0.00     0.045 A 
HETATM   13  C16 UNL     1      24.495   1.846  51.535  1.00  0.00    -0.027 A 
HETATM   14  C17 UNL     1      25.981   1.629  51.643  1.00  0.00     0.051 C 
HETATM   15  C18 UNL     1      24.747   5.716  49.252  1.00  0.00     0.252 C 
HETATM   16  O2  UNL     1      25.828   5.812  49.935  1.00  0.00    -0.268 OA
HETATM   17  N2  UNL     1      24.118   6.823  48.562  1.00  0.00    -0.353 N 
HETATM   18  C19 UNL     1      22.718   6.358  48.580  1.00  0.00     0.162 C 
HETATM   19  H18 UNL     1      24.717   7.631  48.232  1.00  0.00     0.163 HD
ENDROOT
BRANCH   1  20
HETATM   20  C4  UNL     1      24.000   0.400  53.629  1.00  0.00     0.047 C 
BRANCH  20  21
HETATM   21  C3  UNL     1      23.327  -0.932  53.603  1.00  0.00     0.068 C 
BRANCH  21  22
HETATM   22  C2  UNL     1      22.422  -0.973  54.805  1.00  0.00     0.034 C 
HETATM   23  C1  UNL     1      21.265  -0.335  54.866  1.00  0.00     0.045 C 
BRANCH  22  24
HETATM   24  O1  UNL     1      23.015  -1.769  55.777  1.00  0.00    -0.366 OA
HETATM   25  H3  UNL     1      22.960  -1.482  56.752  1.00  0.00     0.217 HD
ENDBRANCH  22  24
ENDBRANCH  21  22
ENDBRANCH  20  21
ENDBRANCH   1  20
TORSDOF 4
ENDMDL
MODEL 9
REMARK VINA RESULT:      -7.3      1.987      2.400
REMARK  4 active torsions:
REMARK  status: ('A' for Active; 'I' for Inactive)
REMARK    1  A    between atoms: C2_2  and  O1_3 
REMARK    2  A    between atoms: C2_2  and  C3_4 
REMARK    3  A    between atoms: C3_4  and  C4_5 
REMARK    4  A    between atoms: C4_5  and  C5_6 
ROOT
HETATM    1  C5  UNL     1      24.851   1.590  52.784  1.00  0.00    -0.034 A 
HETATM    2  C6  UNL     1      23.474   1.707  52.551  1.00  0.00     0.104 A 
HETATM    3  N1  UNL     1      23.259   2.344  51.385  1.00  0.00    -0.332 N 
HETATM    4  C7  UNL     1      22.011   2.572  50.947  1.00  0.00     0.096 C 
HETATM    5  C8  UNL     1      21.369   2.038  49.850  1.00  0.00     0.018 C 
HETATM    6  C9  UNL     1      21.952   1.473  48.736  1.00  0.00     0.001 C 
HETATM    7  C10 UNL     1      22.318   2.187  47.642  1.00  0.00     0.001 C 
HETATM    8  C11 UNL     1      22.215   3.535  47.706  1.00  0.00     0.010 C 
HETATM    9  C12 UNL     1      22.852   4.512  48.430  1.00  0.00    -0.025 C 
HETATM   10  C13 UNL     1      24.051   4.351  49.089  1.00  0.00     0.042 C 
HETATM   11  C14 UNL     1      24.703   3.296  49.678  1.00  0.00     0.048 C 
HETATM   12  C15 UNL     1      24.426   2.651  50.842  1.00  0.00     0.045 A 
HETATM   13  C16 UNL     1      25.415   2.196  51.684  1.00  0.00    -0.027 A 
HETATM   14  C17 UNL     1      26.916   2.268  51.575  1.00  0.00     0.051 C 
HETATM   15  C18 UNL     1      24.577   5.736  49.036  1.00  0.00     0.252 C 
HETATM   16  O2  UNL     1      25.701   6.111  49.527  1.00  0.00    -0.268 OA
HETATM   17  N2  UNL     1      23.652   6.617  48.353  1.00  0.00    -0.353 N 
HETATM   18  C19 UNL     1      22.388   5.910  48.637  1.00  0.00     0.162 C 
HETATM   19  H18 UNL     1      24.027   7.474  47.857  1.00  0.00     0.163 HD
ENDROOT
BRANCH   1  20
HETATM   20  C4  UNL     1      25.511   0.953  53.957  1.00  0.00     0.047 C 
BRANCH  20  21
HETATM   21  C3  UNL     1      25.628  -0.531  53.845  1.00  0.00     0.068 C 
BRANCH  21  22
HETATM   22  C2  UNL     1      27.096  -0.828  53.687  1.00  0.00     0.034 C 
HETATM   23  C1  UNL     1      28.052  -0.048  54.163  1.00  0.00     0.045 C 
BRANCH  22  24
HETATM   24  O1  UNL     1      27.232  -2.017  52.981  1.00  0.00    -0.366 OA
HETATM   25  H3  UNL     1      26.453  -2.348  52.417  1.00  0.00     0.217 HD
ENDBRANCH  22  24
ENDBRANCH  21  22
ENDBRANCH  20  21
ENDBRANCH   1  20
TORSDOF 4
ENDMDL
