MODEL 1
REMARK VINA RESULT:      -7.6      0.000      0.000
REMARK  5 active torsions:
REMARK  status: ('A' for Active; 'I' for Inactive)
REMARK    1  A    between atoms: N1_1  and  C1_2 
REMARK    2  A    between atoms: N3_4  and  C2_5 
REMARK    3  A    between atoms: C11_16  and  C12_17 
REMARK    4  A    between atoms: C12_17  and  C13_18 
REMARK    5  A    between atoms: C13_18  and  C14_19 
ROOT
HETATM    1  C1  UNL     1      23.392   1.422  51.391  1.00  0.00     0.135 C 
HETATM    2  N2  UNL     1      24.438   1.264  52.147  1.00  0.00    -0.157 NA
HETATM    3  N3  UNL     1      24.429   0.121  53.021  1.00  0.00    -0.258 N 
HETATM    4  C8  UNL     1      23.107  -0.051  53.197  1.00  0.00     0.141 C 
HETATM    5  C9  UNL     1      22.293  -0.427  54.103  1.00  0.00     0.027 C 
HETATM    6  C10 UNL     1      20.848  -0.569  54.150  1.00  0.00     0.096 C 
HETATM    7  C11 UNL     1      20.342  -0.172  52.877  1.00  0.00     0.032 C 
HETATM    8  N4  UNL     1      21.197   0.480  51.842  1.00  0.00    -0.406 N 
HETATM    9  C15 UNL     1      22.028   1.099  50.841  1.00  0.00     0.194 C 
HETATM   10  H12 UNL     1      20.634   1.300  52.157  1.00  0.00     0.154 HD
ENDROOT
BRANCH   3  11
HETATM   11  C2  UNL     1      25.826  -0.261  53.144  1.00  0.00     0.092 A 
HETATM   12  C3  UNL     1      26.376  -1.349  52.588  1.00  0.00     0.036 A 
HETATM   13  C4  UNL     1      27.754  -1.482  52.816  1.00  0.00     0.026 A 
HETATM   14  C5  UNL     1      28.523  -0.610  53.531  1.00  0.00     0.037 A 
HETATM   15 CL1  UNL     1      30.228  -0.835  53.774  1.00  0.00    -0.084 Cl
HETATM   16  C6  UNL     1      27.793   0.470  54.043  1.00  0.00     0.068 A 
HETATM   17  C7  UNL     1      26.421   0.762  53.920  1.00  0.00     0.146 A 
HETATM   18  F1  UNL     1      26.068   1.887  54.531  1.00  0.00    -0.204 F 
ENDBRANCH   3  11
BRANCH   1  19
HETATM   19  N1  UNL     1      23.967   2.616  50.811  1.00  0.00    -0.385 N 
HETATM   20  H1  UNL     1      24.137   2.635  49.741  1.00  0.00     0.157 HD
HETATM   21  H2  UNL     1      24.363   3.569  50.802  1.00  0.00     0.157 HD
ENDBRANCH   1  19
BRANCH   7  22
HETATM   22  C12 UNL     1      18.821  -0.205  52.520  1.00  0.00    -0.001 C 
BRANCH  22  23
HETATM   23  C13 UNL     1      18.473  -1.218  53.346  1.00  0.00     0.006 C 
BRANCH  23  24
HETATM   24  C14 UNL     1      17.097  -1.501  52.871  1.00  0.00     0.163 C 
HETATM   25  S1  UNL     1      15.660  -1.560  52.113  1.00  0.00    -0.171 SA
ENDBRANCH  23  24
ENDBRANCH  22  23
ENDBRANCH   7  22
TORSDOF 5
ENDMDL
MODEL 2
REMARK VINA RESULT:      -7.3      5.477      7.979
REMARK  5 active torsions:
REMARK  status: ('A' for Active; 'I' for Inactive)
REMARK    1  A    between atoms: N1_1  and  C1_2 
REMARK    2  A    between atoms: N3_4  and  C2_5 
REMARK    3  A    between atoms: C11_16  and  C12_17 
REMARK    4  A    between atoms: C12_17  and  C13_18 
REMARK    5  A    between atoms: C13_18  and  C14_19 
ROOT
HETATM    1  C1  UNL     1      25.970   2.130  52.867  1.00  0.00     0.135 C 
HETATM    2  N2  UNL     1      24.722   1.941  53.184  1.00  0.00    -0.157 NA
HETATM    3  N3  UNL     1      23.781   1.933  52.096  1.00  0.00    -0.258 N 
HETATM    4  C8  UNL     1      24.416   2.716  51.206  1.00  0.00     0.141 C 
HETATM    5  C9  UNL     1      24.142   3.576  50.307  1.00  0.00     0.027 C 
HETATM    6  C10 UNL     1      24.958   4.361  49.395  1.00  0.00     0.096 C 
HETATM    7  C11 UNL     1      26.321   4.028  49.653  1.00  0.00     0.032 C 
HETATM    8  N4  UNL     1      26.737   3.200  50.823  1.00  0.00    -0.406 N 
HETATM    9  C15 UNL     1      27.133   2.391  51.948  1.00  0.00     0.194 C 
HETATM   10  H12 UNL     1      27.060   4.139  51.140  1.00  0.00     0.154 HD
ENDROOT
BRANCH   3  11
HETATM   11  C2  UNL     1      22.731   1.021  52.522  1.00  0.00     0.092 A 
HETATM   12  C3  UNL     1      22.937  -0.169  53.104  1.00  0.00     0.036 A 
HETATM   13  C4  UNL     1      21.764  -0.848  53.462  1.00  0.00     0.026 A 
HETATM   14  C5  UNL     1      20.494  -0.388  53.266  1.00  0.00     0.037 A 
HETATM   15 CL1  UNL     1      19.082  -1.284  53.737  1.00  0.00    -0.084 Cl
HETATM   16  C6  UNL     1      20.457   0.868  52.647  1.00  0.00     0.068 A 
HETATM   17  C7  UNL     1      21.520   1.687  52.219  1.00  0.00     0.146 A 
HETATM   18  F1  UNL     1      21.114   2.829  51.678  1.00  0.00    -0.204 F 
ENDBRANCH   3  11
BRANCH   1  19
HETATM   19  N1  UNL     1      26.359   2.030  54.256  1.00  0.00    -0.385 N 
HETATM   20  H1  UNL     1      25.626   1.667  54.968  1.00  0.00     0.157 HD
HETATM   21  H2  UNL     1      26.983   2.112  55.073  1.00  0.00     0.157 HD
ENDBRANCH   1  19
BRANCH   7  22
HETATM   22  C12 UNL     1      27.512   4.649  48.855  1.00  0.00    -0.001 C 
BRANCH  22  23
HETATM   23  C13 UNL     1      26.941   5.848  48.598  1.00  0.00     0.006 C 
BRANCH  23  24
HETATM   24  C14 UNL     1      28.134   6.649  48.234  1.00  0.00     0.163 C 
HETATM   25  S1  UNL     1      29.612   7.297  48.039  1.00  0.00    -0.171 SA
ENDBRANCH  23  24
ENDBRANCH  22  23
ENDBRANCH   7  22
TORSDOF 5
ENDMDL
MODEL 3
REMARK VINA RESULT:      -7.3      1.263      1.621
REMARK  5 active torsions:
REMARK  status: ('A' for Active; 'I' for Inactive)
REMARK    1  A    between atoms: N1_1  and  C1_2 
REMARK    2  A    between atoms: N3_4  and  C2_5 
REMARK    3  A    between atoms: C11_16  and  C12_17 
REMARK    4  A    between atoms: C12_17  and  C13_18 
REMARK    5  A    between atoms: C13_18  and  C14_19 
ROOT
HETATM    1  C1  UNL     1      23.500   2.559  52.438  1.00  0.00     0.135 C 
HETATM    2  N2  UNL     1      24.543   2.217  53.137  1.00  0.00    -0.157 NA
HETATM    3  N3  UNL     1      24.696   0.813  53.411  1.00  0.00    -0.258 N 
HETATM    4  C8  UNL     1      23.414   0.406  53.373  1.00  0.00     0.141 C 
HETATM    5  C9  UNL     1      22.652  -0.441  53.943  1.00  0.00     0.027 C 
HETATM    6  C10 UNL     1      21.247  -0.779  53.792  1.00  0.00     0.096 C 
HETATM    7  C11 UNL     1      20.711   0.079  52.786  1.00  0.00     0.032 C 
HETATM    8  N4  UNL     1      21.473   1.234  52.227  1.00  0.00    -0.406 N 
HETATM    9  C15 UNL     1      22.217   2.341  51.683  1.00  0.00     0.194 C 
HETATM   10  H12 UNL     1      20.781   1.742  52.820  1.00  0.00     0.154 HD
ENDROOT
BRANCH   3  11
HETATM   11  C2  UNL     1      26.134   0.604  53.477  1.00  0.00     0.092 A 
HETATM   12  C3  UNL     1      27.019   1.502  53.930  1.00  0.00     0.036 A 
HETATM   13  C4  UNL     1      28.348   1.052  53.935  1.00  0.00     0.026 A 
HETATM   14  C5  UNL     1      28.765  -0.183  53.529  1.00  0.00     0.037 A 
HETATM   15 CL1  UNL     1      30.430  -0.675  53.563  1.00  0.00    -0.084 Cl
HETATM   16  C6  UNL     1      27.714  -0.996  53.085  1.00  0.00     0.068 A 
HETATM   17  C7  UNL     1      26.336  -0.715  53.007  1.00  0.00     0.146 A 
HETATM   18  F1  UNL     1      25.620  -1.733  52.544  1.00  0.00    -0.204 F 
ENDBRANCH   3  11
BRANCH   1  19
HETATM   19  N1  UNL     1      23.891   3.950  52.500  1.00  0.00    -0.385 N 
HETATM   20  H1  UNL     1      23.500   4.626  51.747  1.00  0.00     0.157 HD
HETATM   21  H2  UNL     1      24.378   4.782  52.868  1.00  0.00     0.157 HD
ENDBRANCH   1  19
BRANCH   7  22
HETATM   22  C12 UNL     1      19.222   0.009  52.316  1.00  0.00    -0.001 C 
BRANCH  22  23
HETATM   23  C13 UNL     1      18.810  -0.938  53.189  1.00  0.00     0.006 C 
BRANCH  23  24
HETATM   24  C14 UNL     1      17.394  -1.093  52.779  1.00  0.00     0.163 C 
HETATM   25  S1  UNL     1      15.936  -1.056  52.062  1.00  0.00    -0.171 SA
ENDBRANCH  23  24
ENDBRANCH  22  23
ENDBRANCH   7  22
TORSDOF 5
ENDMDL
MODEL 4
REMARK VINA RESULT:      -7.2      2.389      2.832
REMARK  5 active torsions:
REMARK  status: ('A' for Active; 'I' for Inactive)
REMARK    1  A    between atoms: N1_1  and  C1_2 
REMARK    2  A    between atoms: N3_4  and  C2_5 
REMARK    3  A    between atoms: C11_16  and  C12_17 
REMARK    4  A    between atoms: C12_17  and  C13_18 
REMARK    5  A    between atoms: C13_18  and  C14_19 
ROOT
HETATM    1  C1  UNL     1      23.601   3.606  52.798  1.00  0.00     0.135 C 
HETATM    2  N2  UNL     1      24.568   2.974  53.395  1.00  0.00    -0.157 NA
HETATM    3  N3  UNL     1      24.594   1.545  53.230  1.00  0.00    -0.258 N 
HETATM    4  C8  UNL     1      23.290   1.289  53.024  1.00  0.00     0.141 C 
HETATM    5  C9  UNL     1      22.430   0.384  53.279  1.00  0.00     0.027 C 
HETATM    6  C10 UNL     1      21.015   0.240  52.981  1.00  0.00     0.096 C 
HETATM    7  C11 UNL     1      20.611   1.408  52.268  1.00  0.00     0.032 C 
HETATM    8  N4  UNL     1      21.494   2.602  52.118  1.00  0.00    -0.406 N 
HETATM    9  C15 UNL     1      22.354   3.747  51.966  1.00  0.00     0.194 C 
HETATM   10  H12 UNL     1      20.808   2.968  52.813  1.00  0.00     0.154 HD
ENDROOT
BRANCH   3  11
HETATM   11  C2  UNL     1      26.005   1.193  53.281  1.00  0.00     0.092 A 
HETATM   12  C3  UNL     1      27.006   2.062  53.473  1.00  0.00     0.036 A 
HETATM   13  C4  UNL     1      28.279   1.476  53.525  1.00  0.00     0.026 A 
HETATM   14  C5  UNL     1      28.539   0.141  53.401  1.00  0.00     0.037 A 
HETATM   15 CL1  UNL     1      30.144  -0.519  53.477  1.00  0.00    -0.084 Cl
HETATM   16  C6  UNL     1      27.383  -0.625  53.206  1.00  0.00     0.068 A 
HETATM   17  C7  UNL     1      26.039  -0.213  53.124  1.00  0.00     0.146 A 
HETATM   18  F1  UNL     1      25.193  -1.220  52.943  1.00  0.00    -0.204 F 
ENDBRANCH   3  11
BRANCH   1  19
HETATM   19  N1  UNL     1      24.093   4.871  53.297  1.00  0.00    -0.385 N 
HETATM   20  H1  UNL     1      23.908   5.119  54.336  1.00  0.00     0.157 HD
HETATM   21  H2  UNL     1      24.564   5.788  53.254  1.00  0.00     0.157 HD
ENDBRANCH   1  19
BRANCH   7  22
HETATM   22  C12 UNL     1      19.154   1.622  51.746  1.00  0.00    -0.001 C 
BRANCH  22  23
HETATM   23  C13 UNL     1      19.187   0.697  50.760  1.00  0.00     0.006 C 
BRANCH  23  24
HETATM   24  C14 UNL     1      19.395   1.564  49.576  1.00  0.00     0.163 C 
HETATM   25  S1  UNL     1      19.719   2.753  48.516  1.00  0.00    -0.171 SA
ENDBRANCH  23  24
ENDBRANCH  22  23
ENDBRANCH   7  22
TORSDOF 5
ENDMDL
MODEL 5
REMARK VINA RESULT:      -7.0      1.586      2.636
REMARK  5 active torsions:
REMARK  status: ('A' for Active; 'I' for Inactive)
REMARK    1  A    between atoms: N1_1  and  C1_2 
REMARK    2  A    between atoms: N3_4  and  C2_5 
REMARK    3  A    between atoms: C11_16  and  C12_17 
REMARK    4  A    between atoms: C12_17  and  C13_18 
REMARK    5  A    between atoms: C13_18  and  C14_19 
ROOT
HETATM    1  C1  UNL     1      22.097  -0.439  54.249  1.00  0.00     0.135 C 
HETATM    2  N2  UNL     1      23.319  -0.608  53.837  1.00  0.00    -0.157 NA
HETATM    3  N3  UNL     1      23.785   0.304  52.826  1.00  0.00    -0.258 N 
HETATM    4  C8  UNL     1      22.626   0.628  52.225  1.00  0.00     0.141 C 
HETATM    5  C9  UNL     1      22.186   0.914  51.064  1.00  0.00     0.027 C 
HETATM    6  C10 UNL     1      20.870   1.256  50.552  1.00  0.00     0.096 C 
HETATM    7  C11 UNL     1      19.966   1.228  51.655  1.00  0.00     0.032 C 
HETATM    8  N4  UNL     1      20.352   0.698  52.996  1.00  0.00    -0.406 N 
HETATM    9  C15 UNL     1      20.734   0.196  54.291  1.00  0.00     0.194 C 
HETATM   10  H12 UNL     1      19.740  -0.077  52.663  1.00  0.00     0.154 HD
ENDROOT
BRANCH   3  11
HETATM   11  C2  UNL     1      25.211   0.437  53.076  1.00  0.00     0.092 A 
HETATM   12  C3  UNL     1      26.112  -0.543  52.921  1.00  0.00     0.036 A 
HETATM   13  C4  UNL     1      27.435  -0.159  53.185  1.00  0.00     0.026 A 
HETATM   14  C5  UNL     1      27.833   1.090  53.568  1.00  0.00     0.037 A 
HETATM   15 CL1  UNL     1      29.493   1.497  53.879  1.00  0.00    -0.084 Cl
HETATM   16  C6  UNL     1      26.768   1.991  53.684  1.00  0.00     0.068 A 
HETATM   17  C7  UNL     1      25.392   1.785  53.465  1.00  0.00     0.146 A 
HETATM   18  F1  UNL     1      24.662   2.877  53.660  1.00  0.00    -0.204 F 
ENDBRANCH   3  11
BRANCH   1  19
HETATM   19  N1  UNL     1      22.233  -1.549  55.167  1.00  0.00    -0.385 N 
HETATM   20  H1  UNL     1      21.391  -2.222  55.284  1.00  0.00     0.157 HD
HETATM   21  H2  UNL     1      22.700  -2.152  55.862  1.00  0.00     0.157 HD
ENDBRANCH   1  19
BRANCH   7  22
HETATM   22  C12 UNL     1      18.446   1.565  51.516  1.00  0.00    -0.001 C 
BRANCH  22  23
HETATM   23  C13 UNL     1      18.132   0.585  50.639  1.00  0.00     0.006 C 
BRANCH  23  24
HETATM   24  C14 UNL     1      17.548  -0.426  51.553  1.00  0.00     0.163 C 
HETATM   25  S1  UNL     1      17.061  -1.340  52.806  1.00  0.00    -0.171 SA
ENDBRANCH  23  24
ENDBRANCH  22  23
ENDBRANCH   7  22
TORSDOF 5
ENDMDL
MODEL 6
REMARK VINA RESULT:      -6.9      4.794      7.752
REMARK  5 active torsions:
REMARK  status: ('A' for Active; 'I' for Inactive)
REMARK    1  A    between atoms: N1_1  and  C1_2 
REMARK    2  A    between atoms: N3_4  and  C2_5 
REMARK    3  A    between atoms: C11_16  and  C12_17 
REMARK    4  A    between atoms: C12_17  and  C13_18 
REMARK    5  A    between atoms: C13_18  and  C14_19 
ROOT
HETATM    1  C1  UNL     1      22.236   1.331  50.542  1.00  0.00     0.135 C 
HETATM    2  N2  UNL     1      21.196   0.556  50.648  1.00  0.00    -0.157 NA
HETATM    3  N3  UNL     1      20.902   0.058  51.965  1.00  0.00    -0.258 N 
HETATM    4  C8  UNL     1      22.128   0.068  52.519  1.00  0.00     0.141 C 
HETATM    5  C9  UNL     1      22.818  -0.606  53.351  1.00  0.00     0.027 C 
HETATM    6  C10 UNL     1      24.168  -0.469  53.869  1.00  0.00     0.096 C 
HETATM    7  C11 UNL     1      24.747   0.676  53.246  1.00  0.00     0.032 C 
HETATM    8  N4  UNL     1      24.092   1.389  52.110  1.00  0.00    -0.406 N 
HETATM    9  C15 UNL     1      23.449   2.080  51.022  1.00  0.00     0.194 C 
HETATM   10  H12 UNL     1      24.863   0.905  51.601  1.00  0.00     0.154 HD
ENDROOT
BRANCH   3  11
HETATM   11  C2  UNL     1      19.455  -0.084  51.992  1.00  0.00     0.092 A 
HETATM   12  C3  UNL     1      18.612   0.476  51.113  1.00  0.00     0.036 A 
HETATM   13  C4  UNL     1      17.262   0.158  51.323  1.00  0.00     0.026 A 
HETATM   14  C5  UNL     1      16.787  -0.648  52.317  1.00  0.00     0.037 A 
HETATM   15 CL1  UNL     1      15.098  -1.001  52.518  1.00  0.00    -0.084 Cl
HETATM   16  C6  UNL     1      17.799  -1.149  53.146  1.00  0.00     0.068 A 
HETATM   17  C7  UNL     1      19.190  -0.938  53.089  1.00  0.00     0.146 A 
HETATM   18  F1  UNL     1      19.857  -1.585  54.037  1.00  0.00    -0.204 F 
ENDBRANCH   3  11
BRANCH   1  19
HETATM   19  N1  UNL     1      22.004   1.480  49.121  1.00  0.00    -0.385 N 
HETATM   20  H1  UNL     1      22.765   1.118  48.438  1.00  0.00     0.157 HD
HETATM   21  H2  UNL     1      21.496   1.760  48.269  1.00  0.00     0.157 HD
ENDBRANCH   1  19
BRANCH   7  22
HETATM   22  C12 UNL     1      26.195   1.174  53.561  1.00  0.00    -0.001 C 
BRANCH  22  23
HETATM   23  C13 UNL     1      26.413   0.394  54.644  1.00  0.00     0.006 C 
BRANCH  23  24
HETATM   24  C14 UNL     1      27.833   0.022  54.434  1.00  0.00     0.163 C 
HETATM   25  S1  UNL     1      29.341  -0.242  53.887  1.00  0.00    -0.171 SA
ENDBRANCH  23  24
ENDBRANCH  22  23
ENDBRANCH   7  22
TORSDOF 5
ENDMDL
MODEL 7
REMARK VINA RESULT:      -6.9      5.889      8.330
REMARK  5 active torsions:
REMARK  status: ('A' for Active; 'I' for Inactive)
REMARK    1  A    between atoms: N1_1  and  C1_2 
REMARK    2  A    between atoms: N3_4  and  C2_5 
REMARK    3  A    between atoms: C11_16  and  C12_17 
REMARK    4  A    between atoms: C12_17  and  C13_18 
REMARK    5  A    between atoms: C13_18  and  C14_19 
ROOT
HETATM    1  C1  UNL     1      22.925   4.400  48.870  1.00  0.00     0.135 C 
HETATM    2  N2  UNL     1      22.772   3.166  49.252  1.00  0.00    -0.157 NA
HETATM    3  N3  UNL     1      23.795   2.632  50.112  1.00  0.00    -0.258 N 
HETATM    4  C8  UNL     1      24.851   3.377  49.743  1.00  0.00     0.141 C 
HETATM    5  C9  UNL     1      26.113   3.264  49.603  1.00  0.00     0.027 C 
HETATM    6  C10 UNL     1      27.157   4.184  49.186  1.00  0.00     0.096 C 
HETATM    7  C11 UNL     1      26.529   5.431  48.890  1.00  0.00     0.032 C 
HETATM    8  N4  UNL     1      25.046   5.586  48.821  1.00  0.00    -0.406 N 
HETATM    9  C15 UNL     1      23.614   5.734  48.766  1.00  0.00     0.194 C 
HETATM   10  H12 UNL     1      25.282   5.632  47.806  1.00  0.00     0.154 HD
ENDROOT
BRANCH   3  11
HETATM   11  C2  UNL     1      23.104   1.667  50.954  1.00  0.00     0.092 A 
HETATM   12  C3  UNL     1      21.939   1.079  50.649  1.00  0.00     0.036 A 
HETATM   13  C4  UNL     1      21.492   0.152  51.602  1.00  0.00     0.026 A 
HETATM   14  C5  UNL     1      22.145  -0.168  52.758  1.00  0.00     0.037 A 
HETATM   15 CL1  UNL     1      21.533  -1.329  53.896  1.00  0.00    -0.084 Cl
HETATM   16  C6  UNL     1      23.344   0.537  52.922  1.00  0.00     0.068 A 
HETATM   17  C7  UNL     1      23.941   1.496  52.081  1.00  0.00     0.146 A 
HETATM   18  F1  UNL     1      25.095   1.956  52.549  1.00  0.00    -0.204 F 
ENDBRANCH   3  11
BRANCH   1  19
HETATM   19  N1  UNL     1      21.693   4.340  48.115  1.00  0.00    -0.385 N 
HETATM   20  H1  UNL     1      21.489   5.132  47.404  1.00  0.00     0.157 HD
HETATM   21  H2  UNL     1      20.783   3.955  47.816  1.00  0.00     0.157 HD
ENDBRANCH   1  19
BRANCH   7  22
HETATM   22  C12 UNL     1      27.325   6.694  48.427  1.00  0.00    -0.001 C 
BRANCH  22  23
HETATM   23  C13 UNL     1      28.486   6.066  48.132  1.00  0.00     0.006 C 
BRANCH  23  24
HETATM   24  C14 UNL     1      29.450   7.183  48.286  1.00  0.00     0.163 C 
HETATM   25  S1  UNL     1      30.283   8.578  48.242  1.00  0.00    -0.171 SA
ENDBRANCH  23  24
ENDBRANCH  22  23
ENDBRANCH   7  22
TORSDOF 5
ENDMDL
MODEL 8
REMARK VINA RESULT:      -6.8      6.154      7.688
REMARK  5 active torsions:
REMARK  status: ('A' for Active; 'I' for Inactive)
REMARK    1  A    between atoms: N1_1  and  C1_2 
REMARK    2  A    between atoms: N3_4  and  C2_5 
REMARK    3  A    between atoms: C11_16  and  C12_17 
REMARK    4  A    between atoms: C12_17  and  C13_18 
REMARK    5  A    between atoms: C13_18  and  C14_19 
ROOT
HETATM    1  C1  UNL     1      24.334   6.443  50.939  1.00  0.00     0.135 C 
HETATM    2  N2  UNL     1      25.412   6.864  50.346  1.00  0.00    -0.157 NA
HETATM    3  N3  UNL     1      26.087   5.916  49.500  1.00  0.00    -0.258 N 
HETATM    4  C8  UNL     1      25.723   4.757  50.076  1.00  0.00     0.141 C 
HETATM    5  C9  UNL     1      26.201   3.598  50.303  1.00  0.00     0.027 C 
HETATM    6  C10 UNL     1      25.674   2.411  50.954  1.00  0.00     0.096 C 
HETATM    7  C11 UNL     1      24.355   2.722  51.399  1.00  0.00     0.032 C 
HETATM    8  N4  UNL     1      23.803   4.109  51.366  1.00  0.00    -0.406 N 
HETATM    9  C15 UNL     1      23.272   5.447  51.322  1.00  0.00     0.194 C 
HETATM   10  H12 UNL     1      23.964   4.001  52.391  1.00  0.00     0.154 HD
ENDROOT
BRANCH   3  11
HETATM   11  C2  UNL     1      26.696   6.723  48.454  1.00  0.00     0.092 A 
HETATM   12  C3  UNL     1      26.103   7.753  47.836  1.00  0.00     0.036 A 
HETATM   13  C4  UNL     1      26.910   8.403  46.890  1.00  0.00     0.026 A 
HETATM   14  C5  UNL     1      28.197   8.063  46.584  1.00  0.00     0.037 A 
HETATM   15 CL1  UNL     1      29.141   8.914  45.400  1.00  0.00    -0.084 Cl
HETATM   16  C6  UNL     1      28.662   6.966  47.320  1.00  0.00     0.068 A 
HETATM   17  C7  UNL     1      28.000   6.197  48.296  1.00  0.00     0.146 A 
HETATM   18  F1  UNL     1      28.756   5.229  48.800  1.00  0.00    -0.204 F 
ENDBRANCH   3  11
BRANCH   1  19
HETATM   19  N1  UNL     1      24.151   7.734  51.566  1.00  0.00    -0.385 N 
HETATM   20  H1  UNL     1      23.477   8.440  51.095  1.00  0.00     0.157 HD
HETATM   21  H2  UNL     1      24.296   8.474  52.269  1.00  0.00     0.157 HD
ENDBRANCH   1  19
BRANCH   7  22
HETATM   22  C12 UNL     1      23.439   1.689  52.131  1.00  0.00    -0.001 C 
BRANCH  22  23
HETATM   23  C13 UNL     1      24.415   0.832  52.509  1.00  0.00     0.006 C 
BRANCH  23  24
HETATM   24  C14 UNL     1      23.640  -0.117  53.345  1.00  0.00     0.163 C 
HETATM   25  S1  UNL     1      22.595  -0.873  54.333  1.00  0.00    -0.171 SA
ENDBRANCH  23  24
ENDBRANCH  22  23
ENDBRANCH   7  22
TORSDOF 5
ENDMDL
MODEL 9
REMARK VINA RESULT:      -6.7      8.720     10.304
REMARK  5 active torsions:
REMARK  status: ('A' for Active; 'I' for Inactive)
REMARK    1  A    between atoms: N1_1  and  C1_2 
REMARK    2  A    between atoms: N3_4  and  C2_5 
REMARK    3  A    between atoms: C11_16  and  C12_17 
REMARK    4  A    between atoms: C12_17  and  C13_18 
REMARK    5  A    between atoms: C13_18  and  C14_19 
ROOT
HETATM    1  C1  UNL     1      30.202   8.111  49.092  1.00  0.00     0.135 C 
HETATM    2  N2  UNL     1      31.103   7.202  48.864  1.00  0.00    -0.157 NA
HETATM    3  N3  UNL     1      30.695   6.090  48.046  1.00  0.00    -0.258 N 
HETATM    4  C8  UNL     1      29.374   6.063  48.297  1.00  0.00     0.141 C 
HETATM    5  C9  UNL     1      28.430   5.215  48.416  1.00  0.00     0.027 C 
HETATM    6  C10 UNL     1      27.009   5.337  48.693  1.00  0.00     0.096 C 
HETATM    7  C11 UNL     1      26.727   6.725  48.856  1.00  0.00     0.032 C 
HETATM    8  N4  UNL     1      27.801   7.758  48.945  1.00  0.00    -0.406 N 
HETATM    9  C15 UNL     1      28.842   8.752  49.019  1.00  0.00     0.194 C 
HETATM   10  H12 UNL     1      27.492   7.729  49.941  1.00  0.00     0.154 HD
ENDROOT
BRANCH   3  11
HETATM   11  C2  UNL     1      31.903   5.685  47.344  1.00  0.00     0.092 A 
HETATM   12  C3  UNL     1      32.973   6.467  47.145  1.00  0.00     0.036 A 
HETATM   13  C4  UNL     1      34.033   5.837  46.476  1.00  0.00     0.026 A 
HETATM   14  C5  UNL     1      34.034   4.541  46.043  1.00  0.00     0.037 A 
HETATM   15 CL1  UNL     1      35.384   3.824  45.219  1.00  0.00    -0.084 Cl
HETATM   16  C6  UNL     1      32.840   3.868  46.330  1.00  0.00     0.068 A 
HETATM   17  C7  UNL     1      31.683   4.335  46.983  1.00  0.00     0.146 A 
HETATM   18  F1  UNL     1      30.736   3.411  47.093  1.00  0.00    -0.204 F 
ENDBRANCH   3  11
BRANCH   1  19
HETATM   19  N1  UNL     1      31.144   8.875  49.881  1.00  0.00    -0.385 N 
HETATM   20  H1  UNL     1      31.117   8.764  50.959  1.00  0.00     0.157 HD
HETATM   21  H2  UNL     1      31.911   9.542  50.056  1.00  0.00     0.157 HD
ENDBRANCH   1  19
BRANCH   7  22
HETATM   22  C12 UNL     1      25.291   7.272  49.145  1.00  0.00    -0.001 C 
BRANCH  22  23
HETATM   23  C13 UNL     1      25.320   7.126  50.489  1.00  0.00     0.006 C 
BRANCH  23  24
HETATM   24  C14 UNL     1      23.931   6.675  50.746  1.00  0.00     0.163 C 
HETATM   25  S1  UNL     1      22.322   6.466  50.843  1.00  0.00    -0.171 SA
ENDBRANCH  23  24
ENDBRANCH  22  23
ENDBRANCH   7  22
TORSDOF 5
ENDMDL
