MODEL 1
REMARK VINA RESULT:      -8.1      0.000      0.000
REMARK  5 active torsions:
REMARK  status: ('A' for Active; 'I' for Inactive)
REMARK    1  A    between atoms: N1_5  and  C5_6 
REMARK    2  A    between atoms: C8_10  and  N3_11 
REMARK    3  A    between atoms: N3_11  and  C9_12 
REMARK    4  A    between atoms: N4_16  and  C13_17 
REMARK    5  A    between atoms: C17_22  and  N5_23 
ROOT
HETATM    1  C5  UNL     1      20.419   0.283  51.885  1.00  0.00     0.111 A 
HETATM    2  N2  UNL     1      20.606  -0.316  53.000  1.00  0.00    -0.247 NA
HETATM    3  C6  UNL     1      21.862  -0.298  53.633  1.00  0.00     0.121 A 
HETATM    4  C7  UNL     1      23.122  -0.091  53.948  1.00  0.00     0.048 A 
HETATM    5  C8  UNL     1      24.052   0.676  53.138  1.00  0.00     0.030 A 
HETATM    6  C15 UNL     1      23.642   1.203  52.027  1.00  0.00     0.031 A 
HETATM    7  C16 UNL     1      23.116   1.753  50.812  1.00  0.00     0.027 A 
HETATM    8  C17 UNL     1      21.860   1.581  50.437  1.00  0.00     0.009 A 
HETATM    9  C18 UNL     1      20.496   1.050  50.623  1.00  0.00     0.135 A 
ENDROOT
BRANCH   5  10
HETATM   10  N3  UNL     1      25.281   0.632  53.857  1.00  0.00    -0.379 N 
HETATM   11  H9  UNL     1      25.304   0.880  54.887  1.00  0.00     0.160 HD
BRANCH  10  12
HETATM   12  C9  UNL     1      26.552   0.252  53.275  1.00  0.00     0.044 C 
HETATM   13  C10 UNL     1      26.461  -0.945  52.374  1.00  0.00     0.040 C 
HETATM   14  C11 UNL     1      27.128   1.386  52.450  1.00  0.00     0.052 C 
HETATM   15  C12 UNL     1      28.360   1.758  53.244  1.00  0.00     0.127 C 
HETATM   16  N4  UNL     1      28.838   0.471  53.709  1.00  0.00    -0.357 N 
HETATM   17  C14 UNL     1      27.598   0.053  54.323  1.00  0.00     0.155 C 
BRANCH  16  18
HETATM   18  C13 UNL     1      30.108  -0.157  53.596  1.00  0.00     0.350 C 
HETATM   19  O1  UNL     1      30.146  -1.395  53.794  1.00  0.00    -0.284 OA
ENDBRANCH  16  18
ENDBRANCH  10  12
ENDBRANCH   5  10
BRANCH   8  20
HETATM   20  N5  UNL     1      21.680   2.272  49.169  1.00  0.00    -0.402 N 
HETATM   21  H22 UNL     1      21.822   2.740  48.249  1.00  0.00     0.156 HD
HETATM   22  H23 UNL     1      20.915   2.667  48.598  1.00  0.00     0.156 HD
ENDBRANCH   8  20
BRANCH   1  23
HETATM   23  N1  UNL     1      19.044  -0.174  51.932  1.00  0.00    -0.341 N 
HETATM   24  C4  UNL     1      18.191   0.185  50.798  1.00  0.00     0.157 A 
HETATM   25  C3  UNL     1      16.845  -0.409  50.946  1.00  0.00    -0.000 A 
HETATM   26  C2  UNL     1      16.368  -1.127  51.925  1.00  0.00    -0.063 A 
HETATM   27  C1  UNL     1      15.003  -1.705  52.037  1.00  0.00     0.048 C 
HETATM   28  C20 UNL     1      17.270  -1.417  53.031  1.00  0.00     0.024 A 
HETATM   29  C19 UNL     1      18.535  -0.959  53.025  1.00  0.00     0.093 A 
ENDBRANCH   1  23
TORSDOF 5
ENDMDL
MODEL 2
REMARK VINA RESULT:      -8.1      4.682      8.794
REMARK  5 active torsions:
REMARK  status: ('A' for Active; 'I' for Inactive)
REMARK    1  A    between atoms: N1_5  and  C5_6 
REMARK    2  A    between atoms: C8_10  and  N3_11 
REMARK    3  A    between atoms: N3_11  and  C9_12 
REMARK    4  A    between atoms: N4_16  and  C13_17 
REMARK    5  A    between atoms: C17_22  and  N5_23 
ROOT
HETATM    1  C5  UNL     1      25.040   4.971  50.408  1.00  0.00     0.111 A 
HETATM    2  N2  UNL     1      25.701   3.876  50.456  1.00  0.00    -0.247 NA
HETATM    3  C6  UNL     1      25.217   2.766  51.171  1.00  0.00     0.121 A 
HETATM    4  C7  UNL     1      24.501   1.944  51.906  1.00  0.00     0.048 A 
HETATM    5  C8  UNL     1      23.225   2.285  52.510  1.00  0.00     0.030 A 
HETATM    6  C15 UNL     1      22.735   3.472  52.328  1.00  0.00     0.031 A 
HETATM    7  C16 UNL     1      22.257   4.801  52.084  1.00  0.00     0.027 A 
HETATM    8  C17 UNL     1      22.928   5.677  51.356  1.00  0.00     0.009 A 
HETATM    9  C18 UNL     1      24.077   6.088  50.528  1.00  0.00     0.135 A 
ENDROOT
BRANCH   5  10
HETATM   10  N3  UNL     1      22.826   1.109  53.205  1.00  0.00    -0.379 N 
HETATM   11  H9  UNL     1      23.325   0.822  54.095  1.00  0.00     0.160 HD
BRANCH  10  12
HETATM   12  C9  UNL     1      21.745   0.240  52.784  1.00  0.00     0.044 C 
HETATM   13  C10 UNL     1      21.531   0.233  51.298  1.00  0.00     0.040 C 
HETATM   14  C11 UNL     1      22.012  -1.193  53.201  1.00  0.00     0.052 C 
HETATM   15  C12 UNL     1      20.917  -1.432  54.217  1.00  0.00     0.127 C 
HETATM   16  N4  UNL     1      19.795  -0.712  53.651  1.00  0.00    -0.357 N 
HETATM   17  C14 UNL     1      20.476   0.555  53.506  1.00  0.00     0.155 C 
BRANCH  16  18
HETATM   18  C13 UNL     1      18.469  -1.125  53.347  1.00  0.00     0.350 C 
HETATM   19  O1  UNL     1      18.189  -2.329  53.557  1.00  0.00    -0.284 OA
ENDBRANCH  16  18
ENDBRANCH  10  12
ENDBRANCH   5  10
BRANCH   8  20
HETATM   20  N5  UNL     1      22.152   6.907  51.320  1.00  0.00    -0.402 N 
HETATM   21  H22 UNL     1      21.622   7.754  51.025  1.00  0.00     0.156 HD
HETATM   22  H23 UNL     1      21.720   7.576  51.979  1.00  0.00     0.156 HD
ENDBRANCH   8  20
BRANCH   1  23
HETATM   23  N1  UNL     1      26.103   5.514  49.583  1.00  0.00    -0.341 N 
HETATM   24  C4  UNL     1      26.044   6.946  49.291  1.00  0.00     0.157 A 
HETATM   25  C3  UNL     1      27.225   7.370  48.508  1.00  0.00    -0.000 A 
HETATM   26  C2  UNL     1      28.210   6.647  48.054  1.00  0.00    -0.063 A 
HETATM   27  C1  UNL     1      29.381   7.113  47.266  1.00  0.00     0.048 C 
HETATM   28  C20 UNL     1      28.182   5.224  48.362  1.00  0.00     0.024 A 
HETATM   29  C19 UNL     1      27.178   4.697  49.086  1.00  0.00     0.093 A 
ENDBRANCH   1  23
TORSDOF 5
ENDMDL
MODEL 3
REMARK VINA RESULT:      -7.9      3.626      8.947
REMARK  5 active torsions:
REMARK  status: ('A' for Active; 'I' for Inactive)
REMARK    1  A    between atoms: N1_5  and  C5_6 
REMARK    2  A    between atoms: C8_10  and  N3_11 
REMARK    3  A    between atoms: N3_11  and  C9_12 
REMARK    4  A    between atoms: N4_16  and  C13_17 
REMARK    5  A    between atoms: C17_22  and  N5_23 
ROOT
HETATM    1  C5  UNL     1      23.461   0.543  52.650  1.00  0.00     0.111 A 
HETATM    2  N2  UNL     1      23.718   1.180  51.571  1.00  0.00    -0.247 NA
HETATM    3  C6  UNL     1      22.709   1.451  50.630  1.00  0.00     0.121 A 
HETATM    4  C7  UNL     1      21.568   1.537  49.981  1.00  0.00     0.048 A 
HETATM    5  C8  UNL     1      20.310   0.991  50.461  1.00  0.00     0.030 A 
HETATM    6  C15 UNL     1      20.280   0.373  51.601  1.00  0.00     0.031 A 
HETATM    7  C16 UNL     1      20.325  -0.296  52.867  1.00  0.00     0.027 A 
HETATM    8  C17 UNL     1      21.439  -0.418  53.569  1.00  0.00     0.009 A 
HETATM    9  C18 UNL     1      22.881  -0.201  53.790  1.00  0.00     0.135 A 
ENDROOT
BRANCH   5  10
HETATM   10  N3  UNL     1      19.364   1.313  49.447  1.00  0.00    -0.379 N 
HETATM   11  H9  UNL     1      19.489   0.936  48.464  1.00  0.00     0.160 HD
BRANCH  10  12
HETATM   12  C9  UNL     1      18.193   2.140  49.657  1.00  0.00     0.044 C 
HETATM   13  C10 UNL     1      17.762   2.886  48.428  1.00  0.00     0.040 C 
HETATM   14  C11 UNL     1      17.013   1.300  50.103  1.00  0.00     0.052 C 
HETATM   15  C12 UNL     1      16.793   1.794  51.516  1.00  0.00     0.127 C 
HETATM   16  N4  UNL     1      17.069   3.211  51.404  1.00  0.00    -0.357 N 
HETATM   17  C14 UNL     1      18.380   3.072  50.810  1.00  0.00     0.155 C 
BRANCH  16  18
HETATM   18  C13 UNL     1      16.300   4.351  51.764  1.00  0.00     0.350 C 
HETATM   19  O1  UNL     1      15.930   4.427  52.960  1.00  0.00    -0.284 OA
ENDBRANCH  16  18
ENDBRANCH  10  12
ENDBRANCH   5  10
BRANCH   8  20
HETATM   20  N5  UNL     1      21.115  -1.144  54.788  1.00  0.00    -0.402 N 
HETATM   21  H22 UNL     1      20.877  -1.412  55.767  1.00  0.00     0.156 HD
HETATM   22  H23 UNL     1      20.971  -2.118  55.101  1.00  0.00     0.156 HD
ENDBRANCH   8  20
BRANCH   1  23
HETATM   23  N1  UNL     1      24.863   0.677  52.999  1.00  0.00    -0.341 N 
HETATM   24  C4  UNL     1      25.340   2.026  53.304  1.00  0.00     0.157 A 
HETATM   25  C3  UNL     1      26.761   2.000  53.713  1.00  0.00    -0.000 A 
HETATM   26  C2  UNL     1      27.575   0.983  53.784  1.00  0.00    -0.063 A 
HETATM   27  C1  UNL     1      29.002   0.999  54.199  1.00  0.00     0.048 C 
HETATM   28  C20 UNL     1      27.033  -0.323  53.436  1.00  0.00     0.024 A 
HETATM   29  C19 UNL     1      25.747  -0.456  53.065  1.00  0.00     0.093 A 
ENDBRANCH   1  23
TORSDOF 5
ENDMDL
MODEL 4
REMARK VINA RESULT:      -7.8      4.111      9.099
REMARK  5 active torsions:
REMARK  status: ('A' for Active; 'I' for Inactive)
REMARK    1  A    between atoms: N1_5  and  C5_6 
REMARK    2  A    between atoms: C8_10  and  N3_11 
REMARK    3  A    between atoms: N3_11  and  C9_12 
REMARK    4  A    between atoms: N4_16  and  C13_17 
REMARK    5  A    between atoms: C17_22  and  N5_23 
ROOT
HETATM    1  C5  UNL     1      24.168   0.383  53.417  1.00  0.00     0.111 A 
HETATM    2  N2  UNL     1      24.522   1.450  52.806  1.00  0.00    -0.247 NA
HETATM    3  C6  UNL     1      23.568   2.372  52.341  1.00  0.00     0.121 A 
HETATM    4  C7  UNL     1      22.455   3.006  52.045  1.00  0.00     0.048 A 
HETATM    5  C8  UNL     1      21.125   2.525  52.378  1.00  0.00     0.030 A 
HETATM    6  C15 UNL     1      20.997   1.400  53.010  1.00  0.00     0.031 A 
HETATM    7  C16 UNL     1      20.935   0.149  53.707  1.00  0.00     0.027 A 
HETATM    8  C17 UNL     1      22.016  -0.539  54.033  1.00  0.00     0.009 A 
HETATM    9  C18 UNL     1      23.476  -0.745  54.079  1.00  0.00     0.135 A 
ENDROOT
BRANCH   5  10
HETATM   10  N3  UNL     1      20.242   3.518  51.867  1.00  0.00    -0.379 N 
HETATM   11  H9  UNL     1      20.330   4.524  52.187  1.00  0.00     0.160 HD
BRANCH  10  12
HETATM   12  C9  UNL     1      19.195   3.257  50.900  1.00  0.00     0.044 C 
HETATM   13  C10 UNL     1      19.618   2.328  49.799  1.00  0.00     0.040 C 
HETATM   14  C11 UNL     1      17.987   2.631  51.568  1.00  0.00     0.052 C 
HETATM   15  C12 UNL     1      16.943   3.715  51.409  1.00  0.00     0.127 C 
HETATM   16  N4  UNL     1      17.237   4.247  50.094  1.00  0.00    -0.357 N 
HETATM   17  C14 UNL     1      18.634   4.524  50.343  1.00  0.00     0.155 C 
BRANCH  16  18
HETATM   18  C13 UNL     1      16.415   4.433  48.949  1.00  0.00     0.350 C 
HETATM   19  O1  UNL     1      15.229   4.784  49.157  1.00  0.00    -0.284 OA
ENDBRANCH  16  18
ENDBRANCH  10  12
ENDBRANCH   5  10
BRANCH   8  20
HETATM   20  N5  UNL     1      21.580  -1.743  54.725  1.00  0.00    -0.402 N 
HETATM   21  H22 UNL     1      21.450  -2.521  55.406  1.00  0.00     0.156 HD
HETATM   22  H23 UNL     1      20.916  -2.522  54.591  1.00  0.00     0.156 HD
ENDBRANCH   8  20
BRANCH   1  23
HETATM   23  N1  UNL     1      25.573   0.046  53.533  1.00  0.00    -0.341 N 
HETATM   24  C4  UNL     1      26.078  -0.996  52.637  1.00  0.00     0.157 A 
HETATM   25  C3  UNL     1      27.535  -1.179  52.815  1.00  0.00    -0.000 A 
HETATM   26  C2  UNL     1      28.340  -0.585  53.651  1.00  0.00    -0.063 A 
HETATM   27  C1  UNL     1      29.803  -0.800  53.800  1.00  0.00     0.048 C 
HETATM   28  C20 UNL     1      27.757   0.419  54.530  1.00  0.00     0.024 A 
HETATM   29  C19 UNL     1      26.445   0.709  54.466  1.00  0.00     0.093 A 
ENDBRANCH   1  23
TORSDOF 5
ENDMDL
MODEL 5
REMARK VINA RESULT:      -7.7      3.483      8.933
REMARK  5 active torsions:
REMARK  status: ('A' for Active; 'I' for Inactive)
REMARK    1  A    between atoms: N1_5  and  C5_6 
REMARK    2  A    between atoms: C8_10  and  N3_11 
REMARK    3  A    between atoms: N3_11  and  C9_12 
REMARK    4  A    between atoms: N4_16  and  C13_17 
REMARK    5  A    between atoms: C17_22  and  N5_23 
ROOT
HETATM    1  C5  UNL     1      24.718   1.054  52.934  1.00  0.00     0.111 A 
HETATM    2  N2  UNL     1      24.247  -0.121  53.122  1.00  0.00    -0.247 NA
HETATM    3  C6  UNL     1      22.867  -0.374  53.034  1.00  0.00     0.121 A 
HETATM    4  C7  UNL     1      21.565  -0.270  52.881  1.00  0.00     0.048 A 
HETATM    5  C8  UNL     1      20.873   0.967  52.565  1.00  0.00     0.030 A 
HETATM    6  C15 UNL     1      21.559   2.058  52.417  1.00  0.00     0.031 A 
HETATM    7  C16 UNL     1      22.384   3.221  52.269  1.00  0.00     0.027 A 
HETATM    8  C17 UNL     1      23.698   3.185  52.410  1.00  0.00     0.009 A 
HETATM    9  C18 UNL     1      24.971   2.488  52.674  1.00  0.00     0.135 A 
ENDROOT
BRANCH   5  10
HETATM   10  N3  UNL     1      19.497   0.609  52.501  1.00  0.00    -0.379 N 
HETATM   11  H9  UNL     1      19.038   0.112  53.318  1.00  0.00     0.160 HD
BRANCH  10  12
HETATM   12  C9  UNL     1      18.634   0.885  51.371  1.00  0.00     0.044 C 
HETATM   13  C10 UNL     1      19.352   0.856  50.052  1.00  0.00     0.040 C 
HETATM   14  C11 UNL     1      17.513  -0.132  51.288  1.00  0.00     0.052 C 
HETATM   15  C12 UNL     1      16.295   0.721  51.572  1.00  0.00     0.127 C 
HETATM   16  N4  UNL     1      16.615   1.964  50.902  1.00  0.00    -0.357 N 
HETATM   17  C14 UNL     1      17.893   2.169  51.547  1.00  0.00     0.155 C 
BRANCH  16  18
HETATM   18  C13 UNL     1      15.900   2.723  49.935  1.00  0.00     0.350 C 
HETATM   19  O1  UNL     1      16.438   2.855  48.810  1.00  0.00    -0.284 OA
ENDBRANCH  16  18
ENDBRANCH  10  12
ENDBRANCH   5  10
BRANCH   8  20
HETATM   20  N5  UNL     1      24.202   4.533  52.191  1.00  0.00    -0.402 N 
HETATM   21  H22 UNL     1      24.801   5.380  52.094  1.00  0.00     0.156 HD
HETATM   22  H23 UNL     1      23.844   5.467  51.933  1.00  0.00     0.156 HD
ENDBRANCH   8  20
BRANCH   1  23
HETATM   23  N1  UNL     1      26.038   0.506  53.178  1.00  0.00    -0.341 N 
HETATM   24  C4  UNL     1      26.298  -0.841  52.666  1.00  0.00     0.157 A 
HETATM   25  C3  UNL     1      27.700  -1.237  52.921  1.00  0.00    -0.000 A 
HETATM   26  C2  UNL     1      28.639  -0.577  53.541  1.00  0.00    -0.063 A 
HETATM   27  C1  UNL     1      30.040  -1.013  53.778  1.00  0.00     0.048 C 
HETATM   28  C20 UNL     1      28.294   0.744  54.047  1.00  0.00     0.024 A 
HETATM   29  C19 UNL     1      27.059   1.247  53.870  1.00  0.00     0.093 A 
ENDBRANCH   1  23
TORSDOF 5
ENDMDL
MODEL 6
REMARK VINA RESULT:      -7.7      5.593      9.460
REMARK  5 active torsions:
REMARK  status: ('A' for Active; 'I' for Inactive)
REMARK    1  A    between atoms: N1_5  and  C5_6 
REMARK    2  A    between atoms: C8_10  and  N3_11 
REMARK    3  A    between atoms: N3_11  and  C9_12 
REMARK    4  A    between atoms: N4_16  and  C13_17 
REMARK    5  A    between atoms: C17_22  and  N5_23 
ROOT
HETATM    1  C5  UNL     1      26.904   6.125  48.946  1.00  0.00     0.111 A 
HETATM    2  N2  UNL     1      27.306   4.941  48.675  1.00  0.00    -0.247 NA
HETATM    3  C6  UNL     1      26.657   3.813  49.207  1.00  0.00     0.121 A 
HETATM    4  C7  UNL     1      25.848   3.000  49.851  1.00  0.00     0.048 A 
HETATM    5  C8  UNL     1      24.743   3.436  50.686  1.00  0.00     0.030 A 
HETATM    6  C15 UNL     1      24.513   4.705  50.823  1.00  0.00     0.031 A 
HETATM    7  C16 UNL     1      24.322   6.122  50.927  1.00  0.00     0.027 A 
HETATM    8  C17 UNL     1      25.100   6.993  50.306  1.00  0.00     0.009 A 
HETATM    9  C18 UNL     1      26.229   7.350  49.426  1.00  0.00     0.135 A 
ENDROOT
BRANCH   5  10
HETATM   10  N3  UNL     1      24.159   2.233  51.174  1.00  0.00    -0.379 N 
HETATM   11  H9  UNL     1      23.574   1.626  50.531  1.00  0.00     0.160 HD
BRANCH  10  12
HETATM   12  C9  UNL     1      24.311   1.745  52.530  1.00  0.00     0.044 C 
HETATM   13  C10 UNL     1      24.853   2.775  53.477  1.00  0.00     0.040 C 
HETATM   14  C11 UNL     1      22.980   1.284  53.090  1.00  0.00     0.052 C 
HETATM   15  C12 UNL     1      23.201  -0.205  53.239  1.00  0.00     0.127 C 
HETATM   16  N4  UNL     1      24.584  -0.279  53.667  1.00  0.00    -0.357 N 
HETATM   17  C14 UNL     1      25.129   0.496  52.575  1.00  0.00     0.155 C 
BRANCH  16  18
HETATM   18  C13 UNL     1      25.190  -0.911  54.787  1.00  0.00     0.350 C 
HETATM   19  O1  UNL     1      26.143  -0.304  55.330  1.00  0.00    -0.284 OA
ENDBRANCH  16  18
ENDBRANCH  10  12
ENDBRANCH   5  10
BRANCH   8  20
HETATM   20  N5  UNL     1      24.617   8.326  50.634  1.00  0.00    -0.402 N 
HETATM   21  H22 UNL     1      24.538   9.330  50.904  1.00  0.00     0.156 HD
HETATM   22  H23 UNL     1      23.722   8.839  50.697  1.00  0.00     0.156 HD
ENDBRANCH   8  20
BRANCH   1  23
HETATM   23  N1  UNL     1      27.977   6.624  48.109  1.00  0.00    -0.341 N 
HETATM   24  C4  UNL     1      27.643   7.708  47.184  1.00  0.00     0.157 A 
HETATM   25  C3  UNL     1      28.846   8.163  46.453  1.00  0.00    -0.000 A 
HETATM   26  C2  UNL     1      30.066   7.705  46.516  1.00  0.00    -0.063 A 
HETATM   27  C1  UNL     1      31.250   8.191  45.761  1.00  0.00     0.048 C 
HETATM   28  C20 UNL     1      30.312   6.606  47.439  1.00  0.00     0.024 A 
HETATM   29  C19 UNL     1      29.315   6.101  48.188  1.00  0.00     0.093 A 
ENDBRANCH   1  23
TORSDOF 5
ENDMDL
MODEL 7
REMARK VINA RESULT:      -7.6      3.890      8.465
REMARK  5 active torsions:
REMARK  status: ('A' for Active; 'I' for Inactive)
REMARK    1  A    between atoms: N1_5  and  C5_6 
REMARK    2  A    between atoms: C8_10  and  N3_11 
REMARK    3  A    between atoms: N3_11  and  C9_12 
REMARK    4  A    between atoms: N4_16  and  C13_17 
REMARK    5  A    between atoms: C17_22  and  N5_23 
ROOT
HETATM    1  C5  UNL     1      24.214   0.528  53.349  1.00  0.00     0.111 A 
HETATM    2  N2  UNL     1      24.615   1.651  52.885  1.00  0.00    -0.247 NA
HETATM    3  C6  UNL     1      23.701   2.644  52.493  1.00  0.00     0.121 A 
HETATM    4  C7  UNL     1      22.614   3.335  52.227  1.00  0.00     0.048 A 
HETATM    5  C8  UNL     1      21.262   2.851  52.444  1.00  0.00     0.030 A 
HETATM    6  C15 UNL     1      21.084   1.662  52.931  1.00  0.00     0.031 A 
HETATM    7  C16 UNL     1      20.968   0.340  53.471  1.00  0.00     0.027 A 
HETATM    8  C17 UNL     1      22.020  -0.408  53.759  1.00  0.00     0.009 A 
HETATM    9  C18 UNL     1      23.472  -0.654  53.841  1.00  0.00     0.135 A 
ENDROOT
BRANCH   5  10
HETATM   10  N3  UNL     1      20.421   3.917  52.017  1.00  0.00    -0.379 N 
HETATM   11  H9  UNL     1      20.214   4.725  52.672  1.00  0.00     0.160 HD
BRANCH  10  12
HETATM   12  C9  UNL     1      19.807   3.998  50.707  1.00  0.00     0.044 C 
HETATM   13  C10 UNL     1      18.306   3.995  50.751  1.00  0.00     0.040 C 
HETATM   14  C11 UNL     1      20.227   5.267  49.993  1.00  0.00     0.052 C 
HETATM   15  C12 UNL     1      21.044   4.723  48.841  1.00  0.00     0.127 C 
HETATM   16  N4  UNL     1      20.318   3.523  48.477  1.00  0.00    -0.357 N 
HETATM   17  C14 UNL     1      20.317   2.931  49.796  1.00  0.00     0.155 C 
BRANCH  16  18
HETATM   18  C13 UNL     1      19.790   3.084  47.232  1.00  0.00     0.350 C 
HETATM   19  O1  UNL     1      18.805   3.716  46.781  1.00  0.00    -0.284 OA
ENDBRANCH  16  18
ENDBRANCH  10  12
ENDBRANCH   5  10
BRANCH   8  20
HETATM   20  N5  UNL     1      21.530  -1.674  54.283  1.00  0.00    -0.402 N 
HETATM   21  H22 UNL     1      21.055  -2.417  54.838  1.00  0.00     0.156 HD
HETATM   22  H23 UNL     1      21.609  -2.685  54.082  1.00  0.00     0.156 HD
ENDBRANCH   8  20
BRANCH   1  23
HETATM   23  N1  UNL     1      25.606   0.146  53.484  1.00  0.00    -0.341 N 
HETATM   24  C4  UNL     1      26.085  -0.922  52.605  1.00  0.00     0.157 A 
HETATM   25  C3  UNL     1      27.533  -1.151  52.800  1.00  0.00    -0.000 A 
HETATM   26  C2  UNL     1      28.349  -0.574  53.637  1.00  0.00    -0.063 A 
HETATM   27  C1  UNL     1      29.802  -0.836  53.804  1.00  0.00     0.048 C 
HETATM   28  C20 UNL     1      27.790   0.459  54.499  1.00  0.00     0.024 A 
HETATM   29  C19 UNL     1      26.489   0.791  54.419  1.00  0.00     0.093 A 
ENDBRANCH   1  23
TORSDOF 5
ENDMDL
MODEL 8
REMARK VINA RESULT:      -7.5      6.454      8.249
REMARK  5 active torsions:
REMARK  status: ('A' for Active; 'I' for Inactive)
REMARK    1  A    between atoms: N1_5  and  C5_6 
REMARK    2  A    between atoms: C8_10  and  N3_11 
REMARK    3  A    between atoms: N3_11  and  C9_12 
REMARK    4  A    between atoms: N4_16  and  C13_17 
REMARK    5  A    between atoms: C17_22  and  N5_23 
ROOT
HETATM    1  C5  UNL     1      25.019   4.454  50.648  1.00  0.00     0.111 A 
HETATM    2  N2  UNL     1      25.831   3.652  50.069  1.00  0.00    -0.247 NA
HETATM    3  C6  UNL     1      26.858   4.133  49.237  1.00  0.00     0.121 A 
HETATM    4  C7  UNL     1      27.682   4.889  48.546  1.00  0.00     0.048 A 
HETATM    5  C8  UNL     1      27.617   6.339  48.499  1.00  0.00     0.030 A 
HETATM    6  C15 UNL     1      26.697   6.956  49.173  1.00  0.00     0.031 A 
HETATM    7  C16 UNL     1      25.654   7.566  49.944  1.00  0.00     0.027 A 
HETATM    8  C17 UNL     1      24.792   6.864  50.659  1.00  0.00     0.009 A 
HETATM    9  C18 UNL     1      24.241   5.596  51.176  1.00  0.00     0.135 A 
ENDROOT
BRANCH   5  10
HETATM   10  N3  UNL     1      28.685   6.723  47.638  1.00  0.00    -0.379 N 
HETATM   11  H9  UNL     1      28.640   6.500  46.603  1.00  0.00     0.160 HD
BRANCH  10  12
HETATM   12  C9  UNL     1      29.872   7.429  48.077  1.00  0.00     0.044 C 
HETATM   13  C10 UNL     1      29.574   8.598  48.970  1.00  0.00     0.040 C 
HETATM   14  C11 UNL     1      30.794   6.506  48.847  1.00  0.00     0.052 C 
HETATM   15  C12 UNL     1      31.994   6.424  47.930  1.00  0.00     0.127 C 
HETATM   16  N4  UNL     1      32.083   7.771  47.403  1.00  0.00    -0.357 N 
HETATM   17  C14 UNL     1      30.722   7.843  46.921  1.00  0.00     0.155 C 
BRANCH  16  18
HETATM   18  C13 UNL     1      33.159   8.700  47.373  1.00  0.00     0.350 C 
HETATM   19  O1  UNL     1      32.855   9.916  47.408  1.00  0.00    -0.284 OA
ENDBRANCH  16  18
ENDBRANCH  10  12
ENDBRANCH   5  10
BRANCH   8  20
HETATM   20  N5  UNL     1      23.885   7.802  51.303  1.00  0.00    -0.402 N 
HETATM   21  H22 UNL     1      23.169   8.530  51.506  1.00  0.00     0.156 HD
HETATM   22  H23 UNL     1      23.622   8.103  52.256  1.00  0.00     0.156 HD
ENDBRANCH   8  20
BRANCH   1  23
HETATM   23  N1  UNL     1      24.371   3.294  51.228  1.00  0.00    -0.341 N 
HETATM   24  C4  UNL     1      23.321   2.657  50.431  1.00  0.00     0.157 A 
HETATM   25  C3  UNL     1      22.806   1.450  51.113  1.00  0.00    -0.000 A 
HETATM   26  C2  UNL     1      23.137   0.960  52.275  1.00  0.00    -0.063 A 
HETATM   27  C1  UNL     1      22.591  -0.259  52.927  1.00  0.00     0.048 C 
HETATM   28  C20 UNL     1      24.169   1.667  53.020  1.00  0.00     0.024 A 
HETATM   29  C19 UNL     1      24.746   2.772  52.516  1.00  0.00     0.093 A 
ENDBRANCH   1  23
TORSDOF 5
ENDMDL
MODEL 9
REMARK VINA RESULT:      -7.5      3.970      8.627
REMARK  5 active torsions:
REMARK  status: ('A' for Active; 'I' for Inactive)
REMARK    1  A    between atoms: N1_5  and  C5_6 
REMARK    2  A    between atoms: C8_10  and  N3_11 
REMARK    3  A    between atoms: N3_11  and  C9_12 
REMARK    4  A    between atoms: N4_16  and  C13_17 
REMARK    5  A    between atoms: C17_22  and  N5_23 
ROOT
HETATM    1  C5  UNL     1      24.565   0.267  52.926  1.00  0.00     0.111 A 
HETATM    2  N2  UNL     1      24.911   0.987  51.927  1.00  0.00    -0.247 NA
HETATM    3  C6  UNL     1      23.952   1.660  51.150  1.00  0.00     0.121 A 
HETATM    4  C7  UNL     1      22.836   2.141  50.647  1.00  0.00     0.048 A 
HETATM    5  C8  UNL     1      21.513   1.861  51.176  1.00  0.00     0.030 A 
HETATM    6  C15 UNL     1      21.393   1.091  52.213  1.00  0.00     0.031 A 
HETATM    7  C16 UNL     1      21.341   0.232  53.359  1.00  0.00     0.027 A 
HETATM    8  C17 UNL     1      22.425  -0.285  53.912  1.00  0.00     0.009 A 
HETATM    9  C18 UNL     1      23.883  -0.483  54.004  1.00  0.00     0.135 A 
ENDROOT
BRANCH   5  10
HETATM   10  N3  UNL     1      20.623   2.578  50.327  1.00  0.00    -0.379 N 
HETATM   11  H9  UNL     1      20.263   2.132  49.435  1.00  0.00     0.160 HD
BRANCH  10  12
HETATM   12  C9  UNL     1      20.142   3.918  50.595  1.00  0.00     0.044 C 
HETATM   13  C10 UNL     1      18.727   3.955  51.096  1.00  0.00     0.040 C 
HETATM   14  C11 UNL     1      21.000   4.599  51.642  1.00  0.00     0.052 C 
HETATM   15  C12 UNL     1      21.646   5.710  50.844  1.00  0.00     0.127 C 
HETATM   16  N4  UNL     1      20.580   6.123  49.954  1.00  0.00    -0.357 N 
HETATM   17  C14 UNL     1      20.312   4.810  49.409  1.00  0.00     0.155 C 
BRANCH  16  18
HETATM   18  C13 UNL     1      20.003   7.397  49.705  1.00  0.00     0.350 C 
HETATM   19  O1  UNL     1      19.170   7.467  48.769  1.00  0.00    -0.284 OA
ENDBRANCH  16  18
ENDBRANCH  10  12
ENDBRANCH   5  10
BRANCH   8  20
HETATM   20  N5  UNL     1      21.999  -1.097  55.042  1.00  0.00    -0.402 N 
HETATM   21  H22 UNL     1      21.807  -1.878  55.704  1.00  0.00     0.156 HD
HETATM   22  H23 UNL     1      21.515  -0.981  55.948  1.00  0.00     0.156 HD
ENDBRANCH   8  20
BRANCH   1  23
HETATM   23  N1  UNL     1      25.971  -0.021  53.137  1.00  0.00    -0.341 N 
HETATM   24  C4  UNL     1      26.730   0.946  53.932  1.00  0.00     0.157 A 
HETATM   25  C3  UNL     1      28.122   0.486  54.126  1.00  0.00    -0.000 A 
HETATM   26  C2  UNL     1      28.704  -0.585  53.664  1.00  0.00    -0.063 A 
HETATM   27  C1  UNL     1      30.112  -1.011  53.881  1.00  0.00     0.048 C 
HETATM   28  C20 UNL     1      27.890  -1.483  52.857  1.00  0.00     0.024 A 
HETATM   29  C19 UNL     1      26.596  -1.206  52.613  1.00  0.00     0.093 A 
ENDBRANCH   1  23
TORSDOF 5
ENDMDL
