MODEL 1
REMARK VINA RESULT:      -8.7      0.000      0.000
REMARK  1 active torsions:
REMARK  status: ('A' for Active; 'I' for Inactive)
REMARK    1  A    between atoms: C9_11  and  N2_12 
ROOT
HETATM    1  C1  UNL     1      29.788  -0.444  53.813  1.00  0.00     0.011 A 
HETATM    2  C2  UNL     1      28.483  -0.576  53.986  1.00  0.00     0.028 A 
HETATM    3  C3  UNL     1      27.702   0.288  53.126  1.00  0.00    -0.035 A 
HETATM    4  O1  UNL     1      28.911   0.449  52.929  1.00  0.00     0.000 OA
HETATM    5  C4  UNL     1      26.275   0.390  53.064  1.00  0.00    -0.015 C 
HETATM    6  C5  UNL     1      25.674  -0.430  53.910  1.00  0.00     0.028 C 
HETATM    7  C6  UNL     1      24.242  -0.592  54.114  1.00  0.00     0.011 A 
HETATM    8  C7  UNL     1      23.863  -1.271  55.252  1.00  0.00     0.130 A 
HETATM    9  N1  UNL     1      22.559  -1.473  55.524  1.00  0.00    -0.270 NA
HETATM   10  C8  UNL     1      21.574  -1.026  54.704  1.00  0.00     0.148 A 
HETATM   11  C9  UNL     1      21.951  -0.343  53.560  1.00  0.00     0.083 A 
HETATM   12  C10 UNL     1      23.268  -0.108  53.233  1.00  0.00     0.073 A 
HETATM   13  N3  UNL     1      23.348   0.624  51.991  1.00  0.00    -0.353 N 
HETATM   14  C11 UNL     1      24.473   1.439  51.639  1.00  0.00     0.043 A 
HETATM   15  C12 UNL     1      24.071   2.401  50.707  1.00  0.00     0.030 A 
HETATM   16  C13 UNL     1      25.061   3.273  50.271  1.00  0.00     0.002 A 
HETATM   17  C14 UNL     1      26.374   3.199  50.731  1.00  0.00     0.001 A 
HETATM   18  C15 UNL     1      26.706   2.228  51.650  1.00  0.00     0.014 A 
HETATM   19  C16 UNL     1      25.765   1.350  52.104  1.00  0.00     0.001 A 
HETATM   20  H8  UNL     1      22.547   0.552  51.329  1.00  0.00     0.166 HD
ENDROOT
BRANCH  11  21
HETATM   21  N2  UNL     1      20.932   0.125  52.704  1.00  0.00    -0.320 N 
HETATM   22 BR1  UNL     1      19.216  -0.554  53.128  1.00  0.00     0.047 Br
HETATM   23  H7  UNL     1      20.968   0.778  51.884  1.00  0.00     0.174 HD
ENDBRANCH  11  21
TORSDOF 1
ENDMDL
MODEL 2
REMARK VINA RESULT:      -8.6      3.680      5.455
REMARK  1 active torsions:
REMARK  status: ('A' for Active; 'I' for Inactive)
REMARK    1  A    between atoms: C9_11  and  N2_12 
ROOT
HETATM    1  C1  UNL     1      19.343   0.211  51.237  1.00  0.00     0.011 A 
HETATM    2  C2  UNL     1      20.523   0.200  51.835  1.00  0.00     0.028 A 
HETATM    3  C3  UNL     1      21.462   1.144  51.267  1.00  0.00    -0.035 A 
HETATM    4  O1  UNL     1      20.379   1.192  50.675  1.00  0.00     0.000 OA
HETATM    5  C4  UNL     1      22.813   1.380  51.680  1.00  0.00    -0.015 C 
HETATM    6  C5  UNL     1      23.167   0.617  52.700  1.00  0.00     0.028 C 
HETATM    7  C6  UNL     1      24.458   0.590  53.374  1.00  0.00     0.011 A 
HETATM    8  C7  UNL     1      24.691  -0.490  54.198  1.00  0.00     0.130 A 
HETATM    9  N1  UNL     1      25.856  -0.600  54.867  1.00  0.00    -0.270 NA
HETATM   10  C8  UNL     1      26.838   0.332  54.762  1.00  0.00     0.148 A 
HETATM   11  C9  UNL     1      26.607   1.418  53.935  1.00  0.00     0.083 A 
HETATM   12  C10 UNL     1      25.436   1.581  53.228  1.00  0.00     0.073 A 
HETATM   13  N3  UNL     1      25.487   2.799  52.456  1.00  0.00    -0.353 N 
HETATM   14  C11 UNL     1      24.701   3.008  51.277  1.00  0.00     0.043 A 
HETATM   15  C12 UNL     1      25.315   3.977  50.479  1.00  0.00     0.030 A 
HETATM   16  C13 UNL     1      24.665   4.285  49.289  1.00  0.00     0.002 A 
HETATM   17  C14 UNL     1      23.475   3.669  48.911  1.00  0.00     0.001 A 
HETATM   18  C15 UNL     1      22.919   2.721  49.743  1.00  0.00     0.014 A 
HETATM   19  C16 UNL     1      23.524   2.390  50.920  1.00  0.00     0.001 A 
HETATM   20  H8  UNL     1      26.129   3.555  52.778  1.00  0.00     0.166 HD
ENDROOT
BRANCH  11  21
HETATM   21  N2  UNL     1      27.624   2.389  53.821  1.00  0.00    -0.320 N 
HETATM   22 BR1  UNL     1      29.351   1.730  54.232  1.00  0.00     0.047 Br
HETATM   23  H7  UNL     1      27.581   3.402  53.551  1.00  0.00     0.174 HD
ENDBRANCH  11  21
TORSDOF 1
ENDMDL
MODEL 3
REMARK VINA RESULT:      -8.6      3.569      6.421
REMARK  1 active torsions:
REMARK  status: ('A' for Active; 'I' for Inactive)
REMARK    1  A    between atoms: C9_11  and  N2_12 
ROOT
HETATM    1  C1  UNL     1      20.527   1.904  49.424  1.00  0.00     0.011 A 
HETATM    2  C2  UNL     1      21.747   1.898  49.937  1.00  0.00     0.028 A 
HETATM    3  C3  UNL     1      21.858   1.103  51.141  1.00  0.00    -0.035 A 
HETATM    4  O1  UNL     1      20.703   1.077  50.702  1.00  0.00     0.000 OA
HETATM    5  C4  UNL     1      23.030   0.890  51.936  1.00  0.00    -0.015 C 
HETATM    6  C5  UNL     1      24.088   1.518  51.450  1.00  0.00     0.028 C 
HETATM    7  C6  UNL     1      25.437   1.523  51.996  1.00  0.00     0.011 A 
HETATM    8  C7  UNL     1      26.290   2.486  51.499  1.00  0.00     0.130 A 
HETATM    9  N1  UNL     1      27.560   2.567  51.943  1.00  0.00    -0.270 NA
HETATM   10  C8  UNL     1      28.051   1.719  52.883  1.00  0.00     0.148 A 
HETATM   11  C9  UNL     1      27.197   0.752  53.384  1.00  0.00     0.083 A 
HETATM   12  C10 UNL     1      25.890   0.623  52.968  1.00  0.00     0.073 A 
HETATM   13  N3  UNL     1      25.251  -0.467  53.666  1.00  0.00    -0.353 N 
HETATM   14  C11 UNL     1      23.833  -0.549  53.849  1.00  0.00     0.043 A 
HETATM   15  C12 UNL     1      23.557  -1.356  54.957  1.00  0.00     0.030 A 
HETATM   16  C13 UNL     1      22.212  -1.527  55.263  1.00  0.00     0.002 A 
HETATM   17  C14 UNL     1      21.198  -0.934  54.516  1.00  0.00     0.001 A 
HETATM   18  C15 UNL     1      21.536  -0.150  53.434  1.00  0.00     0.014 A 
HETATM   19  C16 UNL     1      22.844   0.044  53.098  1.00  0.00     0.001 A 
HETATM   20  H8  UNL     1      25.858  -1.221  54.052  1.00  0.00     0.166 HD
ENDROOT
BRANCH  11  21
HETATM   21  N2  UNL     1      27.701  -0.132  54.362  1.00  0.00    -0.320 N 
HETATM   22 BR1  UNL     1      29.422  -0.810  53.954  1.00  0.00     0.047 Br
HETATM   23  H7  UNL     1      27.286  -0.470  55.263  1.00  0.00     0.174 HD
ENDBRANCH  11  21
TORSDOF 1
ENDMDL
MODEL 4
REMARK VINA RESULT:      -8.6      3.629      5.922
REMARK  1 active torsions:
REMARK  status: ('A' for Active; 'I' for Inactive)
REMARK    1  A    between atoms: C9_11  and  N2_12 
ROOT
HETATM    1  C1  UNL     1      21.906  -1.430  54.300  1.00  0.00     0.011 A 
HETATM    2  C2  UNL     1      22.310  -0.447  53.511  1.00  0.00     0.028 A 
HETATM    3  C3  UNL     1      23.718  -0.145  53.649  1.00  0.00    -0.035 A 
HETATM    4  O1  UNL     1      23.391  -1.066  54.405  1.00  0.00     0.000 OA
HETATM    5  C4  UNL     1      24.465   0.854  52.945  1.00  0.00    -0.015 C 
HETATM    6  C5  UNL     1      23.717   1.531  52.090  1.00  0.00     0.028 C 
HETATM    7  C6  UNL     1      24.141   2.612  51.212  1.00  0.00     0.011 A 
HETATM    8  C7  UNL     1      23.135   3.363  50.643  1.00  0.00     0.130 A 
HETATM    9  N1  UNL     1      23.430   4.383  49.813  1.00  0.00    -0.270 NA
HETATM   10  C8  UNL     1      24.711   4.714  49.505  1.00  0.00     0.148 A 
HETATM   11  C9  UNL     1      25.723   3.962  50.075  1.00  0.00     0.083 A 
HETATM   12  C10 UNL     1      25.479   2.909  50.929  1.00  0.00     0.073 A 
HETATM   13  N3  UNL     1      26.725   2.322  51.362  1.00  0.00    -0.353 N 
HETATM   14  C11 UNL     1      26.855   1.584  52.583  1.00  0.00     0.043 A 
HETATM   15  C12 UNL     1      28.191   1.606  52.995  1.00  0.00     0.030 A 
HETATM   16  C13 UNL     1      28.473   0.930  54.176  1.00  0.00     0.002 A 
HETATM   17  C14 UNL     1      27.490   0.269  54.908  1.00  0.00     0.001 A 
HETATM   18  C15 UNL     1      26.191   0.284  54.448  1.00  0.00     0.014 A 
HETATM   19  C16 UNL     1      25.870   0.935  53.293  1.00  0.00     0.001 A 
HETATM   20  H8  UNL     1      27.561   2.447  50.753  1.00  0.00     0.166 HD
ENDROOT
BRANCH  11  21
HETATM   21  N2  UNL     1      27.056   4.301  49.759  1.00  0.00    -0.320 N 
HETATM   22 BR1  UNL     1      27.203   5.785  48.591  1.00  0.00     0.047 Br
HETATM   23  H7  UNL     1      27.965   3.873  50.059  1.00  0.00     0.174 HD
ENDBRANCH  11  21
TORSDOF 1
ENDMDL
MODEL 5
REMARK VINA RESULT:      -8.5      3.653      5.659
REMARK  1 active torsions:
REMARK  status: ('A' for Active; 'I' for Inactive)
REMARK    1  A    between atoms: C9_11  and  N2_12 
ROOT
HETATM    1  C1  UNL     1      18.474  -1.056  53.232  1.00  0.00     0.011 A 
HETATM    2  C2  UNL     1      19.768  -0.870  53.441  1.00  0.00     0.028 A 
HETATM    3  C3  UNL     1      20.409  -0.092  52.403  1.00  0.00    -0.035 A 
HETATM    4  O1  UNL     1      19.206  -0.238  52.162  1.00  0.00     0.000 OA
HETATM    5  C4  UNL     1      21.789   0.285  52.328  1.00  0.00    -0.015 C 
HETATM    6  C5  UNL     1      22.488  -0.160  53.359  1.00  0.00     0.028 C 
HETATM    7  C6  UNL     1      23.909   0.035  53.609  1.00  0.00     0.011 A 
HETATM    8  C7  UNL     1      24.472  -0.773  54.574  1.00  0.00     0.130 A 
HETATM    9  N1  UNL     1      25.780  -0.663  54.878  1.00  0.00    -0.270 NA
HETATM   10  C8  UNL     1      26.592   0.232  54.257  1.00  0.00     0.148 A 
HETATM   11  C9  UNL     1      26.029   1.043  53.287  1.00  0.00     0.083 A 
HETATM   12  C10 UNL     1      24.699   0.975  52.937  1.00  0.00     0.073 A 
HETATM   13  N3  UNL     1      24.407   1.937  51.902  1.00  0.00    -0.353 N 
HETATM   14  C11 UNL     1      23.310   1.794  50.992  1.00  0.00     0.043 A 
HETATM   15  C12 UNL     1      23.576   2.525  49.830  1.00  0.00     0.030 A 
HETATM   16  C13 UNL     1      22.596   2.477  48.846  1.00  0.00     0.002 A 
HETATM   17  C14 UNL     1      21.420   1.749  49.002  1.00  0.00     0.001 A 
HETATM   18  C15 UNL     1      21.217   1.049  50.172  1.00  0.00     0.014 A 
HETATM   19  C16 UNL     1      22.154   1.068  51.164  1.00  0.00     0.001 A 
HETATM   20  H8  UNL     1      25.030   2.769  51.819  1.00  0.00     0.166 HD
ENDROOT
BRANCH  11  21
HETATM   21  N2  UNL     1      26.868   1.975  52.639  1.00  0.00    -0.320 N 
HETATM   22 BR1  UNL     1      28.517   2.256  53.526  1.00  0.00     0.047 Br
HETATM   23  H7  UNL     1      26.729   2.529  51.759  1.00  0.00     0.174 HD
ENDBRANCH  11  21
TORSDOF 1
ENDMDL
MODEL 6
REMARK VINA RESULT:      -8.4      2.535      4.903
REMARK  1 active torsions:
REMARK  status: ('A' for Active; 'I' for Inactive)
REMARK    1  A    between atoms: C9_11  and  N2_12 
ROOT
HETATM    1  C1  UNL     1      28.954  -0.454  54.209  1.00  0.00     0.011 A 
HETATM    2  C2  UNL     1      28.325   0.392  53.410  1.00  0.00     0.028 A 
HETATM    3  C3  UNL     1      26.884   0.290  53.489  1.00  0.00    -0.035 A 
HETATM    4  O1  UNL     1      27.423  -0.518  54.251  1.00  0.00     0.000 OA
HETATM    5  C4  UNL     1      25.918   1.056  52.760  1.00  0.00    -0.015 C 
HETATM    6  C5  UNL     1      26.481   1.936  51.950  1.00  0.00     0.028 C 
HETATM    7  C6  UNL     1      25.809   2.876  51.064  1.00  0.00     0.011 A 
HETATM    8  C7  UNL     1      26.594   3.470  50.100  1.00  0.00     0.130 A 
HETATM    9  N1  UNL     1      26.060   4.357  49.237  1.00  0.00    -0.270 NA
HETATM   10  C8  UNL     1      24.747   4.701  49.275  1.00  0.00     0.148 A 
HETATM   11  C9  UNL     1      23.956   4.104  50.243  1.00  0.00     0.083 A 
HETATM   12  C10 UNL     1      24.448   3.192  51.150  1.00  0.00     0.073 A 
HETATM   13  N3  UNL     1      23.393   2.746  52.027  1.00  0.00    -0.353 N 
HETATM   14  C11 UNL     1      23.430   1.490  52.715  1.00  0.00     0.043 A 
HETATM   15  C12 UNL     1      22.126   1.098  53.030  1.00  0.00     0.030 A 
HETATM   16  C13 UNL     1      22.002  -0.114  53.700  1.00  0.00     0.002 A 
HETATM   17  C14 UNL     1      23.105  -0.893  54.039  1.00  0.00     0.001 A 
HETATM   18  C15 UNL     1      24.365  -0.451  53.699  1.00  0.00     0.014 A 
HETATM   19  C16 UNL     1      24.532   0.733  53.041  1.00  0.00     0.001 A 
HETATM   20  H8  UNL     1      22.570   3.372  52.159  1.00  0.00     0.166 HD
ENDROOT
BRANCH  11  21
HETATM   21  N2  UNL     1      22.590   4.457  50.288  1.00  0.00    -0.320 N 
HETATM   22 BR1  UNL     1      22.287   6.240  50.848  1.00  0.00     0.047 Br
HETATM   23  H7  UNL     1      21.729   3.902  50.065  1.00  0.00     0.174 HD
ENDBRANCH  11  21
TORSDOF 1
ENDMDL
MODEL 7
REMARK VINA RESULT:      -7.9      3.732      6.743
REMARK  1 active torsions:
REMARK  status: ('A' for Active; 'I' for Inactive)
REMARK    1  A    between atoms: C9_11  and  N2_12 
ROOT
HETATM    1  C1  UNL     1      17.748  -1.089  52.888  1.00  0.00     0.011 A 
HETATM    2  C2  UNL     1      18.632  -0.172  52.528  1.00  0.00     0.028 A 
HETATM    3  C3  UNL     1      19.945  -0.390  53.096  1.00  0.00    -0.035 A 
HETATM    4  O1  UNL     1      19.158  -1.268  53.462  1.00  0.00     0.000 OA
HETATM    5  C4  UNL     1      21.116   0.413  52.906  1.00  0.00    -0.015 C 
HETATM    6  C5  UNL     1      20.895   1.445  52.109  1.00  0.00     0.028 C 
HETATM    7  C6  UNL     1      21.853   2.462  51.699  1.00  0.00     0.011 A 
HETATM    8  C7  UNL     1      21.323   3.597  51.122  1.00  0.00     0.130 A 
HETATM    9  N1  UNL     1      22.132   4.592  50.707  1.00  0.00    -0.270 NA
HETATM   10  C8  UNL     1      23.482   4.525  50.836  1.00  0.00     0.148 A 
HETATM   11  C9  UNL     1      24.016   3.387  51.416  1.00  0.00     0.083 A 
HETATM   12  C10 UNL     1      23.238   2.340  51.857  1.00  0.00     0.073 A 
HETATM   13  N3  UNL     1      24.072   1.302  52.413  1.00  0.00    -0.353 N 
HETATM   14  C11 UNL     1      23.597   0.353  53.376  1.00  0.00     0.043 A 
HETATM   15  C12 UNL     1      24.681  -0.148  54.103  1.00  0.00     0.030 A 
HETATM   16  C13 UNL     1      24.373  -1.083  55.085  1.00  0.00     0.002 A 
HETATM   17  C14 UNL     1      23.067  -1.498  55.333  1.00  0.00     0.001 A 
HETATM   18  C15 UNL     1      22.042  -0.966  54.581  1.00  0.00     0.014 A 
HETATM   19  C16 UNL     1      22.300  -0.046  53.607  1.00  0.00     0.001 A 
HETATM   20  H8  UNL     1      25.063   1.248  52.095  1.00  0.00     0.166 HD
ENDROOT
BRANCH  11  21
HETATM   21  N2  UNL     1      25.419   3.312  51.553  1.00  0.00    -0.320 N 
HETATM   22 BR1  UNL     1      26.341   3.298  49.899  1.00  0.00     0.047 Br
HETATM   23  H7  UNL     1      26.024   3.265  52.407  1.00  0.00     0.174 HD
ENDBRANCH  11  21
TORSDOF 1
ENDMDL
MODEL 8
REMARK VINA RESULT:      -7.6      2.503      5.031
REMARK  1 active torsions:
REMARK  status: ('A' for Active; 'I' for Inactive)
REMARK    1  A    between atoms: C9_11  and  N2_12 
ROOT
HETATM    1  C1  UNL     1      27.147   2.062  53.535  1.00  0.00     0.011 A 
HETATM    2  C2  UNL     1      26.151   2.096  52.664  1.00  0.00     0.028 A 
HETATM    3  C3  UNL     1      25.007   1.309  53.073  1.00  0.00    -0.035 A 
HETATM    4  O1  UNL     1      25.907   1.245  53.916  1.00  0.00     0.000 OA
HETATM    5  C4  UNL     1      23.775   1.136  52.363  1.00  0.00    -0.015 C 
HETATM    6  C5  UNL     1      23.755   1.801  51.221  1.00  0.00     0.028 C 
HETATM    7  C6  UNL     1      22.670   1.853  50.251  1.00  0.00     0.011 A 
HETATM    8  C7  UNL     1      22.992   2.354  49.007  1.00  0.00     0.130 A 
HETATM    9  N1  UNL     1      22.053   2.444  48.044  1.00  0.00    -0.270 NA
HETATM   10  C8  UNL     1      20.769   2.053  48.250  1.00  0.00     0.148 A 
HETATM   11  C9  UNL     1      20.444   1.550  49.498  1.00  0.00     0.083 A 
HETATM   12  C10 UNL     1      21.362   1.435  50.519  1.00  0.00     0.073 A 
HETATM   13  N3  UNL     1      20.733   0.878  51.692  1.00  0.00    -0.353 N 
HETATM   14  C11 UNL     1      21.462   0.183  52.710  1.00  0.00     0.043 A 
HETATM   15  C12 UNL     1      20.593  -0.669  53.399  1.00  0.00     0.030 A 
HETATM   16  C13 UNL     1      21.163  -1.419  54.421  1.00  0.00     0.002 A 
HETATM   17  C14 UNL     1      22.515  -1.332  54.744  1.00  0.00     0.001 A 
HETATM   18  C15 UNL     1      23.319  -0.472  54.027  1.00  0.00     0.014 A 
HETATM   19  C16 UNL     1      22.800   0.283  53.016  1.00  0.00     0.001 A 
HETATM   20  H8  UNL     1      19.702   0.991  51.794  1.00  0.00     0.166 HD
ENDROOT
BRANCH  11  21
HETATM   21  N2  UNL     1      19.111   1.141  49.718  1.00  0.00    -0.320 N 
HETATM   22 BR1  UNL     1      17.848   2.537  49.516  1.00  0.00     0.047 Br
HETATM   23  H7  UNL     1      18.711   0.205  49.971  1.00  0.00     0.174 HD
ENDBRANCH  11  21
TORSDOF 1
ENDMDL
MODEL 9
REMARK VINA RESULT:      -7.5      3.313      5.115
REMARK  1 active torsions:
REMARK  status: ('A' for Active; 'I' for Inactive)
REMARK    1  A    between atoms: C9_11  and  N2_12 
ROOT
HETATM    1  C1  UNL     1      19.657   4.266  50.935  1.00  0.00     0.011 A 
HETATM    2  C2  UNL     1      20.375   3.371  51.594  1.00  0.00     0.028 A 
HETATM    3  C3  UNL     1      21.763   3.340  51.188  1.00  0.00    -0.035 A 
HETATM    4  O1  UNL     1      21.137   4.188  50.544  1.00  0.00     0.000 OA
HETATM    5  C4  UNL     1      22.799   2.493  51.699  1.00  0.00    -0.015 C 
HETATM    6  C5  UNL     1      22.362   1.681  52.648  1.00  0.00     0.028 C 
HETATM    7  C6  UNL     1      23.135   0.693  53.386  1.00  0.00     0.011 A 
HETATM    8  C7  UNL     1      22.408  -0.238  54.098  1.00  0.00     0.130 A 
HETATM    9  N1  UNL     1      23.036  -1.191  54.815  1.00  0.00    -0.270 NA
HETATM   10  C8  UNL     1      24.390  -1.278  54.869  1.00  0.00     0.148 A 
HETATM   11  C9  UNL     1      25.122  -0.345  54.155  1.00  0.00     0.083 A 
HETATM   12  C10 UNL     1      24.534   0.650  53.406  1.00  0.00     0.073 A 
HETATM   13  N3  UNL     1      25.546   1.464  52.777  1.00  0.00    -0.353 N 
HETATM   14  C11 UNL     1      25.307   2.222  51.586  1.00  0.00     0.043 A 
HETATM   15  C12 UNL     1      26.523   2.454  50.935  1.00  0.00     0.030 A 
HETATM   16  C13 UNL     1      26.449   3.180  49.752  1.00  0.00     0.002 A 
HETATM   17  C14 UNL     1      25.242   3.650  49.242  1.00  0.00     0.001 A 
HETATM   18  C15 UNL     1      24.078   3.389  49.932  1.00  0.00     0.014 A 
HETATM   19  C16 UNL     1      24.105   2.680  51.097  1.00  0.00     0.001 A 
HETATM   20  H8  UNL     1      26.491   1.493  53.216  1.00  0.00     0.166 HD
ENDROOT
BRANCH  11  21
HETATM   21  N2  UNL     1      26.530  -0.430  54.207  1.00  0.00    -0.320 N 
HETATM   22 BR1  UNL     1      27.273  -1.524  52.851  1.00  0.00     0.047 Br
HETATM   23  H7  UNL     1      27.222   0.007  54.863  1.00  0.00     0.174 HD
ENDBRANCH  11  21
TORSDOF 1
ENDMDL
