MODEL 1
REMARK VINA RESULT:      -7.1      0.000      0.000
REMARK  7 active torsions:
REMARK  status: ('A' for Active; 'I' for Inactive)
REMARK    1  A    between atoms: N1_2  and  C2_3 
REMARK    2  A    between atoms: N1_2  and  C11_14 
REMARK    3  A    between atoms: C2_3  and  C3_4 
REMARK    4  A    between atoms: C3_4  and  C4_5 
REMARK       I    between atoms: C4_5  and  N2_7 
REMARK    5  A    between atoms: N2_7  and  C5_8 
REMARK    6  A    between atoms: C11_14  and  C12_15 
REMARK    7  A    between atoms: C17_22  and  O2_23 
ROOT
HETATM    1  C1  UNL     1      22.670   3.626  48.997  1.00  0.00     0.310 C 
HETATM    2  N1  UNL     1      22.731   3.146  50.338  1.00  0.00     0.088 N 
ENDROOT
BRANCH   2   3
HETATM    3  C2  UNL     1      23.764   3.825  51.107  1.00  0.00     0.281 C 
BRANCH   3   4
HETATM    4  C3  UNL     1      25.037   3.952  50.299  1.00  0.00     0.133 C 
BRANCH   4   5
HETATM    5  C4  UNL     1      26.089   3.162  50.949  1.00  0.00     0.223 C 
HETATM    6  O1  UNL     1      27.089   3.088  50.155  1.00  0.00    -0.273 OA
HETATM    7  N2  UNL     1      26.166   2.531  52.204  1.00  0.00    -0.327 N 
HETATM    8  H8  UNL     1      25.253   2.700  52.695  1.00  0.00     0.169 HD
BRANCH   7   9
HETATM    9  C5  UNL     1      27.195   1.796  52.790  1.00  0.00     0.034 A 
HETATM   10  C6  UNL     1      27.204   0.439  52.581  1.00  0.00     0.029 A 
HETATM   11  C7  UNL     1      28.202  -0.347  53.157  1.00  0.00     0.002 A 
HETATM   12  C8  UNL     1      29.200   0.184  53.941  1.00  0.00     0.000 A 
HETATM   13  C9  UNL     1      29.220   1.566  54.173  1.00  0.00     0.002 A 
HETATM   14  C10 UNL     1      28.193   2.304  53.570  1.00  0.00     0.029 A 
ENDBRANCH   7   9
ENDBRANCH   4   5
ENDBRANCH   3   4
ENDBRANCH   2   3
BRANCH   2  15
HETATM   15  C11 UNL     1      22.932   1.738  50.454  1.00  0.00     0.313 C 
BRANCH  15  16
HETATM   16  C12 UNL     1      22.052   1.027  51.379  1.00  0.00     0.006 A 
HETATM   17  C13 UNL     1      20.712   0.905  51.066  1.00  0.00     0.030 A 
HETATM   18  C14 UNL     1      19.822   0.213  51.859  1.00  0.00     0.013 A 
HETATM   19 BR1  UNL     1      17.954   0.038  51.426  1.00  0.00    -0.051 Br
HETATM   20  C15 UNL     1      20.229  -0.414  53.042  1.00  0.00     0.041 A 
HETATM   21  C16 UNL     1      21.587  -0.275  53.337  1.00  0.00     0.045 A 
HETATM   22 BR2  UNL     1      22.228  -1.098  54.939  1.00  0.00    -0.048 Br
HETATM   23  C17 UNL     1      22.487   0.414  52.556  1.00  0.00     0.091 A 
BRANCH  23  24
HETATM   24  O2  UNL     1      23.811   0.490  52.950  1.00  0.00    -0.359 OA
HETATM   25  H18 UNL     1      24.258  -0.127  53.620  1.00  0.00     0.217 HD
ENDBRANCH  23  24
ENDBRANCH  15  16
ENDBRANCH   2  15
TORSDOF 7
ENDMDL
MODEL 2
REMARK VINA RESULT:      -6.9      5.118      7.080
REMARK  7 active torsions:
REMARK  status: ('A' for Active; 'I' for Inactive)
REMARK    1  A    between atoms: N1_2  and  C2_3 
REMARK    2  A    between atoms: N1_2  and  C11_14 
REMARK    3  A    between atoms: C2_3  and  C3_4 
REMARK    4  A    between atoms: C3_4  and  C4_5 
REMARK       I    between atoms: C4_5  and  N2_7 
REMARK    5  A    between atoms: N2_7  and  C5_8 
REMARK    6  A    between atoms: C11_14  and  C12_15 
REMARK    7  A    between atoms: C17_22  and  O2_23 
ROOT
HETATM    1  C1  UNL     1      23.267   5.287  48.505  1.00  0.00     0.310 C 
HETATM    2  N1  UNL     1      24.623   4.884  48.683  1.00  0.00     0.088 N 
ENDROOT
BRANCH   2   3
HETATM    3  C2  UNL     1      24.722   3.638  49.431  1.00  0.00     0.281 C 
BRANCH   3   4
HETATM    4  C3  UNL     1      25.055   3.909  50.882  1.00  0.00     0.133 C 
BRANCH   4   5
HETATM    5  C4  UNL     1      26.048   2.925  51.329  1.00  0.00     0.223 C 
HETATM    6  O1  UNL     1      26.768   2.592  50.325  1.00  0.00    -0.273 OA
HETATM    7  N2  UNL     1      26.313   2.344  52.582  1.00  0.00    -0.327 N 
HETATM    8  H8  UNL     1      25.617   2.738  53.262  1.00  0.00     0.169 HD
BRANCH   7   9
HETATM    9  C5  UNL     1      27.281   1.417  52.967  1.00  0.00     0.034 A 
HETATM   10  C6  UNL     1      28.401   1.896  53.602  1.00  0.00     0.029 A 
HETATM   11  C7  UNL     1      29.407   1.015  53.995  1.00  0.00     0.002 A 
HETATM   12  C8  UNL     1      29.331  -0.340  53.774  1.00  0.00     0.000 A 
HETATM   13  C9  UNL     1      28.201  -0.861  53.130  1.00  0.00     0.002 A 
HETATM   14  C10 UNL     1      27.223   0.070  52.758  1.00  0.00     0.029 A 
ENDBRANCH   7   9
ENDBRANCH   4   5
ENDBRANCH   3   4
ENDBRANCH   2   3
BRANCH   2  15
HETATM   15  C11 UNL     1      25.452   5.858  49.316  1.00  0.00     0.313 C 
BRANCH  15  16
HETATM   16  C12 UNL     1      26.535   6.417  48.510  1.00  0.00     0.006 A 
HETATM   17  C13 UNL     1      26.273   7.507  47.703  1.00  0.00     0.030 A 
HETATM   18  C14 UNL     1      27.246   8.123  46.946  1.00  0.00     0.013 A 
HETATM   19 BR1  UNL     1      26.887   9.644  45.821  1.00  0.00    -0.051 Br
HETATM   20  C15 UNL     1      28.572   7.675  46.950  1.00  0.00     0.041 A 
HETATM   21  C16 UNL     1      28.810   6.572  47.772  1.00  0.00     0.045 A 
HETATM   22 BR2  UNL     1      30.595   5.891  47.835  1.00  0.00    -0.048 Br
HETATM   23  C17 UNL     1      27.849   5.945  48.533  1.00  0.00     0.091 A 
BRANCH  23  24
HETATM   24  O2  UNL     1      28.200   4.854  49.309  1.00  0.00    -0.359 OA
HETATM   25  H18 UNL     1      27.843   4.659  50.238  1.00  0.00     0.217 HD
ENDBRANCH  23  24
ENDBRANCH  15  16
ENDBRANCH   2  15
TORSDOF 7
ENDMDL
MODEL 3
REMARK VINA RESULT:      -6.9      1.886      2.993
REMARK  7 active torsions:
REMARK  status: ('A' for Active; 'I' for Inactive)
REMARK    1  A    between atoms: N1_2  and  C2_3 
REMARK    2  A    between atoms: N1_2  and  C11_14 
REMARK    3  A    between atoms: C2_3  and  C3_4 
REMARK    4  A    between atoms: C3_4  and  C4_5 
REMARK       I    between atoms: C4_5  and  N2_7 
REMARK    5  A    between atoms: N2_7  and  C5_8 
REMARK    6  A    between atoms: C11_14  and  C12_15 
REMARK    7  A    between atoms: C17_22  and  O2_23 
ROOT
HETATM    1  C1  UNL     1      20.175   3.849  51.692  1.00  0.00     0.310 C 
HETATM    2  N1  UNL     1      21.378   3.124  51.940  1.00  0.00     0.088 N 
ENDROOT
BRANCH   2   3
HETATM    3  C2  UNL     1      22.550   3.844  51.462  1.00  0.00     0.281 C 
BRANCH   3   4
HETATM    4  C3  UNL     1      23.549   4.043  52.580  1.00  0.00     0.133 C 
BRANCH   4   5
HETATM    5  C4  UNL     1      24.560   2.980  52.503  1.00  0.00     0.223 C 
HETATM    6  O1  UNL     1      25.079   3.000  51.334  1.00  0.00    -0.273 OA
HETATM    7  N2  UNL     1      25.010   2.027  53.435  1.00  0.00    -0.327 N 
HETATM    8  H8  UNL     1      24.460   2.171  54.318  1.00  0.00     0.169 HD
BRANCH   7   9
HETATM    9  C5  UNL     1      25.986   1.039  53.324  1.00  0.00     0.034 A 
HETATM   10  C6  UNL     1      27.244   1.335  53.789  1.00  0.00     0.029 A 
HETATM   11  C7  UNL     1      28.263   0.387  53.689  1.00  0.00     0.002 A 
HETATM   12  C8  UNL     1      28.064  -0.856  53.135  1.00  0.00     0.000 A 
HETATM   13  C9  UNL     1      26.792  -1.189  52.651  1.00  0.00     0.002 A 
HETATM   14  C10 UNL     1      25.809  -0.199  52.778  1.00  0.00     0.029 A 
ENDBRANCH   7   9
ENDBRANCH   4   5
ENDBRANCH   3   4
ENDBRANCH   2   3
BRANCH   2  15
HETATM   15  C11 UNL     1      21.400   1.807  51.391  1.00  0.00     0.313 C 
BRANCH  15  16
HETATM   16  C12 UNL     1      21.071   0.714  52.303  1.00  0.00     0.006 A 
HETATM   17  C13 UNL     1      22.039   0.259  53.178  1.00  0.00     0.030 A 
HETATM   18  C14 UNL     1      21.799  -0.736  54.101  1.00  0.00     0.013 A 
HETATM   19 BR1  UNL     1      23.143  -1.371  55.324  1.00  0.00    -0.051 Br
HETATM   20  C15 UNL     1      20.547  -1.351  54.207  1.00  0.00     0.041 A 
HETATM   21  C16 UNL     1      19.587  -0.875  53.311  1.00  0.00     0.045 A 
HETATM   22 BR2  UNL     1      17.847  -1.664  53.385  1.00  0.00    -0.048 Br
HETATM   23  C17 UNL     1      19.811   0.117  52.383  1.00  0.00     0.091 A 
BRANCH  23  24
HETATM   24  O2  UNL     1      18.784   0.506  51.542  1.00  0.00    -0.359 OA
HETATM   25  H18 UNL     1      18.550   1.465  51.311  1.00  0.00     0.217 HD
ENDBRANCH  23  24
ENDBRANCH  15  16
ENDBRANCH   2  15
TORSDOF 7
ENDMDL
MODEL 4
REMARK VINA RESULT:      -6.7      2.852      4.803
REMARK  7 active torsions:
REMARK  status: ('A' for Active; 'I' for Inactive)
REMARK    1  A    between atoms: N1_2  and  C2_3 
REMARK    2  A    between atoms: N1_2  and  C11_14 
REMARK    3  A    between atoms: C2_3  and  C3_4 
REMARK    4  A    between atoms: C3_4  and  C4_5 
REMARK       I    between atoms: C4_5  and  N2_7 
REMARK    5  A    between atoms: N2_7  and  C5_8 
REMARK    6  A    between atoms: C11_14  and  C12_15 
REMARK    7  A    between atoms: C17_22  and  O2_23 
ROOT
HETATM    1  C1  UNL     1      20.294   3.588  51.163  1.00  0.00     0.310 C 
HETATM    2  N1  UNL     1      21.536   3.412  51.840  1.00  0.00     0.088 N 
ENDROOT
BRANCH   2   3
HETATM    3  C2  UNL     1      22.173   4.687  52.138  1.00  0.00     0.281 C 
BRANCH   3   4
HETATM    4  C3  UNL     1      22.178   5.582  50.918  1.00  0.00     0.133 C 
BRANCH   4   5
HETATM    5  C4  UNL     1      23.567   5.782  50.486  1.00  0.00     0.223 C 
HETATM    6  O1  UNL     1      24.207   6.351  51.436  1.00  0.00    -0.273 OA
HETATM    7  N2  UNL     1      24.246   5.470  49.294  1.00  0.00    -0.327 N 
HETATM    8  H8  UNL     1      23.551   5.021  48.647  1.00  0.00     0.169 HD
BRANCH   7   9
HETATM    9  C5  UNL     1      25.576   5.669  48.929  1.00  0.00     0.034 A 
HETATM   10  C6  UNL     1      25.912   6.889  48.395  1.00  0.00     0.029 A 
HETATM   11  C7  UNL     1      27.225   7.137  47.998  1.00  0.00     0.002 A 
HETATM   12  C8  UNL     1      28.223   6.198  48.117  1.00  0.00     0.000 A 
HETATM   13  C9  UNL     1      27.914   4.943  48.658  1.00  0.00     0.002 A 
HETATM   14  C10 UNL     1      26.580   4.751  49.039  1.00  0.00     0.029 A 
ENDBRANCH   7   9
ENDBRANCH   4   5
ENDBRANCH   3   4
ENDBRANCH   2   3
BRANCH   2  15
HETATM   15  C11 UNL     1      22.475   2.588  51.151  1.00  0.00     0.313 C 
BRANCH  15  16
HETATM   16  C12 UNL     1      23.169   1.580  51.950  1.00  0.00     0.006 A 
HETATM   17  C13 UNL     1      22.428   0.753  52.772  1.00  0.00     0.030 A 
HETATM   18  C14 UNL     1      22.997  -0.253  53.524  1.00  0.00     0.013 A 
HETATM   19 BR1  UNL     1      21.970  -1.409  54.669  1.00  0.00    -0.051 Br
HETATM   20  C15 UNL     1      24.375  -0.497  53.499  1.00  0.00     0.041 A 
HETATM   21  C16 UNL     1      25.101   0.353  52.661  1.00  0.00     0.045 A 
HETATM   22 BR2  UNL     1      26.993   0.092  52.569  1.00  0.00    -0.048 Br
HETATM   23  C17 UNL     1      24.548   1.362  51.906  1.00  0.00     0.091 A 
BRANCH  23  24
HETATM   24  O2  UNL     1      25.367   2.147  51.114  1.00  0.00    -0.359 OA
HETATM   25  H18 UNL     1      26.374   2.048  51.037  1.00  0.00     0.217 HD
ENDBRANCH  23  24
ENDBRANCH  15  16
ENDBRANCH   2  15
TORSDOF 7
ENDMDL
MODEL 5
REMARK VINA RESULT:      -6.7      3.499      5.545
REMARK  7 active torsions:
REMARK  status: ('A' for Active; 'I' for Inactive)
REMARK    1  A    between atoms: N1_2  and  C2_3 
REMARK    2  A    between atoms: N1_2  and  C11_14 
REMARK    3  A    between atoms: C2_3  and  C3_4 
REMARK    4  A    between atoms: C3_4  and  C4_5 
REMARK       I    between atoms: C4_5  and  N2_7 
REMARK    5  A    between atoms: N2_7  and  C5_8 
REMARK    6  A    between atoms: C11_14  and  C12_15 
REMARK    7  A    between atoms: C17_22  and  O2_23 
ROOT
HETATM    1  C1  UNL     1      22.056   2.580  49.972  1.00  0.00     0.310 C 
HETATM    2  N1  UNL     1      23.215   3.230  50.489  1.00  0.00     0.088 N 
ENDROOT
BRANCH   2   3
HETATM    3  C2  UNL     1      23.385   4.561  49.923  1.00  0.00     0.281 C 
BRANCH   3   4
HETATM    4  C3  UNL     1      24.171   5.447  50.863  1.00  0.00     0.133 C 
BRANCH   4   5
HETATM    5  C4  UNL     1      25.320   6.002  50.137  1.00  0.00     0.223 C 
HETATM    6  O1  UNL     1      25.522   7.195  50.551  1.00  0.00    -0.273 OA
HETATM    7  N2  UNL     1      26.164   5.472  49.144  1.00  0.00    -0.327 N 
HETATM    8  H8  UNL     1      25.830   4.497  48.940  1.00  0.00     0.169 HD
BRANCH   7   9
HETATM    9  C5  UNL     1      27.257   6.033  48.486  1.00  0.00     0.034 A 
HETATM   10  C6  UNL     1      28.440   5.336  48.516  1.00  0.00     0.029 A 
HETATM   11  C7  UNL     1      29.570   5.858  47.887  1.00  0.00     0.002 A 
HETATM   12  C8  UNL     1      29.557   7.063  47.224  1.00  0.00     0.000 A 
HETATM   13  C9  UNL     1      28.365   7.798  47.174  1.00  0.00     0.002 A 
HETATM   14  C10 UNL     1      27.263   7.225  47.823  1.00  0.00     0.029 A 
ENDBRANCH   7   9
ENDBRANCH   4   5
ENDBRANCH   3   4
ENDBRANCH   2   3
BRANCH   2  15
HETATM   15  C11 UNL     1      24.430   2.504  50.312  1.00  0.00     0.313 C 
BRANCH  15  16
HETATM   16  C12 UNL     1      25.061   1.981  51.522  1.00  0.00     0.006 A 
HETATM   17  C13 UNL     1      24.376   1.054  52.284  1.00  0.00     0.030 A 
HETATM   18  C14 UNL     1      24.915   0.476  53.413  1.00  0.00     0.013 A 
HETATM   19 BR1  UNL     1      23.966  -0.818  54.478  1.00  0.00    -0.051 Br
HETATM   20  C15 UNL     1      26.201   0.798  53.860  1.00  0.00     0.041 A 
HETATM   21  C16 UNL     1      26.871   1.738  53.073  1.00  0.00     0.045 A 
HETATM   22 BR2  UNL     1      28.636   2.239  53.613  1.00  0.00    -0.048 Br
HETATM   23  C17 UNL     1      26.347   2.324  51.943  1.00  0.00     0.091 A 
BRANCH  23  24
HETATM   24  O2  UNL     1      27.102   3.249  51.243  1.00  0.00    -0.359 OA
HETATM   25  H18 UNL     1      28.085   3.442  51.404  1.00  0.00     0.217 HD
ENDBRANCH  23  24
ENDBRANCH  15  16
ENDBRANCH   2  15
TORSDOF 7
ENDMDL
MODEL 6
REMARK VINA RESULT:      -6.6      4.437      6.159
REMARK  7 active torsions:
REMARK  status: ('A' for Active; 'I' for Inactive)
REMARK    1  A    between atoms: N1_2  and  C2_3 
REMARK    2  A    between atoms: N1_2  and  C11_14 
REMARK    3  A    between atoms: C2_3  and  C3_4 
REMARK    4  A    between atoms: C3_4  and  C4_5 
REMARK       I    between atoms: C4_5  and  N2_7 
REMARK    5  A    between atoms: N2_7  and  C5_8 
REMARK    6  A    between atoms: C11_14  and  C12_15 
REMARK    7  A    between atoms: C17_22  and  O2_23 
ROOT
HETATM    1  C1  UNL     1      23.824   4.949  51.201  1.00  0.00     0.310 C 
HETATM    2  N1  UNL     1      25.097   4.437  50.812  1.00  0.00     0.088 N 
ENDROOT
BRANCH   2   3
HETATM    3  C2  UNL     1      25.653   5.171  49.684  1.00  0.00     0.281 C 
BRANCH   3   4
HETATM    4  C3  UNL     1      26.845   4.442  49.106  1.00  0.00     0.133 C 
BRANCH   4   5
HETATM    5  C4  UNL     1      27.847   5.432  48.690  1.00  0.00     0.223 C 
HETATM    6  O1  UNL     1      28.855   4.810  48.208  1.00  0.00    -0.273 OA
HETATM    7  N2  UNL     1      27.867   6.838  48.731  1.00  0.00    -0.327 N 
HETATM    8  H8  UNL     1      26.962   7.151  49.163  1.00  0.00     0.169 HD
BRANCH   7   9
HETATM    9  C5  UNL     1      28.839   7.745  48.312  1.00  0.00     0.034 A 
HETATM   10  C6  UNL     1      28.916   8.014  46.967  1.00  0.00     0.029 A 
HETATM   11  C7  UNL     1      29.880   8.902  46.490  1.00  0.00     0.002 A 
HETATM   12  C8  UNL     1      30.776   9.536  47.320  1.00  0.00     0.000 A 
HETATM   13  C9  UNL     1      30.723   9.283  48.697  1.00  0.00     0.002 A 
HETATM   14  C10 UNL     1      29.735   8.383  49.118  1.00  0.00     0.029 A 
ENDBRANCH   7   9
ENDBRANCH   4   5
ENDBRANCH   3   4
ENDBRANCH   2   3
BRANCH   2  15
HETATM   15  C11 UNL     1      25.103   3.046  50.494  1.00  0.00     0.313 C 
BRANCH  15  16
HETATM   16  C12 UNL     1      25.304   2.122  51.608  1.00  0.00     0.006 A 
HETATM   17  C13 UNL     1      24.255   1.315  52.003  1.00  0.00     0.030 A 
HETATM   18  C14 UNL     1      24.371   0.384  53.013  1.00  0.00     0.013 A 
HETATM   19 BR1  UNL     1      22.913  -0.744  53.567  1.00  0.00    -0.051 Br
HETATM   20  C15 UNL     1      25.573   0.201  53.706  1.00  0.00     0.041 A 
HETATM   21  C16 UNL     1      26.617   1.029  53.288  1.00  0.00     0.045 A 
HETATM   22 BR2  UNL     1      28.296   0.847  54.184  1.00  0.00    -0.048 Br
HETATM   23  C17 UNL     1      26.516   1.963  52.282  1.00  0.00     0.091 A 
BRANCH  23  24
HETATM   24  O2  UNL     1      27.619   2.733  51.956  1.00  0.00    -0.359 OA
HETATM   25  H18 UNL     1      28.227   2.575  51.160  1.00  0.00     0.217 HD
ENDBRANCH  23  24
ENDBRANCH  15  16
ENDBRANCH   2  15
TORSDOF 7
ENDMDL
MODEL 7
REMARK VINA RESULT:      -6.6      4.266      5.427
REMARK  7 active torsions:
REMARK  status: ('A' for Active; 'I' for Inactive)
REMARK    1  A    between atoms: N1_2  and  C2_3 
REMARK    2  A    between atoms: N1_2  and  C11_14 
REMARK    3  A    between atoms: C2_3  and  C3_4 
REMARK    4  A    between atoms: C3_4  and  C4_5 
REMARK       I    between atoms: C4_5  and  N2_7 
REMARK    5  A    between atoms: N2_7  and  C5_8 
REMARK    6  A    between atoms: C11_14  and  C12_15 
REMARK    7  A    between atoms: C17_22  and  O2_23 
ROOT
HETATM    1  C1  UNL     1      23.287   5.994  50.068  1.00  0.00     0.310 C 
HETATM    2  N1  UNL     1      24.511   5.349  50.415  1.00  0.00     0.088 N 
ENDROOT
BRANCH   2   3
HETATM    3  C2  UNL     1      25.668   6.145  50.030  1.00  0.00     0.281 C 
BRANCH   3   4
HETATM    4  C3  UNL     1      26.106   5.808  48.622  1.00  0.00     0.133 C 
BRANCH   4   5
HETATM    5  C4  UNL     1      27.570   5.693  48.599  1.00  0.00     0.223 C 
HETATM    6  O1  UNL     1      27.879   4.452  48.647  1.00  0.00    -0.273 OA
HETATM    7  N2  UNL     1      28.598   6.651  48.534  1.00  0.00    -0.327 N 
HETATM    8  H8  UNL     1      28.141   7.597  48.509  1.00  0.00     0.169 HD
BRANCH   7   9
HETATM    9  C5  UNL     1      29.982   6.497  48.502  1.00  0.00     0.034 A 
HETATM   10  C6  UNL     1      30.742   7.466  49.110  1.00  0.00     0.029 A 
HETATM   11  C7  UNL     1      32.133   7.370  49.095  1.00  0.00     0.002 A 
HETATM   12  C8  UNL     1      32.796   6.329  48.488  1.00  0.00     0.000 A 
HETATM   13  C9  UNL     1      32.050   5.323  47.859  1.00  0.00     0.002 A 
HETATM   14  C10 UNL     1      30.657   5.472  47.905  1.00  0.00     0.029 A 
ENDBRANCH   7   9
ENDBRANCH   4   5
ENDBRANCH   3   4
ENDBRANCH   2   3
BRANCH   2  15
HETATM   15  C11 UNL     1      24.664   4.038  49.873  1.00  0.00     0.313 C 
BRANCH  15  16
HETATM   16  C12 UNL     1      24.763   2.942  50.835  1.00  0.00     0.006 A 
HETATM   17  C13 UNL     1      23.625   2.225  51.151  1.00  0.00     0.030 A 
HETATM   18  C14 UNL     1      23.639   1.149  52.012  1.00  0.00     0.013 A 
HETATM   19 BR1  UNL     1      22.056   0.146  52.454  1.00  0.00    -0.051 Br
HETATM   20  C15 UNL     1      24.820   0.715  52.624  1.00  0.00     0.041 A 
HETATM   21  C16 UNL     1      25.955   1.456  52.289  1.00  0.00     0.045 A 
HETATM   22 BR2  UNL     1      27.613   0.932  53.083  1.00  0.00    -0.048 Br
HETATM   23  C17 UNL     1      25.958   2.533  51.432  1.00  0.00     0.091 A 
BRANCH  23  24
HETATM   24  O2  UNL     1      27.145   3.197  51.177  1.00  0.00    -0.359 OA
HETATM   25  H18 UNL     1      27.946   3.222  51.799  1.00  0.00     0.217 HD
ENDBRANCH  23  24
ENDBRANCH  15  16
ENDBRANCH   2  15
TORSDOF 7
ENDMDL
MODEL 8
REMARK VINA RESULT:      -6.5      1.469      2.494
REMARK  7 active torsions:
REMARK  status: ('A' for Active; 'I' for Inactive)
REMARK    1  A    between atoms: N1_2  and  C2_3 
REMARK    2  A    between atoms: N1_2  and  C11_14 
REMARK    3  A    between atoms: C2_3  and  C3_4 
REMARK    4  A    between atoms: C3_4  and  C4_5 
REMARK       I    between atoms: C4_5  and  N2_7 
REMARK    5  A    between atoms: N2_7  and  C5_8 
REMARK    6  A    between atoms: C11_14  and  C12_15 
REMARK    7  A    between atoms: C17_22  and  O2_23 
ROOT
HETATM    1  C1  UNL     1      22.235   5.463  51.744  1.00  0.00     0.310 C 
HETATM    2  N1  UNL     1      23.126   4.409  51.388  1.00  0.00     0.088 N 
ENDROOT
BRANCH   2   3
HETATM    3  C2  UNL     1      24.370   4.919  50.831  1.00  0.00     0.281 C 
BRANCH   3   4
HETATM    4  C3  UNL     1      24.999   3.903  49.904  1.00  0.00     0.133 C 
BRANCH   4   5
HETATM    5  C4  UNL     1      26.032   3.166  50.644  1.00  0.00     0.223 C 
HETATM    6  O1  UNL     1      27.080   3.096  49.914  1.00  0.00    -0.273 OA
HETATM    7  N2  UNL     1      26.048   2.578  51.922  1.00  0.00    -0.327 N 
HETATM    8  H8  UNL     1      25.103   2.737  52.350  1.00  0.00     0.169 HD
BRANCH   7   9
HETATM    9  C5  UNL     1      27.060   1.895  52.594  1.00  0.00     0.034 A 
HETATM   10  C6  UNL     1      27.049   0.523  52.529  1.00  0.00     0.029 A 
HETATM   11  C7  UNL     1      28.029  -0.212  53.196  1.00  0.00     0.002 A 
HETATM   12  C8  UNL     1      29.028   0.383  53.931  1.00  0.00     0.000 A 
HETATM   13  C9  UNL     1      29.067   1.781  54.017  1.00  0.00     0.002 A 
HETATM   14  C10 UNL     1      28.058   2.467  53.328  1.00  0.00     0.029 A 
ENDBRANCH   7   9
ENDBRANCH   4   5
ENDBRANCH   3   4
ENDBRANCH   2   3
BRANCH   2  15
HETATM   15  C11 UNL     1      22.581   3.455  50.478  1.00  0.00     0.313 C 
BRANCH  15  16
HETATM   16  C12 UNL     1      21.963   2.269  51.067  1.00  0.00     0.006 A 
HETATM   17  C13 UNL     1      22.694   1.509  51.960  1.00  0.00     0.030 A 
HETATM   18  C14 UNL     1      22.173   0.402  52.596  1.00  0.00     0.013 A 
HETATM   19 BR1  UNL     1      23.186  -0.658  53.843  1.00  0.00    -0.051 Br
HETATM   20  C15 UNL     1      20.858  -0.022  52.371  1.00  0.00     0.041 A 
HETATM   21  C16 UNL     1      20.142   0.762  51.463  1.00  0.00     0.045 A 
HETATM   22 BR2  UNL     1      18.337   0.251  51.094  1.00  0.00    -0.048 Br
HETATM   23  C17 UNL     1      20.648   1.869  50.820  1.00  0.00     0.091 A 
BRANCH  23  24
HETATM   24  O2  UNL     1      19.846   2.568  49.935  1.00  0.00    -0.359 OA
HETATM   25  H18 UNL     1      19.704   3.572  49.944  1.00  0.00     0.217 HD
ENDBRANCH  23  24
ENDBRANCH  15  16
ENDBRANCH   2  15
TORSDOF 7
ENDMDL
MODEL 9
REMARK VINA RESULT:      -6.4      2.500      6.557
REMARK  7 active torsions:
REMARK  status: ('A' for Active; 'I' for Inactive)
REMARK    1  A    between atoms: N1_2  and  C2_3 
REMARK    2  A    between atoms: N1_2  and  C11_14 
REMARK    3  A    between atoms: C2_3  and  C3_4 
REMARK    4  A    between atoms: C3_4  and  C4_5 
REMARK       I    between atoms: C4_5  and  N2_7 
REMARK    5  A    between atoms: N2_7  and  C5_8 
REMARK    6  A    between atoms: C11_14  and  C12_15 
REMARK    7  A    between atoms: C17_22  and  O2_23 
ROOT
HETATM    1  C1  UNL     1      23.891   4.724  50.097  1.00  0.00     0.310 C 
HETATM    2  N1  UNL     1      23.667   3.420  50.627  1.00  0.00     0.088 N 
ENDROOT
BRANCH   2   3
HETATM    3  C2  UNL     1      22.376   2.885  50.217  1.00  0.00     0.281 C 
BRANCH   3   4
HETATM    4  C3  UNL     1      21.247   3.638  50.887  1.00  0.00     0.133 C 
BRANCH   4   5
HETATM    5  C4  UNL     1      20.275   2.666  51.404  1.00  0.00     0.223 C 
HETATM    6  O1  UNL     1      19.598   3.228  52.333  1.00  0.00    -0.273 OA
HETATM    7  N2  UNL     1      19.993   1.331  51.065  1.00  0.00    -0.327 N 
HETATM    8  H8  UNL     1      20.655   1.058  50.296  1.00  0.00     0.169 HD
BRANCH   7   9
HETATM    9  C5  UNL     1      19.048   0.444  51.577  1.00  0.00     0.034 A 
HETATM   10  C6  UNL     1      17.849   0.342  50.913  1.00  0.00     0.029 A 
HETATM   11  C7  UNL     1      16.861  -0.518  51.391  1.00  0.00     0.002 A 
HETATM   12  C8  UNL     1      17.033  -1.288  52.518  1.00  0.00     0.000 A 
HETATM   13  C9  UNL     1      18.244  -1.208  53.217  1.00  0.00     0.002 A 
HETATM   14  C10 UNL     1      19.199  -0.328  52.692  1.00  0.00     0.029 A 
ENDBRANCH   7   9
ENDBRANCH   4   5
ENDBRANCH   3   4
ENDBRANCH   2   3
BRANCH   2  15
HETATM   15  C11 UNL     1      23.761   3.334  52.048  1.00  0.00     0.313 C 
BRANCH  15  16
HETATM   16  C12 UNL     1      24.208   2.055  52.597  1.00  0.00     0.006 A 
HETATM   17  C13 UNL     1      23.266   1.182  53.107  1.00  0.00     0.030 A 
HETATM   18  C14 UNL     1      23.596  -0.062  53.602  1.00  0.00     0.013 A 
HETATM   19 BR1  UNL     1      22.288  -1.283  54.312  1.00  0.00    -0.051 Br
HETATM   20  C15 UNL     1      24.919  -0.517  53.617  1.00  0.00     0.041 A 
HETATM   21  C16 UNL     1      25.850   0.384  53.097  1.00  0.00     0.045 A 
HETATM   22 BR2  UNL     1      27.684  -0.157  53.083  1.00  0.00    -0.048 Br
HETATM   23  C17 UNL     1      25.537   1.629  52.601  1.00  0.00     0.091 A 
BRANCH  23  24
HETATM   24  O2  UNL     1      26.547   2.442  52.115  1.00  0.00    -0.359 OA
HETATM   25  H18 UNL     1      26.409   3.349  51.684  1.00  0.00     0.217 HD
ENDBRANCH  23  24
ENDBRANCH  15  16
ENDBRANCH   2  15
TORSDOF 7
ENDMDL
