MODEL 1
REMARK VINA RESULT:      -8.1      0.000      0.000
REMARK  5 active torsions:
REMARK  status: ('A' for Active; 'I' for Inactive)
REMARK    1  A    between atoms: C2_2  and  O1_3 
REMARK    2  A    between atoms: C2_2  and  N1_4 
REMARK    3  A    between atoms: N1_4  and  C3_5 
REMARK    4  A    between atoms: C8_12  and  N4_13 
REMARK    5  A    between atoms: N4_13  and  C9_14 
ROOT
HETATM    1  C3  UNL     1      24.312  -0.466  53.686  1.00  0.00     0.035 A 
HETATM    2  C4  UNL     1      24.846  -0.711  54.920  1.00  0.00     0.032 A 
HETATM    3  C5  UNL     1      26.069  -0.100  55.191  1.00  0.00     0.035 A 
HETATM    4  C6  UNL     1      26.686   0.705  54.241  1.00  0.00     0.072 A 
HETATM    5  N2  UNL     1      27.859   1.273  54.508  1.00  0.00    -0.241 NA
HETATM    6  C7  UNL     1      28.451   2.044  53.576  1.00  0.00     0.236 A 
HETATM    7  N3  UNL     1      27.898   2.264  52.371  1.00  0.00    -0.224 NA
HETATM    8  C8  UNL     1      26.694   1.707  52.039  1.00  0.00     0.142 A 
HETATM    9  C16 UNL     1      26.112   0.925  53.009  1.00  0.00     0.041 A 
HETATM   10  C17 UNL     1      24.922   0.337  52.734  1.00  0.00     0.047 A 
ENDROOT
BRANCH   8  11
HETATM   11  N4  UNL     1      26.128   1.943  50.739  1.00  0.00    -0.340 N 
HETATM   12  H8  UNL     1      25.838   1.227  50.031  1.00  0.00     0.167 HD
BRANCH  11  13
HETATM   13  C9  UNL     1      25.937   3.304  50.373  1.00  0.00     0.034 A 
HETATM   14  C10 UNL     1      24.865   4.039  50.858  1.00  0.00     0.029 A 
HETATM   15  C11 UNL     1      24.580   5.357  50.565  1.00  0.00     0.003 A 
HETATM   16  C12 UNL     1      25.439   6.014  49.709  1.00  0.00     0.007 A 
HETATM   17  C13 UNL     1      26.538   5.338  49.182  1.00  0.00    -0.060 A 
HETATM   18  C14 UNL     1      27.406   6.099  48.278  1.00  0.00     0.048 C 
HETATM   19  C15 UNL     1      26.778   4.012  49.510  1.00  0.00     0.036 A 
ENDBRANCH  11  13
ENDBRANCH   8  11
BRANCH   1  20
HETATM   20  N1  UNL     1      23.074  -1.051  53.315  1.00  0.00    -0.338 N 
HETATM   21  H4  UNL     1      22.982  -1.643  52.433  1.00  0.00     0.168 HD
BRANCH  20  22
HETATM   22  C2  UNL     1      21.837  -0.928  54.050  1.00  0.00     0.130 C 
HETATM   23  C1  UNL     1      21.242   0.241  53.815  1.00  0.00     0.071 C 
BRANCH  22  24
HETATM   24  O1  UNL     1      21.093  -1.689  54.935  1.00  0.00    -0.347 OA
HETATM   25  H3  UNL     1      20.111  -1.916  54.727  1.00  0.00     0.219 HD
ENDBRANCH  22  24
ENDBRANCH  20  22
ENDBRANCH   1  20
TORSDOF 5
ENDMDL
MODEL 2
REMARK VINA RESULT:      -7.8      3.525      5.354
REMARK  5 active torsions:
REMARK  status: ('A' for Active; 'I' for Inactive)
REMARK    1  A    between atoms: C2_2  and  O1_3 
REMARK    2  A    between atoms: C2_2  and  N1_4 
REMARK    3  A    between atoms: N1_4  and  C3_5 
REMARK    4  A    between atoms: C8_12  and  N4_13 
REMARK    5  A    between atoms: N4_13  and  C9_14 
ROOT
HETATM    1  C3  UNL     1      21.252   1.058  52.251  1.00  0.00     0.035 A 
HETATM    2  C4  UNL     1      20.322   0.623  53.152  1.00  0.00     0.032 A 
HETATM    3  C5  UNL     1      20.807  -0.139  54.214  1.00  0.00     0.035 A 
HETATM    4  C6  UNL     1      22.163  -0.424  54.322  1.00  0.00     0.072 A 
HETATM    5  N2  UNL     1      22.611  -1.161  55.334  1.00  0.00    -0.241 NA
HETATM    6  C7  UNL     1      23.926  -1.438  55.424  1.00  0.00     0.236 A 
HETATM    7  N3  UNL     1      24.815  -0.994  54.518  1.00  0.00    -0.224 NA
HETATM    8  C8  UNL     1      24.414  -0.231  53.456  1.00  0.00     0.142 A 
HETATM    9  C16 UNL     1      23.066   0.035  53.390  1.00  0.00     0.041 A 
HETATM   10  C17 UNL     1      22.607   0.778  52.353  1.00  0.00     0.047 A 
ENDROOT
BRANCH   8  11
HETATM   11  N4  UNL     1      25.378   0.220  52.492  1.00  0.00    -0.340 N 
HETATM   12  H8  UNL     1      25.226   0.387  51.469  1.00  0.00     0.167 HD
BRANCH  11  13
HETATM   13  C9  UNL     1      26.690   0.472  52.983  1.00  0.00     0.034 A 
HETATM   14  C10 UNL     1      27.090   1.749  53.351  1.00  0.00     0.029 A 
HETATM   15  C11 UNL     1      28.334   2.107  53.831  1.00  0.00     0.003 A 
HETATM   16  C12 UNL     1      29.273   1.106  53.960  1.00  0.00     0.007 A 
HETATM   17  C13 UNL     1      28.941  -0.202  53.610  1.00  0.00    -0.060 A 
HETATM   18  C14 UNL     1      29.992  -1.212  53.772  1.00  0.00     0.048 C 
HETATM   19  C15 UNL     1      27.676  -0.507  53.131  1.00  0.00     0.036 A 
ENDBRANCH  11  13
ENDBRANCH   8  11
BRANCH   1  20
HETATM   20  N1  UNL     1      20.854   1.833  51.131  1.00  0.00    -0.338 N 
HETATM   21  H4  UNL     1      20.985   2.890  51.114  1.00  0.00     0.168 HD
BRANCH  20  22
HETATM   22  C2  UNL     1      20.252   1.313  49.926  1.00  0.00     0.130 C 
HETATM   23  C1  UNL     1      21.164   1.084  48.981  1.00  0.00     0.071 C 
BRANCH  22  24
HETATM   24  O1  UNL     1      18.984   0.986  49.474  1.00  0.00    -0.347 OA
HETATM   25  H3  UNL     1      18.619   1.402  48.607  1.00  0.00     0.219 HD
ENDBRANCH  22  24
ENDBRANCH  20  22
ENDBRANCH   1  20
TORSDOF 5
ENDMDL
MODEL 3
REMARK VINA RESULT:      -7.8      2.060      5.022
REMARK  5 active torsions:
REMARK  status: ('A' for Active; 'I' for Inactive)
REMARK    1  A    between atoms: C2_2  and  O1_3 
REMARK    2  A    between atoms: C2_2  and  N1_4 
REMARK    3  A    between atoms: N1_4  and  C3_5 
REMARK    4  A    between atoms: C8_12  and  N4_13 
REMARK    5  A    between atoms: N4_13  and  C9_14 
ROOT
HETATM    1  C3  UNL     1      22.220   1.075  52.488  1.00  0.00     0.035 A 
HETATM    2  C4  UNL     1      21.540   1.242  51.315  1.00  0.00     0.032 A 
HETATM    3  C5  UNL     1      22.232   1.888  50.291  1.00  0.00     0.035 A 
HETATM    4  C6  UNL     1      23.536   2.326  50.484  1.00  0.00     0.072 A 
HETATM    5  N2  UNL     1      24.182   2.951  49.503  1.00  0.00    -0.241 NA
HETATM    6  C7  UNL     1      25.443   3.378  49.704  1.00  0.00     0.236 A 
HETATM    7  N3  UNL     1      26.083   3.198  50.872  1.00  0.00    -0.224 NA
HETATM    8  C8  UNL     1      25.472   2.562  51.917  1.00  0.00     0.142 A 
HETATM    9  C16 UNL     1      24.185   2.136  51.684  1.00  0.00     0.041 A 
HETATM   10  C17 UNL     1      23.522   1.509  52.686  1.00  0.00     0.047 A 
ENDROOT
BRANCH   8  11
HETATM   11  N4  UNL     1      26.169   2.393  53.162  1.00  0.00    -0.340 N 
HETATM   12  H8  UNL     1      26.071   2.971  54.030  1.00  0.00     0.167 HD
BRANCH  11  13
HETATM   13  C9  UNL     1      27.097   1.315  53.223  1.00  0.00     0.034 A 
HETATM   14  C10 UNL     1      28.414   1.519  53.606  1.00  0.00     0.029 A 
HETATM   15  C11 UNL     1      29.396   0.552  53.695  1.00  0.00     0.003 A 
HETATM   16  C12 UNL     1      29.041  -0.740  53.374  1.00  0.00     0.007 A 
HETATM   17  C13 UNL     1      27.733  -1.019  52.980  1.00  0.00    -0.060 A 
HETATM   18  C14 UNL     1      27.429  -2.416  52.652  1.00  0.00     0.048 C 
HETATM   19  C15 UNL     1      26.785  -0.010  52.908  1.00  0.00     0.036 A 
ENDBRANCH  11  13
ENDBRANCH   8  11
BRANCH   1  20
HETATM   20  N1  UNL     1      21.596   0.436  53.591  1.00  0.00    -0.338 N 
HETATM   21  H4  UNL     1      20.671   0.789  53.985  1.00  0.00     0.168 HD
BRANCH  20  22
HETATM   22  C2  UNL     1      22.107  -0.722  54.286  1.00  0.00     0.130 C 
HETATM   23  C1  UNL     1      21.222  -1.718  54.295  1.00  0.00     0.071 C 
BRANCH  22  24
HETATM   24  O1  UNL     1      23.266  -1.088  54.949  1.00  0.00    -0.347 OA
HETATM   25  H3  UNL     1      23.232  -1.362  55.941  1.00  0.00     0.219 HD
ENDBRANCH  22  24
ENDBRANCH  20  22
ENDBRANCH   1  20
TORSDOF 5
ENDMDL
MODEL 4
REMARK VINA RESULT:      -7.7      2.607      4.370
REMARK  5 active torsions:
REMARK  status: ('A' for Active; 'I' for Inactive)
REMARK    1  A    between atoms: C2_2  and  O1_3 
REMARK    2  A    between atoms: C2_2  and  N1_4 
REMARK    3  A    between atoms: N1_4  and  C3_5 
REMARK    4  A    between atoms: C8_12  and  N4_13 
REMARK    5  A    between atoms: N4_13  and  C9_14 
ROOT
HETATM    1  C3  UNL     1      26.088   0.988  53.979  1.00  0.00     0.035 A 
HETATM    2  C4  UNL     1      25.630  -0.299  54.002  1.00  0.00     0.032 A 
HETATM    3  C5  UNL     1      24.378  -0.514  53.429  1.00  0.00     0.035 A 
HETATM    4  C6  UNL     1      23.660   0.539  52.875  1.00  0.00     0.072 A 
HETATM    5  N2  UNL     1      22.462   0.322  52.340  1.00  0.00    -0.241 NA
HETATM    6  C7  UNL     1      21.772   1.352  51.814  1.00  0.00     0.236 A 
HETATM    7  N3  UNL     1      22.253   2.608  51.809  1.00  0.00    -0.224 NA
HETATM    8  C8  UNL     1      23.479   2.892  52.342  1.00  0.00     0.142 A 
HETATM    9  C16 UNL     1      24.161   1.822  52.873  1.00  0.00     0.041 A 
HETATM   10  C17 UNL     1      25.378   2.044  53.427  1.00  0.00     0.047 A 
ENDROOT
BRANCH   8  11
HETATM   11  N4  UNL     1      23.967   4.244  52.339  1.00  0.00    -0.340 N 
HETATM   12  H8  UNL     1      24.025   4.902  53.153  1.00  0.00     0.167 HD
BRANCH  11  13
HETATM   13  C9  UNL     1      24.428   4.745  51.089  1.00  0.00     0.034 A 
HETATM   14  C10 UNL     1      23.634   5.570  50.306  1.00  0.00     0.029 A 
HETATM   15  C11 UNL     1      23.975   6.105  49.080  1.00  0.00     0.003 A 
HETATM   16  C12 UNL     1      25.223   5.796  48.581  1.00  0.00     0.007 A 
HETATM   17  C13 UNL     1      26.075   4.972  49.315  1.00  0.00    -0.060 A 
HETATM   18  C14 UNL     1      27.384   4.685  48.720  1.00  0.00     0.048 C 
HETATM   19  C15 UNL     1      25.682   4.460  50.542  1.00  0.00     0.036 A 
ENDBRANCH  11  13
ENDBRANCH   8  11
BRANCH   1  20
HETATM   20  N1  UNL     1      27.349   1.308  54.546  1.00  0.00    -0.338 N 
HETATM   21  H4  UNL     1      27.491   1.334  55.602  1.00  0.00     0.168 HD
BRANCH  20  22
HETATM   22  C2  UNL     1      28.546   1.622  53.802  1.00  0.00     0.130 C 
HETATM   23  C1  UNL     1      29.401   0.600  53.796  1.00  0.00     0.071 C 
BRANCH  22  24
HETATM   24  O1  UNL     1      29.056   2.694  53.089  1.00  0.00    -0.347 OA
HETATM   25  H3  UNL     1      28.547   3.587  53.059  1.00  0.00     0.219 HD
ENDBRANCH  22  24
ENDBRANCH  20  22
ENDBRANCH   1  20
TORSDOF 5
ENDMDL
MODEL 5
REMARK VINA RESULT:      -7.5      2.785      4.650
REMARK  5 active torsions:
REMARK  status: ('A' for Active; 'I' for Inactive)
REMARK    1  A    between atoms: C2_2  and  O1_3 
REMARK    2  A    between atoms: C2_2  and  N1_4 
REMARK    3  A    between atoms: N1_4  and  C3_5 
REMARK    4  A    between atoms: C8_12  and  N4_13 
REMARK    5  A    between atoms: N4_13  and  C9_14 
ROOT
HETATM    1  C3  UNL     1      26.132   1.099  53.978  1.00  0.00     0.035 A 
HETATM    2  C4  UNL     1      25.636  -0.173  53.925  1.00  0.00     0.032 A 
HETATM    3  C5  UNL     1      24.375  -0.317  53.349  1.00  0.00     0.035 A 
HETATM    4  C6  UNL     1      23.685   0.789  52.866  1.00  0.00     0.072 A 
HETATM    5  N2  UNL     1      22.478   0.640  52.328  1.00  0.00    -0.241 NA
HETATM    6  C7  UNL     1      21.816   1.719  51.872  1.00  0.00     0.236 A 
HETATM    7  N3  UNL     1      22.333   2.959  51.940  1.00  0.00    -0.224 NA
HETATM    8  C8  UNL     1      23.570   3.175  52.481  1.00  0.00     0.142 A 
HETATM    9  C16 UNL     1      24.223   2.055  52.940  1.00  0.00     0.041 A 
HETATM   10  C17 UNL     1      25.449   2.207  53.497  1.00  0.00     0.047 A 
ENDROOT
BRANCH   8  11
HETATM   11  N4  UNL     1      24.097   4.509  52.558  1.00  0.00    -0.340 N 
HETATM   12  H8  UNL     1      24.419   5.019  53.415  1.00  0.00     0.167 HD
BRANCH  11  13
HETATM   13  C9  UNL     1      24.196   5.219  51.329  1.00  0.00     0.034 A 
HETATM   14  C10 UNL     1      24.983   4.752  50.286  1.00  0.00     0.029 A 
HETATM   15  C11 UNL     1      25.156   5.359  49.059  1.00  0.00     0.003 A 
HETATM   16  C12 UNL     1      24.486   6.544  48.841  1.00  0.00     0.007 A 
HETATM   17  C13 UNL     1      23.676   7.074  49.844  1.00  0.00    -0.060 A 
HETATM   18  C14 UNL     1      22.998   8.338  49.541  1.00  0.00     0.048 C 
HETATM   19  C15 UNL     1      23.538   6.423  51.060  1.00  0.00     0.036 A 
ENDBRANCH  11  13
ENDBRANCH   8  11
BRANCH   1  20
HETATM   20  N1  UNL     1      27.404   1.347  54.555  1.00  0.00    -0.338 N 
HETATM   21  H4  UNL     1      27.548   1.329  55.611  1.00  0.00     0.168 HD
BRANCH  20  22
HETATM   22  C2  UNL     1      28.613   1.639  53.820  1.00  0.00     0.130 C 
HETATM   23  C1  UNL     1      29.384   0.559  53.696  1.00  0.00     0.071 C 
BRANCH  22  24
HETATM   24  O1  UNL     1      29.198   2.734  53.207  1.00  0.00    -0.347 OA
HETATM   25  H3  UNL     1      28.650   3.326  52.568  1.00  0.00     0.219 HD
ENDBRANCH  22  24
ENDBRANCH  20  22
ENDBRANCH   1  20
TORSDOF 5
ENDMDL
MODEL 6
REMARK VINA RESULT:      -7.4      2.403      4.624
REMARK  5 active torsions:
REMARK  status: ('A' for Active; 'I' for Inactive)
REMARK    1  A    between atoms: C2_2  and  O1_3 
REMARK    2  A    between atoms: C2_2  and  N1_4 
REMARK    3  A    between atoms: N1_4  and  C3_5 
REMARK    4  A    between atoms: C8_12  and  N4_13 
REMARK    5  A    between atoms: N4_13  and  C9_14 
ROOT
HETATM    1  C3  UNL     1      25.148  -0.696  54.341  1.00  0.00     0.035 A 
HETATM    2  C4  UNL     1      24.687  -1.259  55.497  1.00  0.00     0.032 A 
HETATM    3  C5  UNL     1      23.301  -1.337  55.630  1.00  0.00     0.035 A 
HETATM    4  C6  UNL     1      22.464  -0.860  54.629  1.00  0.00     0.072 A 
HETATM    5  N2  UNL     1      21.144  -0.930  54.773  1.00  0.00    -0.241 NA
HETATM    6  C7  UNL     1      20.343  -0.457  53.800  1.00  0.00     0.236 A 
HETATM    7  N3  UNL     1      20.831   0.092  52.674  1.00  0.00    -0.224 NA
HETATM    8  C8  UNL     1      22.179   0.191  52.468  1.00  0.00     0.142 A 
HETATM    9  C16 UNL     1      22.973  -0.300  53.478  1.00  0.00     0.041 A 
HETATM   10  C17 UNL     1      24.318  -0.219  53.337  1.00  0.00     0.047 A 
ENDROOT
BRANCH   8  11
HETATM   11  N4  UNL     1      22.679   0.795  51.264  1.00  0.00    -0.340 N 
HETATM   12  H8  UNL     1      22.799   0.342  50.327  1.00  0.00     0.167 HD
BRANCH  11  13
HETATM   13  C9  UNL     1      23.052   2.165  51.354  1.00  0.00     0.034 A 
HETATM   14  C10 UNL     1      22.365   3.048  52.174  1.00  0.00     0.029 A 
HETATM   15  C11 UNL     1      22.634   4.393  52.333  1.00  0.00     0.003 A 
HETATM   16  C12 UNL     1      23.686   4.915  51.611  1.00  0.00     0.007 A 
HETATM   17  C13 UNL     1      24.423   4.086  50.766  1.00  0.00    -0.060 A 
HETATM   18  C14 UNL     1      25.525   4.712  50.029  1.00  0.00     0.048 C 
HETATM   19  C15 UNL     1      24.109   2.741  50.643  1.00  0.00     0.036 A 
ENDBRANCH  11  13
ENDBRANCH   8  11
BRANCH   1  20
HETATM   20  N1  UNL     1      26.543  -0.565  54.117  1.00  0.00    -0.338 N 
HETATM   21  H4  UNL     1      27.122  -1.374  53.732  1.00  0.00     0.168 HD
BRANCH  20  22
HETATM   22  C2  UNL     1      27.323   0.624  54.367  1.00  0.00     0.130 C 
HETATM   23  C1  UNL     1      28.576   0.326  54.709  1.00  0.00     0.071 C 
BRANCH  22  24
HETATM   24  O1  UNL     1      27.131   1.995  54.352  1.00  0.00    -0.347 OA
HETATM   25  H3  UNL     1      27.448   2.573  55.143  1.00  0.00     0.219 HD
ENDBRANCH  22  24
ENDBRANCH  20  22
ENDBRANCH   1  20
TORSDOF 5
ENDMDL
MODEL 7
REMARK VINA RESULT:      -7.3      3.041      5.804
REMARK  5 active torsions:
REMARK  status: ('A' for Active; 'I' for Inactive)
REMARK    1  A    between atoms: C2_2  and  O1_3 
REMARK    2  A    between atoms: C2_2  and  N1_4 
REMARK    3  A    between atoms: N1_4  and  C3_5 
REMARK    4  A    between atoms: C8_12  and  N4_13 
REMARK    5  A    between atoms: N4_13  and  C9_14 
ROOT
HETATM    1  C3  UNL     1      22.125   3.245  51.554  1.00  0.00     0.035 A 
HETATM    2  C4  UNL     1      20.974   2.959  52.233  1.00  0.00     0.032 A 
HETATM    3  C5  UNL     1      21.004   1.824  53.041  1.00  0.00     0.035 A 
HETATM    4  C6  UNL     1      22.152   1.047  53.130  1.00  0.00     0.072 A 
HETATM    5  N2  UNL     1      22.165  -0.040  53.897  1.00  0.00    -0.241 NA
HETATM    6  C7  UNL     1      23.280  -0.790  53.969  1.00  0.00     0.236 A 
HETATM    7  N3  UNL     1      24.397  -0.480  53.287  1.00  0.00    -0.224 NA
HETATM    8  C8  UNL     1      24.445   0.625  52.483  1.00  0.00     0.142 A 
HETATM    9  C16 UNL     1      23.291   1.372  52.428  1.00  0.00     0.041 A 
HETATM   10  C17 UNL     1      23.275   2.474  51.640  1.00  0.00     0.047 A 
ENDROOT
BRANCH   8  11
HETATM   11  N4  UNL     1      25.644   0.929  51.751  1.00  0.00    -0.340 N 
HETATM   12  H8  UNL     1      25.729   1.138  50.728  1.00  0.00     0.167 HD
BRANCH  11  13
HETATM   13  C9  UNL     1      26.852   0.951  52.502  1.00  0.00     0.034 A 
HETATM   14  C10 UNL     1      27.344   2.130  53.044  1.00  0.00     0.029 A 
HETATM   15  C11 UNL     1      28.503   2.268  53.781  1.00  0.00     0.003 A 
HETATM   16  C12 UNL     1      29.249   1.130  54.003  1.00  0.00     0.007 A 
HETATM   17  C13 UNL     1      28.815  -0.091  53.489  1.00  0.00    -0.060 A 
HETATM   18  C14 UNL     1      29.661  -1.257  53.764  1.00  0.00     0.048 C 
HETATM   19  C15 UNL     1      27.642  -0.174  52.755  1.00  0.00     0.036 A 
ENDBRANCH  11  13
ENDBRANCH   8  11
BRANCH   1  20
HETATM   20  N1  UNL     1      22.188   4.375  50.699  1.00  0.00    -0.338 N 
HETATM   21  H4  UNL     1      22.046   4.284  49.647  1.00  0.00     0.168 HD
BRANCH  20  22
HETATM   22  C2  UNL     1      22.440   5.732  51.124  1.00  0.00     0.130 C 
HETATM   23  C1  UNL     1      23.746   5.983  51.218  1.00  0.00     0.071 C 
BRANCH  22  24
HETATM   24  O1  UNL     1      21.700   6.852  51.464  1.00  0.00    -0.347 OA
HETATM   25  H3  UNL     1      20.786   7.024  51.023  1.00  0.00     0.219 HD
ENDBRANCH  22  24
ENDBRANCH  20  22
ENDBRANCH   1  20
TORSDOF 5
ENDMDL
MODEL 8
REMARK VINA RESULT:      -7.3      1.792      2.563
REMARK  5 active torsions:
REMARK  status: ('A' for Active; 'I' for Inactive)
REMARK    1  A    between atoms: C2_2  and  O1_3 
REMARK    2  A    between atoms: C2_2  and  N1_4 
REMARK    3  A    between atoms: N1_4  and  C3_5 
REMARK    4  A    between atoms: C8_12  and  N4_13 
REMARK    5  A    between atoms: N4_13  and  C9_14 
ROOT
HETATM    1  C3  UNL     1      21.432  -0.161  54.037  1.00  0.00     0.035 A 
HETATM    2  C4  UNL     1      22.011  -0.938  55.000  1.00  0.00     0.032 A 
HETATM    3  C5  UNL     1      23.397  -1.067  54.932  1.00  0.00     0.035 A 
HETATM    4  C6  UNL     1      24.121  -0.431  53.931  1.00  0.00     0.072 A 
HETATM    5  N2  UNL     1      25.442  -0.571  53.871  1.00  0.00    -0.241 NA
HETATM    6  C7  UNL     1      26.131   0.043  52.891  1.00  0.00     0.236 A 
HETATM    7  N3  UNL     1      25.529   0.801  51.958  1.00  0.00    -0.224 NA
HETATM    8  C8  UNL     1      24.174   0.983  51.968  1.00  0.00     0.142 A 
HETATM    9  C16 UNL     1      23.496   0.344  52.980  1.00  0.00     0.041 A 
HETATM   10  C17 UNL     1      22.148   0.478  53.036  1.00  0.00     0.047 A 
ENDROOT
BRANCH   8  11
HETATM   11  N4  UNL     1      23.550   1.785  50.953  1.00  0.00    -0.340 N 
HETATM   12  H8  UNL     1      22.815   1.486  50.267  1.00  0.00     0.167 HD
BRANCH  11  13
HETATM   13  C9  UNL     1      23.974   3.140  50.870  1.00  0.00     0.034 A 
HETATM   14  C10 UNL     1      23.461   4.111  51.718  1.00  0.00     0.029 A 
HETATM   15  C11 UNL     1      23.795   5.450  51.722  1.00  0.00     0.003 A 
HETATM   16  C12 UNL     1      24.728   5.871  50.798  1.00  0.00     0.007 A 
HETATM   17  C13 UNL     1      25.288   4.950  49.913  1.00  0.00    -0.060 A 
HETATM   18  C14 UNL     1      26.271   5.471  48.958  1.00  0.00     0.048 C 
HETATM   19  C15 UNL     1      24.916   3.615  49.952  1.00  0.00     0.036 A 
ENDBRANCH  11  13
ENDBRANCH   8  11
BRANCH   1  20
HETATM   20  N1  UNL     1      20.025   0.023  54.018  1.00  0.00    -0.338 N 
HETATM   21  H4  UNL     1      19.574   0.896  54.432  1.00  0.00     0.168 HD
BRANCH  20  22
HETATM   22  C2  UNL     1      19.068  -0.902  53.460  1.00  0.00     0.130 C 
HETATM   23  C1  UNL     1      18.661  -0.517  52.251  1.00  0.00     0.071 C 
BRANCH  22  24
HETATM   24  O1  UNL     1      18.449  -2.084  53.833  1.00  0.00    -0.347 OA
HETATM   25  H3  UNL     1      18.962  -2.787  54.382  1.00  0.00     0.219 HD
ENDBRANCH  22  24
ENDBRANCH  20  22
ENDBRANCH   1  20
TORSDOF 5
ENDMDL
MODEL 9
REMARK VINA RESULT:      -7.2      3.919      7.681
REMARK  5 active torsions:
REMARK  status: ('A' for Active; 'I' for Inactive)
REMARK    1  A    between atoms: C2_2  and  O1_3 
REMARK    2  A    between atoms: C2_2  and  N1_4 
REMARK    3  A    between atoms: N1_4  and  C3_5 
REMARK    4  A    between atoms: C8_12  and  N4_13 
REMARK    5  A    between atoms: N4_13  and  C9_14 
ROOT
HETATM    1  C3  UNL     1      25.358   7.165  50.262  1.00  0.00     0.035 A 
HETATM    2  C4  UNL     1      24.389   8.095  50.509  1.00  0.00     0.032 A 
HETATM    3  C5  UNL     1      23.107   7.599  50.739  1.00  0.00     0.035 A 
HETATM    4  C6  UNL     1      22.859   6.232  50.709  1.00  0.00     0.072 A 
HETATM    5  N2  UNL     1      21.630   5.771  50.918  1.00  0.00    -0.241 NA
HETATM    6  C7  UNL     1      21.400   4.445  50.878  1.00  0.00     0.236 A 
HETATM    7  N3  UNL     1      22.378   3.556  50.631  1.00  0.00    -0.224 NA
HETATM    8  C8  UNL     1      23.663   3.969  50.408  1.00  0.00     0.142 A 
HETATM    9  C16 UNL     1      23.867   5.328  50.455  1.00  0.00     0.041 A 
HETATM   10  C17 UNL     1      25.119   5.799  50.231  1.00  0.00     0.047 A 
ENDROOT
BRANCH   8  11
HETATM   11  N4  UNL     1      24.689   3.003  50.131  1.00  0.00    -0.340 N 
HETATM   12  H8  UNL     1      25.062   2.722  49.193  1.00  0.00     0.167 HD
BRANCH  11  13
HETATM   13  C9  UNL     1      25.268   2.356  51.259  1.00  0.00     0.034 A 
HETATM   14  C10 UNL     1      24.583   1.372  51.956  1.00  0.00     0.029 A 
HETATM   15  C11 UNL     1      25.043   0.686  53.062  1.00  0.00     0.003 A 
HETATM   16  C12 UNL     1      26.303   1.004  53.523  1.00  0.00     0.007 A 
HETATM   17  C13 UNL     1      27.050   1.984  52.871  1.00  0.00    -0.060 A 
HETATM   18  C14 UNL     1      28.380   2.269  53.419  1.00  0.00     0.048 C 
HETATM   19  C15 UNL     1      26.539   2.643  51.763  1.00  0.00     0.036 A 
ENDBRANCH  11  13
ENDBRANCH   8  11
BRANCH   1  20
HETATM   20  N1  UNL     1      26.693   7.574  50.008  1.00  0.00    -0.338 N 
HETATM   21  H4  UNL     1      27.433   6.880  49.680  1.00  0.00     0.168 HD
BRANCH  20  22
HETATM   22  C2  UNL     1      27.197   8.919  50.151  1.00  0.00     0.130 C 
HETATM   23  C1  UNL     1      27.296   9.534  48.972  1.00  0.00     0.071 C 
BRANCH  22  24
HETATM   24  O1  UNL     1      27.610   9.754  51.176  1.00  0.00    -0.347 OA
HETATM   25  H3  UNL     1      27.041  10.568  51.443  1.00  0.00     0.219 HD
ENDBRANCH  22  24
ENDBRANCH  20  22
ENDBRANCH   1  20
TORSDOF 5
ENDMDL
