MODEL 1
REMARK VINA RESULT:      -8.8      0.000      0.000
REMARK  2 active torsions:
REMARK  status: ('A' for Active; 'I' for Inactive)
REMARK    1  A    between atoms: O1_1  and  C1_2 
REMARK    2  A    between atoms: C3_4  and  C4_5 
ROOT
HETATM    1  C4  UNL     1      24.618   1.271  52.965  1.00  0.00     0.059 C 
HETATM    2  C5  UNL     1      23.670   0.360  53.106  1.00  0.00     0.114 C 
HETATM    3  N1  UNL     1      22.281   0.605  53.297  1.00  0.00    -0.392 N 
HETATM    4  C6  UNL     1      21.222   0.063  52.475  1.00  0.00     0.081 A 
HETATM    5  C7  UNL     1      21.454   0.218  51.000  1.00  0.00     0.031 A 
HETATM    6  C8  UNL     1      20.369   1.258  50.914  1.00  0.00     0.018 A 
HETATM    7  C9  UNL     1      20.108   1.077  52.382  1.00  0.00     0.031 A 
HETATM    8  C10 UNL     1      20.966   2.590  50.553  1.00  0.00     0.280 C 
HETATM    9  N2  UNL     1      20.445   3.681  51.350  1.00  0.00     0.113 N 
HETATM   10  C11 UNL     1      20.326   4.880  50.506  1.00  0.00     0.279 C 
HETATM   11  C12 UNL     1      21.829   5.046  50.670  1.00  0.00     0.089 C 
HETATM   12  C13 UNL     1      21.552   4.388  52.005  1.00  0.00     0.346 C 
HETATM   13  N3  UNL     1      22.551   3.493  52.502  1.00  0.00    -0.249 NA
HETATM   14  C14 UNL     1      23.790   3.831  52.388  1.00  0.00     0.203 C 
HETATM   15  N4  UNL     1      24.276   2.662  53.000  1.00  0.00    -0.349 N 
HETATM   16  H4  UNL     1      22.225   1.247  54.141  1.00  0.00     0.159 HD
HETATM   17  H19 UNL     1      24.553   2.786  53.997  1.00  0.00     0.166 HD
ENDROOT
BRANCH   1  18
HETATM   18  C3  UNL     1      26.026   0.882  52.773  1.00  0.00     0.006 C 
HETATM   19  C2  UNL     1      26.992   1.958  52.839  1.00  0.00     0.051 C 
HETATM   20  C1  UNL     1      28.280   1.811  53.138  1.00  0.00     0.066 C 
HETATM   21  C18 UNL     1      29.053   0.607  53.466  1.00  0.00     0.036 C 
HETATM   22  C17 UNL     1      28.578  -0.643  53.399  1.00  0.00     0.004 C 
HETATM   23  C16 UNL     1      27.225  -1.060  52.995  1.00  0.00     0.013 C 
HETATM   24  C15 UNL     1      26.206  -0.371  52.571  1.00  0.00    -0.012 C 
BRANCH  20  25
HETATM   25  O1  UNL     1      29.039   2.987  53.145  1.00  0.00    -0.361 OA
HETATM   26  H1  UNL     1      30.002   2.919  53.501  1.00  0.00     0.217 HD
ENDBRANCH  20  25
ENDBRANCH   1  18
TORSDOF 2
ENDMDL
MODEL 2
REMARK VINA RESULT:      -8.3      2.150      3.750
REMARK  2 active torsions:
REMARK  status: ('A' for Active; 'I' for Inactive)
REMARK    1  A    between atoms: O1_1  and  C1_2 
REMARK    2  A    between atoms: C3_4  and  C4_5 
ROOT
HETATM    1  C4  UNL     1      25.852   1.859  51.498  1.00  0.00     0.059 C 
HETATM    2  C5  UNL     1      26.287   2.706  50.579  1.00  0.00     0.114 C 
HETATM    3  N1  UNL     1      25.515   3.302  49.543  1.00  0.00    -0.392 N 
HETATM    4  C6  UNL     1      25.410   4.723  49.298  1.00  0.00     0.081 A 
HETATM    5  C7  UNL     1      25.118   5.534  50.528  1.00  0.00     0.031 A 
HETATM    6  C8  UNL     1      23.719   5.809  50.043  1.00  0.00     0.018 A 
HETATM    7  C9  UNL     1      24.021   5.031  48.794  1.00  0.00     0.031 A 
HETATM    8  C10 UNL     1      22.724   5.148  50.956  1.00  0.00     0.280 C 
HETATM    9  N2  UNL     1      21.669   4.459  50.243  1.00  0.00     0.113 N 
HETATM   10  C11 UNL     1      20.407   4.613  50.983  1.00  0.00     0.279 C 
HETATM   11  C12 UNL     1      20.922   3.535  51.925  1.00  0.00     0.089 C 
HETATM   12  C13 UNL     1      21.619   3.056  50.670  1.00  0.00     0.346 C 
HETATM   13  N3  UNL     1      22.922   2.490  50.832  1.00  0.00    -0.249 NA
HETATM   14  C14 UNL     1      23.125   1.688  51.822  1.00  0.00     0.203 C 
HETATM   15  N4  UNL     1      24.476   1.463  51.501  1.00  0.00    -0.349 N 
HETATM   16  H4  UNL     1      25.064   2.489  49.029  1.00  0.00     0.159 HD
HETATM   17  H19 UNL     1      24.653   0.561  51.010  1.00  0.00     0.166 HD
ENDROOT
BRANCH   1  18
HETATM   18  C3  UNL     1      26.760   1.313  52.521  1.00  0.00     0.006 C 
HETATM   19  C2  UNL     1      26.810  -0.130  52.615  1.00  0.00     0.051 C 
HETATM   20  C1  UNL     1      27.827  -0.829  53.110  1.00  0.00     0.066 C 
HETATM   21  C18 UNL     1      29.109  -0.384  53.669  1.00  0.00     0.036 C 
HETATM   22  C17 UNL     1      29.437   0.894  53.895  1.00  0.00     0.004 C 
HETATM   23  C16 UNL     1      28.608   2.084  53.639  1.00  0.00     0.013 C 
HETATM   24  C15 UNL     1      27.390   2.201  53.198  1.00  0.00    -0.012 C 
BRANCH  20  25
HETATM   25  O1  UNL     1      27.667  -2.220  53.106  1.00  0.00    -0.361 OA
HETATM   26  H1  UNL     1      27.571  -2.681  54.021  1.00  0.00     0.217 HD
ENDBRANCH  20  25
ENDBRANCH   1  18
TORSDOF 2
ENDMDL
MODEL 3
REMARK VINA RESULT:      -8.3      2.035      2.392
REMARK  2 active torsions:
REMARK  status: ('A' for Active; 'I' for Inactive)
REMARK    1  A    between atoms: O1_1  and  C1_2 
REMARK    2  A    between atoms: C3_4  and  C4_5 
ROOT
HETATM    1  C4  UNL     1      24.993   0.880  53.331  1.00  0.00     0.059 C 
HETATM    2  C5  UNL     1      23.766   0.456  53.587  1.00  0.00     0.114 C 
HETATM    3  N1  UNL     1      22.555   1.138  53.283  1.00  0.00    -0.392 N 
HETATM    4  C6  UNL     1      21.460   0.586  52.518  1.00  0.00     0.081 A 
HETATM    5  C7  UNL     1      21.881  -0.067  51.233  1.00  0.00     0.031 A 
HETATM    6  C8  UNL     1      21.271   1.056  50.436  1.00  0.00     0.018 A 
HETATM    7  C9  UNL     1      20.815   1.691  51.718  1.00  0.00     0.031 A 
HETATM    8  C10 UNL     1      22.352   1.818  49.721  1.00  0.00     0.280 C 
HETATM    9  N2  UNL     1      22.194   3.254  49.817  1.00  0.00     0.113 N 
HETATM   10  C11 UNL     1      22.612   3.872  48.549  1.00  0.00     0.279 C 
HETATM   11  C12 UNL     1      24.045   3.670  49.018  1.00  0.00     0.089 C 
HETATM   12  C13 UNL     1      23.411   3.850  50.380  1.00  0.00     0.346 C 
HETATM   13  N3  UNL     1      23.952   3.071  51.451  1.00  0.00    -0.249 NA
HETATM   14  C14 UNL     1      25.233   2.951  51.537  1.00  0.00     0.203 C 
HETATM   15  N4  UNL     1      25.188   2.144  52.688  1.00  0.00    -0.349 N 
HETATM   16  H4  UNL     1      22.654   2.096  53.732  1.00  0.00     0.159 HD
HETATM   17  H19 UNL     1      25.388   2.653  53.574  1.00  0.00     0.166 HD
ENDROOT
BRANCH   1  18
HETATM   18  C3  UNL     1      26.169   0.071  53.699  1.00  0.00     0.006 C 
HETATM   19  C2  UNL     1      26.282  -1.213  53.041  1.00  0.00     0.051 C 
HETATM   20  C1  UNL     1      27.417  -1.884  52.866  1.00  0.00     0.066 C 
HETATM   21  C18 UNL     1      28.792  -1.553  53.256  1.00  0.00     0.036 C 
HETATM   22  C17 UNL     1      29.136  -0.500  54.009  1.00  0.00     0.004 C 
HETATM   23  C16 UNL     1      28.238   0.513  54.585  1.00  0.00     0.013 C 
HETATM   24  C15 UNL     1      26.941   0.622  54.561  1.00  0.00    -0.012 C 
BRANCH  20  25
HETATM   25  O1  UNL     1      27.300  -3.111  52.203  1.00  0.00    -0.361 OA
HETATM   26  H1  UNL     1      27.910  -3.876  52.523  1.00  0.00     0.217 HD
ENDBRANCH  20  25
ENDBRANCH   1  18
TORSDOF 2
ENDMDL
MODEL 4
REMARK VINA RESULT:      -7.9      1.574      3.173
REMARK  2 active torsions:
REMARK  status: ('A' for Active; 'I' for Inactive)
REMARK    1  A    between atoms: O1_1  and  C1_2 
REMARK    2  A    between atoms: C3_4  and  C4_5 
ROOT
HETATM    1  C4  UNL     1      25.263   2.000  51.333  1.00  0.00     0.059 C 
HETATM    2  C5  UNL     1      25.461   3.172  50.752  1.00  0.00     0.114 C 
HETATM    3  N1  UNL     1      24.517   3.906  49.982  1.00  0.00    -0.392 N 
HETATM    4  C6  UNL     1      24.128   5.276  50.232  1.00  0.00     0.081 A 
HETATM    5  C7  UNL     1      23.780   5.560  51.665  1.00  0.00     0.031 A 
HETATM    6  C8  UNL     1      22.323   5.691  51.310  1.00  0.00     0.018 A 
HETATM    7  C9  UNL     1      22.672   5.445  49.870  1.00  0.00     0.031 A 
HETATM    8  C10 UNL     1      21.540   4.579  51.953  1.00  0.00     0.280 C 
HETATM    9  N2  UNL     1      20.584   3.965  51.056  1.00  0.00     0.113 N 
HETATM   10  C11 UNL     1      19.373   3.608  51.812  1.00  0.00     0.279 C 
HETATM   11  C12 UNL     1      20.151   2.407  52.331  1.00  0.00     0.089 C 
HETATM   12  C13 UNL     1      20.831   2.520  50.984  1.00  0.00     0.346 C 
HETATM   13  N3  UNL     1      22.226   2.208  50.937  1.00  0.00    -0.249 NA
HETATM   14  C14 UNL     1      22.649   1.184  51.597  1.00  0.00     0.203 C 
HETATM   15  N4  UNL     1      23.990   1.355  51.211  1.00  0.00    -0.349 N 
HETATM   16  H4  UNL     1      24.190   3.235  49.227  1.00  0.00     0.159 HD
HETATM   17  H19 UNL     1      24.297   0.721  50.443  1.00  0.00     0.166 HD
ENDROOT
BRANCH   1  18
HETATM   18  C3  UNL     1      26.331   1.343  52.107  1.00  0.00     0.006 C 
HETATM   19  C2  UNL     1      27.501   2.150  52.378  1.00  0.00     0.051 C 
HETATM   20  C1  UNL     1      28.348   1.953  53.384  1.00  0.00     0.066 C 
HETATM   21  C18 UNL     1      28.354   0.937  54.443  1.00  0.00     0.036 C 
HETATM   22  C17 UNL     1      27.512  -0.102  54.503  1.00  0.00     0.004 C 
HETATM   23  C16 UNL     1      26.438  -0.434  53.553  1.00  0.00     0.013 C 
HETATM   24  C15 UNL     1      26.075   0.131  52.439  1.00  0.00    -0.012 C 
BRANCH  20  25
HETATM   25  O1  UNL     1      29.417   2.854  53.462  1.00  0.00    -0.361 OA
HETATM   26  H1  UNL     1      29.186   3.856  53.435  1.00  0.00     0.217 HD
ENDBRANCH  20  25
ENDBRANCH   1  18
TORSDOF 2
ENDMDL
MODEL 5
REMARK VINA RESULT:      -7.8      3.150      5.636
REMARK  2 active torsions:
REMARK  status: ('A' for Active; 'I' for Inactive)
REMARK    1  A    between atoms: O1_1  and  C1_2 
REMARK    2  A    between atoms: C3_4  and  C4_5 
ROOT
HETATM    1  C4  UNL     1      25.505   3.398  51.294  1.00  0.00     0.059 C 
HETATM    2  C5  UNL     1      26.520   2.873  51.962  1.00  0.00     0.114 C 
HETATM    3  N1  UNL     1      26.442   2.124  53.169  1.00  0.00    -0.392 N 
HETATM    4  C6  UNL     1      26.993   0.802  53.363  1.00  0.00     0.081 A 
HETATM    5  C7  UNL     1      26.649  -0.169  52.270  1.00  0.00     0.031 A 
HETATM    6  C8  UNL     1      25.724  -0.916  53.193  1.00  0.00     0.018 A 
HETATM    7  C9  UNL     1      26.095   0.030  54.298  1.00  0.00     0.031 A 
HETATM    8  C10 UNL     1      24.305  -0.778  52.713  1.00  0.00     0.280 C 
HETATM    9  N2  UNL     1      23.371  -0.487  53.780  1.00  0.00     0.113 N 
HETATM   10  C11 UNL     1      22.102  -1.183  53.514  1.00  0.00     0.279 C 
HETATM   11  C12 UNL     1      21.803  -0.082  52.508  1.00  0.00     0.089 C 
HETATM   12  C13 UNL     1      22.633   0.743  53.469  1.00  0.00     0.346 C 
HETATM   13  N3  UNL     1      23.470   1.750  52.896  1.00  0.00    -0.249 NA
HETATM   14  C14 UNL     1      22.996   2.473  51.939  1.00  0.00     0.203 C 
HETATM   15  N4  UNL     1      24.171   3.231  51.785  1.00  0.00    -0.349 N 
HETATM   16  H4  UNL     1      25.909   2.744  53.848  1.00  0.00     0.159 HD
HETATM   17  H19 UNL     1      24.132   4.172  52.230  1.00  0.00     0.166 HD
ENDROOT
BRANCH   1  18
HETATM   18  C3  UNL     1      25.723   4.155  50.049  1.00  0.00     0.006 C 
HETATM   19  C2  UNL     1      24.683   5.096  49.693  1.00  0.00     0.051 C 
HETATM   20  C1  UNL     1      24.850   6.162  48.914  1.00  0.00     0.066 C 
HETATM   21  C18 UNL     1      26.047   6.667  48.232  1.00  0.00     0.036 C 
HETATM   22  C17 UNL     1      27.222   6.027  48.185  1.00  0.00     0.004 C 
HETATM   23  C16 UNL     1      27.551   4.725  48.787  1.00  0.00     0.013 C 
HETATM   24  C15 UNL     1      26.818   3.874  49.444  1.00  0.00    -0.012 C 
BRANCH  20  25
HETATM   25  O1  UNL     1      23.707   6.940  48.698  1.00  0.00    -0.361 OA
HETATM   26  H1  UNL     1      23.530   7.251  47.733  1.00  0.00     0.217 HD
ENDBRANCH  20  25
ENDBRANCH   1  18
TORSDOF 2
ENDMDL
MODEL 6
REMARK VINA RESULT:      -7.8      3.194      7.047
REMARK  2 active torsions:
REMARK  status: ('A' for Active; 'I' for Inactive)
REMARK    1  A    between atoms: O1_1  and  C1_2 
REMARK    2  A    between atoms: C3_4  and  C4_5 
ROOT
HETATM    1  C4  UNL     1      20.715   1.143  52.366  1.00  0.00     0.059 C 
HETATM    2  C5  UNL     1      20.705   2.414  51.998  1.00  0.00     0.114 C 
HETATM    3  N1  UNL     1      21.708   3.384  52.276  1.00  0.00    -0.392 N 
HETATM    4  C6  UNL     1      22.382   4.190  51.282  1.00  0.00     0.081 A 
HETATM    5  C7  UNL     1      22.900   3.407  50.110  1.00  0.00     0.031 A 
HETATM    6  C8  UNL     1      24.319   3.607  50.574  1.00  0.00     0.018 A 
HETATM    7  C9  UNL     1      23.806   4.422  51.725  1.00  0.00     0.031 A 
HETATM    8  C10 UNL     1      24.915   2.285  50.971  1.00  0.00     0.280 C 
HETATM    9  N2  UNL     1      25.650   2.346  52.217  1.00  0.00     0.113 N 
HETATM   10  C11 UNL     1      26.825   1.465  52.128  1.00  0.00     0.279 C 
HETATM   11  C12 UNL     1      25.872   0.304  52.368  1.00  0.00     0.089 C 
HETATM   12  C13 UNL     1      25.115   1.352  53.156  1.00  0.00     0.346 C 
HETATM   13  N3  UNL     1      23.688   1.282  53.118  1.00  0.00    -0.249 NA
HETATM   14  C14 UNL     1      23.127   0.124  53.211  1.00  0.00     0.203 C 
HETATM   15  N4  UNL     1      21.818   0.632  53.122  1.00  0.00    -0.349 N 
HETATM   16  H4  UNL     1      21.829   3.365  53.331  1.00  0.00     0.159 HD
HETATM   17  H19 UNL     1      21.328   0.708  54.038  1.00  0.00     0.166 HD
ENDROOT
BRANCH   1  18
HETATM   18  C3  UNL     1      19.607   0.239  52.010  1.00  0.00     0.006 C 
HETATM   19  C2  UNL     1      19.203  -0.697  53.038  1.00  0.00     0.051 C 
HETATM   20  C1  UNL     1      18.004  -1.267  53.123  1.00  0.00     0.066 C 
HETATM   21  C18 UNL     1      16.819  -1.131  52.269  1.00  0.00     0.036 C 
HETATM   22  C17 UNL     1      16.788  -0.452  51.115  1.00  0.00     0.004 C 
HETATM   23  C16 UNL     1      17.899   0.276  50.481  1.00  0.00     0.013 C 
HETATM   24  C15 UNL     1      19.147   0.406  50.826  1.00  0.00    -0.012 C 
BRANCH  20  25
HETATM   25  O1  UNL     1      17.825  -2.144  54.199  1.00  0.00    -0.361 OA
HETATM   26  H1  UNL     1      17.128  -1.877  54.908  1.00  0.00     0.217 HD
ENDBRANCH  20  25
ENDBRANCH   1  18
TORSDOF 2
ENDMDL
MODEL 7
REMARK VINA RESULT:      -7.7      1.763      2.367
REMARK  2 active torsions:
REMARK  status: ('A' for Active; 'I' for Inactive)
REMARK    1  A    between atoms: O1_1  and  C1_2 
REMARK    2  A    between atoms: C3_4  and  C4_5 
ROOT
HETATM    1  C4  UNL     1      23.945   1.968  52.096  1.00  0.00     0.059 C 
HETATM    2  C5  UNL     1      23.176   1.356  51.210  1.00  0.00     0.114 C 
HETATM    3  N1  UNL     1      21.952   1.843  50.672  1.00  0.00    -0.392 N 
HETATM    4  C6  UNL     1      21.663   1.987  49.263  1.00  0.00     0.081 A 
HETATM    5  C7  UNL     1      22.743   2.685  48.487  1.00  0.00     0.031 A 
HETATM    6  C8  UNL     1      21.872   3.902  48.324  1.00  0.00     0.018 A 
HETATM    7  C9  UNL     1      20.776   3.193  49.067  1.00  0.00     0.031 A 
HETATM    8  C10 UNL     1      22.472   5.061  49.070  1.00  0.00     0.280 C 
HETATM    9  N2  UNL     1      21.499   5.808  49.839  1.00  0.00     0.113 N 
HETATM   10  C11 UNL     1      21.842   7.238  49.794  1.00  0.00     0.279 C 
HETATM   11  C12 UNL     1      22.910   6.930  50.832  1.00  0.00     0.089 C 
HETATM   12  C13 UNL     1      21.916   5.865  51.244  1.00  0.00     0.346 C 
HETATM   13  N3  UNL     1      22.456   4.623  51.703  1.00  0.00    -0.249 NA
HETATM   14  C14 UNL     1      23.476   4.650  52.492  1.00  0.00     0.203 C 
HETATM   15  N4  UNL     1      23.560   3.250  52.604  1.00  0.00    -0.349 N 
HETATM   16  H4  UNL     1      21.344   2.060  51.516  1.00  0.00     0.159 HD
HETATM   17  H19 UNL     1      23.156   2.868  53.485  1.00  0.00     0.166 HD
ENDROOT
BRANCH   1  18
HETATM   18  C3  UNL     1      25.196   1.352  52.573  1.00  0.00     0.006 C 
HETATM   19  C2  UNL     1      26.400   2.128  52.367  1.00  0.00     0.051 C 
HETATM   20  C1  UNL     1      27.519   2.005  53.076  1.00  0.00     0.066 C 
HETATM   21  C18 UNL     1      27.847   1.115  54.195  1.00  0.00     0.036 C 
HETATM   22  C17 UNL     1      27.056   0.130  54.640  1.00  0.00     0.004 C 
HETATM   23  C16 UNL     1      25.735  -0.255  54.118  1.00  0.00     0.013 C 
HETATM   24  C15 UNL     1      25.046   0.198  53.112  1.00  0.00    -0.012 C 
BRANCH  20  25
HETATM   25  O1  UNL     1      28.566   2.857  52.708  1.00  0.00    -0.361 OA
HETATM   26  H1  UNL     1      29.462   2.735  53.200  1.00  0.00     0.217 HD
ENDBRANCH  20  25
ENDBRANCH   1  18
TORSDOF 2
ENDMDL
MODEL 8
REMARK VINA RESULT:      -7.6      4.419      6.368
REMARK  2 active torsions:
REMARK  status: ('A' for Active; 'I' for Inactive)
REMARK    1  A    between atoms: O1_1  and  C1_2 
REMARK    2  A    between atoms: C3_4  and  C4_5 
ROOT
HETATM    1  C4  UNL     1      25.600   5.623  49.243  1.00  0.00     0.059 C 
HETATM    2  C5  UNL     1      24.282   5.736  49.289  1.00  0.00     0.114 C 
HETATM    3  N1  UNL     1      23.352   4.697  49.565  1.00  0.00    -0.392 N 
HETATM    4  C6  UNL     1      22.342   4.738  50.598  1.00  0.00     0.081 A 
HETATM    5  C7  UNL     1      22.858   5.175  51.939  1.00  0.00     0.031 A 
HETATM    6  C8  UNL     1      22.703   3.779  52.480  1.00  0.00     0.018 A 
HETATM    7  C9  UNL     1      22.150   3.348  51.152  1.00  0.00     0.031 A 
HETATM    8  C10 UNL     1      24.055   3.204  52.801  1.00  0.00     0.280 C 
HETATM    9  N2  UNL     1      24.216   1.840  52.342  1.00  0.00     0.113 N 
HETATM   10  C11 UNL     1      25.020   1.093  53.323  1.00  0.00     0.279 C 
HETATM   11  C12 UNL     1      26.238   1.783  52.728  1.00  0.00     0.089 C 
HETATM   12  C13 UNL     1      25.394   1.747  51.472  1.00  0.00     0.346 C 
HETATM   13  N3  UNL     1      25.506   2.864  50.587  1.00  0.00    -0.249 NA
HETATM   14  C14 UNL     1      26.679   3.350  50.355  1.00  0.00     0.203 C 
HETATM   15  N4  UNL     1      26.210   4.350  49.485  1.00  0.00    -0.349 N 
HETATM   16  H4  UNL     1      23.574   3.930  48.864  1.00  0.00     0.159 HD
HETATM   17  H19 UNL     1      26.335   4.129  48.475  1.00  0.00     0.166 HD
ENDROOT
BRANCH   1  18
HETATM   18  C3  UNL     1      26.455   6.785  48.945  1.00  0.00     0.006 C 
HETATM   19  C2  UNL     1      26.372   7.885  49.882  1.00  0.00     0.051 C 
HETATM   20  C1  UNL     1      27.322   8.796  50.077  1.00  0.00     0.066 C 
HETATM   21  C18 UNL     1      28.639   8.951  49.450  1.00  0.00     0.036 C 
HETATM   22  C17 UNL     1      29.083   8.215  48.422  1.00  0.00     0.004 C 
HETATM   23  C16 UNL     1      28.367   7.133  47.728  1.00  0.00     0.013 C 
HETATM   24  C15 UNL     1      27.164   6.663  47.885  1.00  0.00    -0.012 C 
BRANCH  20  25
HETATM   25  O1  UNL     1      27.035   9.776  51.034  1.00  0.00    -0.361 OA
HETATM   26  H1  UNL     1      27.362  10.732  50.835  1.00  0.00     0.217 HD
ENDBRANCH  20  25
ENDBRANCH   1  18
TORSDOF 2
ENDMDL
MODEL 9
REMARK VINA RESULT:      -7.5      2.427      4.096
REMARK  2 active torsions:
REMARK  status: ('A' for Active; 'I' for Inactive)
REMARK    1  A    between atoms: O1_1  and  C1_2 
REMARK    2  A    between atoms: C3_4  and  C4_5 
ROOT
HETATM    1  C4  UNL     1      23.206   1.044  51.768  1.00  0.00     0.059 C 
HETATM    2  C5  UNL     1      24.147   1.953  51.575  1.00  0.00     0.114 C 
HETATM    3  N1  UNL     1      24.113   3.019  50.633  1.00  0.00    -0.392 N 
HETATM    4  C6  UNL     1      24.297   4.417  50.953  1.00  0.00     0.081 A 
HETATM    5  C7  UNL     1      23.475   4.889  52.117  1.00  0.00     0.031 A 
HETATM    6  C8  UNL     1      22.588   5.687  51.197  1.00  0.00     0.018 A 
HETATM    7  C9  UNL     1      23.432   5.246  50.036  1.00  0.00     0.031 A 
HETATM    8  C10 UNL     1      21.199   5.111  51.204  1.00  0.00     0.280 C 
HETATM    9  N2  UNL     1      20.627   4.994  49.879  1.00  0.00     0.113 N 
HETATM   10  C11 UNL     1      19.187   5.289  49.947  1.00  0.00     0.279 C 
HETATM   11  C12 UNL     1      19.008   3.885  50.505  1.00  0.00     0.089 C 
HETATM   12  C13 UNL     1      20.217   3.605  49.639  1.00  0.00     0.346 C 
HETATM   13  N3  UNL     1      21.167   2.663  50.142  1.00  0.00    -0.249 NA
HETATM   14  C14 UNL     1      20.728   1.588  50.704  1.00  0.00     0.203 C 
HETATM   15  N4  UNL     1      22.011   1.081  50.981  1.00  0.00    -0.349 N 
HETATM   16  H4  UNL     1      23.929   2.556  49.694  1.00  0.00     0.159 HD
HETATM   17  H19 UNL     1      22.332   0.348  50.315  1.00  0.00     0.166 HD
ENDROOT
BRANCH   1  18
HETATM   18  C3  UNL     1      23.366  -0.013  52.783  1.00  0.00     0.006 C 
HETATM   19  C2  UNL     1      24.684  -0.130  53.370  1.00  0.00     0.051 C 
HETATM   20  C1  UNL     1      24.946  -0.663  54.560  1.00  0.00     0.066 C 
HETATM   21  C18 UNL     1      24.048  -1.250  55.561  1.00  0.00     0.036 C 
HETATM   22  C17 UNL     1      22.740  -1.465  55.376  1.00  0.00     0.004 C 
HETATM   23  C16 UNL     1      21.951  -1.168  54.170  1.00  0.00     0.013 C 
HETATM   24  C15 UNL     1      22.303  -0.693  53.011  1.00  0.00    -0.012 C 
BRANCH  20  25
HETATM   25  O1  UNL     1      26.294  -0.676  54.935  1.00  0.00    -0.361 OA
HETATM   26  H1  UNL     1      26.876  -1.438  54.560  1.00  0.00     0.217 HD
ENDBRANCH  20  25
ENDBRANCH   1  18
TORSDOF 2
ENDMDL
