MODEL 1
REMARK VINA RESULT:      -8.0      0.000      0.000
REMARK  5 active torsions:
REMARK  status: ('A' for Active; 'I' for Inactive)
REMARK    1  A    between atoms: C2_2  and  C3_4 
REMARK    2  A    between atoms: C3_4  and  C4_5 
REMARK    3  A    between atoms: C4_5  and  C5_6 
REMARK    4  A    between atoms: C5_6  and  N1_7 
REMARK    5  A    between atoms: N3_21  and  C16_22 
ROOT
HETATM    1  N1  UNL     1      24.626   2.282  53.502  1.00  0.00    -0.255 NA
HETATM    2  C6  UNL     1      25.264   1.106  53.373  1.00  0.00     0.065 A 
HETATM    3  C7  UNL     1      25.908   2.306  53.730  1.00  0.00     0.107 A 
HETATM    4  C8  UNL     1      25.264   1.101  53.372  1.00  0.00     0.143 A 
HETATM    5  O1  UNL     1      26.239   1.147  52.070  1.00  0.00     0.000 OA
HETATM    6  C9  UNL     1      27.613   0.621  52.676  1.00  0.00     0.048 A 
HETATM    7  C10 UNL     1      26.746  -0.507  52.092  1.00  0.00     0.287 A 
HETATM    8  C11 UNL     1      27.811  -1.045  52.682  1.00  0.00     0.205 A 
HETATM    9  C12 UNL     1      28.969  -1.330  53.336  1.00  0.00     0.051 A 
HETATM   10 CL1  UNL     1      29.128  -2.993  53.504  1.00  0.00    -0.086 Cl
HETATM   11  C13 UNL     1      29.524  -0.106  53.711  1.00  0.00     0.027 A 
HETATM   12  C14 UNL     1      28.848   1.016  53.402  1.00  0.00    -0.052 A 
HETATM   13  C15 UNL     1      28.728   2.498  53.615  1.00  0.00     0.151 C 
HETATM   14  N2  UNL     1      27.234   2.756  54.052  1.00  0.00    -0.396 N 
HETATM   15  N3  UNL     1      26.312  -1.378  53.036  1.00  0.00    -0.046 N 
HETATM   16  C16 UNL     1      25.185  -0.515  53.010  1.00  0.00     0.239 A 
HETATM   17  H12 UNL     1      26.539   3.256  54.652  1.00  0.00     0.155 HD
HETATM   18  H13 UNL     1      26.350  -2.363  53.312  1.00  0.00     0.282 HD
ENDROOT
BRANCH   1  19
HETATM   19  C5  UNL     1      23.988   3.048  52.820  1.00  0.00     0.062 C 
BRANCH  19  20
HETATM   20  C4  UNL     1      23.282   4.035  52.033  1.00  0.00     0.009 C 
BRANCH  20  21
HETATM   21  C3  UNL     1      23.811   3.492  50.904  1.00  0.00    -0.010 C 
BRANCH  21  22
HETATM   22  C2  UNL     1      24.716   4.491  50.159  1.00  0.00     0.021 A 
HETATM   23  C1  UNL     1      25.746   4.977  49.535  1.00  0.00     0.149 A 
HETATM   24 BR1  UNL     1      26.471   3.707  49.680  1.00  0.00    -0.157 Br
ENDBRANCH  21  22
ENDBRANCH  20  21
ENDBRANCH  19  20
ENDBRANCH   1  19
TORSDOF 5
ENDMDL
MODEL 2
REMARK VINA RESULT:      -7.9      1.820      2.378
REMARK  5 active torsions:
REMARK  status: ('A' for Active; 'I' for Inactive)
REMARK    1  A    between atoms: C2_2  and  C3_4 
REMARK    2  A    between atoms: C3_4  and  C4_5 
REMARK    3  A    between atoms: C4_5  and  C5_6 
REMARK    4  A    between atoms: C5_6  and  N1_7 
REMARK    5  A    between atoms: N3_21  and  C16_22 
ROOT
HETATM    1  N1  UNL     1      24.671   2.168  53.649  1.00  0.00    -0.255 NA
HETATM    2  C6  UNL     1      25.335   1.008  53.518  1.00  0.00     0.065 A 
HETATM    3  C7  UNL     1      25.960   2.232  53.823  1.00  0.00     0.107 A 
HETATM    4  C8  UNL     1      25.335   1.002  53.517  1.00  0.00     0.143 A 
HETATM    5  O1  UNL     1      26.254   1.046  52.175  1.00  0.00     0.000 OA
HETATM    6  C9  UNL     1      27.666   0.571  52.733  1.00  0.00     0.048 A 
HETATM    7  C10 UNL     1      26.807  -0.593  52.210  1.00  0.00     0.287 A 
HETATM    8  C11 UNL     1      27.910  -1.089  52.766  1.00  0.00     0.205 A 
HETATM    9  C12 UNL     1      29.101  -1.329  53.376  1.00  0.00     0.051 A 
HETATM   10 CL1  UNL     1      29.312  -2.984  53.571  1.00  0.00    -0.086 Cl
HETATM   11  C13 UNL     1      29.637  -0.083  53.702  1.00  0.00     0.027 A 
HETATM   12  C14 UNL     1      28.918   1.014  53.399  1.00  0.00    -0.052 A 
HETATM   13  C15 UNL     1      28.767   2.496  53.587  1.00  0.00     0.151 C 
HETATM   14  N2  UNL     1      27.285   2.723  54.080  1.00  0.00    -0.396 N 
HETATM   15  N3  UNL     1      26.437  -1.454  53.188  1.00  0.00    -0.046 N 
HETATM   16  C16 UNL     1      25.286  -0.622  53.191  1.00  0.00     0.239 A 
HETATM   17  H12 UNL     1      26.603   3.218  54.698  1.00  0.00     0.155 HD
HETATM   18  H13 UNL     1      26.513  -2.432  53.483  1.00  0.00     0.282 HD
ENDROOT
BRANCH   1  19
HETATM   19  C5  UNL     1      23.985   2.903  52.979  1.00  0.00     0.062 C 
BRANCH  19  20
HETATM   20  C4  UNL     1      23.098   3.713  52.173  1.00  0.00     0.009 C 
BRANCH  20  21
HETATM   21  C3  UNL     1      22.615   2.581  51.593  1.00  0.00    -0.010 C 
BRANCH  21  22
HETATM   22  C2  UNL     1      21.387   2.032  52.346  1.00  0.00     0.021 A 
HETATM   23  C1  UNL     1      20.576   1.192  52.912  1.00  0.00     0.149 A 
HETATM   24 BR1  UNL     1      21.453   0.065  52.564  1.00  0.00    -0.157 Br
ENDBRANCH  21  22
ENDBRANCH  20  21
ENDBRANCH  19  20
ENDBRANCH   1  19
TORSDOF 5
ENDMDL
MODEL 3
REMARK VINA RESULT:      -7.4      4.593      6.767
REMARK  5 active torsions:
REMARK  status: ('A' for Active; 'I' for Inactive)
REMARK    1  A    between atoms: C2_2  and  C3_4 
REMARK    2  A    between atoms: C3_4  and  C4_5 
REMARK    3  A    between atoms: C4_5  and  C5_6 
REMARK    4  A    between atoms: C5_6  and  N1_7 
REMARK    5  A    between atoms: N3_21  and  C16_22 
ROOT
HETATM    1  N1  UNL     1      24.214  -0.120  53.055  1.00  0.00    -0.255 NA
HETATM    2  C6  UNL     1      22.986  -0.559  53.376  1.00  0.00     0.065 A 
HETATM    3  C7  UNL     1      23.253   0.263  52.265  1.00  0.00     0.107 A 
HETATM    4  C8  UNL     1      22.983  -0.562  53.379  1.00  0.00     0.143 A 
HETATM    5  O1  UNL     1      22.070   0.686  53.887  1.00  0.00     0.000 OA
HETATM    6  C9  UNL     1      20.754   0.503  53.011  1.00  0.00     0.048 A 
HETATM    7  C10 UNL     1      20.676  -0.217  54.368  1.00  0.00     0.287 A 
HETATM    8  C11 UNL     1      19.593  -0.522  53.656  1.00  0.00     0.205 A 
HETATM    9  C12 UNL     1      18.598  -0.663  52.739  1.00  0.00     0.051 A 
HETATM   10 CL1  UNL     1      17.491  -1.805  53.278  1.00  0.00    -0.086 Cl
HETATM   11  C13 UNL     1      18.953   0.127  51.645  1.00  0.00     0.027 A 
HETATM   12  C14 UNL     1      20.121   0.795  51.699  1.00  0.00    -0.052 A 
HETATM   13  C15 UNL     1      21.139   1.589  50.932  1.00  0.00     0.151 C 
HETATM   14  N2  UNL     1      22.527   0.884  51.192  1.00  0.00    -0.396 N 
HETATM   15  N3  UNL     1      20.616  -1.565  54.245  1.00  0.00    -0.046 N 
HETATM   16  C16 UNL     1      22.020  -1.429  54.413  1.00  0.00     0.239 A 
HETATM   17  H12 UNL     1      23.455   0.556  50.842  1.00  0.00     0.155 HD
HETATM   18  H13 UNL     1      20.028  -2.376  54.456  1.00  0.00     0.282 HD
ENDROOT
BRANCH   1  19
HETATM   19  C5  UNL     1      25.087   0.565  53.533  1.00  0.00     0.062 C 
BRANCH  19  20
HETATM   20  C4  UNL     1      26.067   1.452  54.120  1.00  0.00     0.009 C 
BRANCH  20  21
HETATM   21  C3  UNL     1      26.698   0.375  54.660  1.00  0.00    -0.010 C 
BRANCH  21  22
HETATM   22  C2  UNL     1      28.226   0.461  54.488  1.00  0.00     0.021 A 
HETATM   23  C1  UNL     1      29.432   0.163  54.112  1.00  0.00     0.149 A 
HETATM   24 BR1  UNL     1      28.951  -1.044  53.425  1.00  0.00    -0.157 Br
ENDBRANCH  21  22
ENDBRANCH  20  21
ENDBRANCH  19  20
ENDBRANCH   1  19
TORSDOF 5
ENDMDL
MODEL 4
REMARK VINA RESULT:      -7.3      2.892      4.097
REMARK  5 active torsions:
REMARK  status: ('A' for Active; 'I' for Inactive)
REMARK    1  A    between atoms: C2_2  and  C3_4 
REMARK    2  A    between atoms: C3_4  and  C4_5 
REMARK    3  A    between atoms: C4_5  and  C5_6 
REMARK    4  A    between atoms: C5_6  and  N1_7 
REMARK    5  A    between atoms: N3_21  and  C16_22 
ROOT
HETATM    1  N1  UNL     1      23.263   4.563  52.019  1.00  0.00    -0.255 NA
HETATM    2  C6  UNL     1      22.662   3.388  52.265  1.00  0.00     0.065 A 
HETATM    3  C7  UNL     1      24.006   3.656  52.584  1.00  0.00     0.107 A 
HETATM    4  C8  UNL     1      22.657   3.385  52.265  1.00  0.00     0.143 A 
HETATM    5  O1  UNL     1      23.279   2.237  51.293  1.00  0.00     0.000 OA
HETATM    6  C9  UNL     1      23.614   1.079  52.332  1.00  0.00     0.048 A 
HETATM    7  C10 UNL     1      22.207   0.951  51.725  1.00  0.00     0.287 A 
HETATM    8  C11 UNL     1      22.356   0.021  52.666  1.00  0.00     0.205 A 
HETATM    9  C12 UNL     1      22.764  -0.824  53.650  1.00  0.00     0.051 A 
HETATM   10 CL1  UNL     1      21.482  -1.798  54.126  1.00  0.00    -0.086 Cl
HETATM   11  C13 UNL     1      24.077  -0.467  53.958  1.00  0.00     0.027 A 
HETATM   12  C14 UNL     1      24.623   0.569  53.295  1.00  0.00    -0.052 A 
HETATM   13  C15 UNL     1      25.769   1.537  53.222  1.00  0.00     0.151 C 
HETATM   14  N2  UNL     1      25.122   2.976  53.182  1.00  0.00    -0.396 N 
HETATM   15  N3  UNL     1      21.222   1.114  52.641  1.00  0.00    -0.046 N 
HETATM   16  C16 UNL     1      21.292   2.450  52.164  1.00  0.00     0.239 A 
HETATM   17  H12 UNL     1      25.125   3.979  53.476  1.00  0.00     0.155 HD
HETATM   18  H13 UNL     1      20.427   0.637  53.075  1.00  0.00     0.282 HD
ENDROOT
BRANCH   1  19
HETATM   19  C5  UNL     1      23.547   5.257  51.071  1.00  0.00     0.062 C 
BRANCH  19  20
HETATM   20  C4  UNL     1      23.812   6.143  49.959  1.00  0.00     0.009 C 
BRANCH  20  21
HETATM   21  C3  UNL     1      24.210   5.073  49.220  1.00  0.00    -0.010 C 
BRANCH  21  22
HETATM   22  C2  UNL     1      25.743   5.006  49.089  1.00  0.00     0.021 A 
HETATM   23  C1  UNL     1      26.954   4.540  49.130  1.00  0.00     0.149 A 
HETATM   24 BR1  UNL     1      26.473   3.254  49.655  1.00  0.00    -0.157 Br
ENDBRANCH  21  22
ENDBRANCH  20  21
ENDBRANCH  19  20
ENDBRANCH   1  19
TORSDOF 5
ENDMDL
MODEL 5
REMARK VINA RESULT:      -7.0      5.377      6.553
REMARK  5 active torsions:
REMARK  status: ('A' for Active; 'I' for Inactive)
REMARK    1  A    between atoms: C2_2  and  C3_4 
REMARK    2  A    between atoms: C3_4  and  C4_5 
REMARK    3  A    between atoms: C4_5  and  C5_6 
REMARK    4  A    between atoms: C5_6  and  N1_7 
REMARK    5  A    between atoms: N3_21  and  C16_22 
ROOT
HETATM    1  N1  UNL     1      20.130   0.127  53.710  1.00  0.00    -0.255 NA
HETATM    2  C6  UNL     1      21.405  -0.134  54.042  1.00  0.00     0.065 A 
HETATM    3  C7  UNL     1      21.007   1.005  53.317  1.00  0.00     0.107 A 
HETATM    4  C8  UNL     1      21.409  -0.137  54.044  1.00  0.00     0.143 A 
HETATM    5  O1  UNL     1      22.259  -0.501  52.705  1.00  0.00     0.000 OA
HETATM    6  C9  UNL     1      23.525   0.451  52.857  1.00  0.00     0.048 A 
HETATM    7  C10 UNL     1      23.744  -0.939  53.476  1.00  0.00     0.287 A 
HETATM    8  C11 UNL     1      24.797  -0.174  53.754  1.00  0.00     0.205 A 
HETATM    9  C12 UNL     1      25.738   0.799  53.888  1.00  0.00     0.051 A 
HETATM   10 CL1  UNL     1      26.958   0.268  54.913  1.00  0.00    -0.086 Cl
HETATM   11  C13 UNL     1      25.256   1.913  53.199  1.00  0.00     0.027 A 
HETATM   12  C14 UNL     1      24.049   1.820  52.611  1.00  0.00    -0.052 A 
HETATM   13  C15 UNL     1      22.928   2.562  51.942  1.00  0.00     0.151 C 
HETATM   14  N2  UNL     1      21.615   2.162  52.721  1.00  0.00    -0.396 N 
HETATM   15  N3  UNL     1      23.893  -0.897  54.823  1.00  0.00    -0.046 N 
HETATM   16  C16 UNL     1      22.498  -1.153  54.772  1.00  0.00     0.239 A 
HETATM   17  H12 UNL     1      20.692   2.426  53.135  1.00  0.00     0.155 HD
HETATM   18  H13 UNL     1      24.552  -1.117  55.576  1.00  0.00     0.282 HD
ENDROOT
BRANCH   1  19
HETATM   19  C5  UNL     1      19.242  -0.366  53.056  1.00  0.00     0.062 C 
BRANCH  19  20
HETATM   20  C4  UNL     1      18.142  -0.871  52.264  1.00  0.00     0.009 C 
BRANCH  20  21
HETATM   21  C3  UNL     1      17.744  -1.625  53.324  1.00  0.00    -0.010 C 
BRANCH  21  22
HETATM   22  C2  UNL     1      16.559  -2.540  52.961  1.00  0.00     0.021 A 
HETATM   23  C1  UNL     1      15.832  -3.609  52.843  1.00  0.00     0.149 A 
HETATM   24 BR1  UNL     1      16.881  -4.427  53.469  1.00  0.00    -0.157 Br
ENDBRANCH  21  22
ENDBRANCH  20  21
ENDBRANCH  19  20
ENDBRANCH   1  19
TORSDOF 5
ENDMDL
MODEL 6
REMARK VINA RESULT:      -6.9      3.303      6.317
REMARK  5 active torsions:
REMARK  status: ('A' for Active; 'I' for Inactive)
REMARK    1  A    between atoms: C2_2  and  C3_4 
REMARK    2  A    between atoms: C3_4  and  C4_5 
REMARK    3  A    between atoms: C4_5  and  C5_6 
REMARK    4  A    between atoms: C5_6  and  N1_7 
REMARK    5  A    between atoms: N3_21  and  C16_22 
ROOT
HETATM    1  N1  UNL     1      24.443   0.470  53.288  1.00  0.00    -0.255 NA
HETATM    2  C6  UNL     1      24.163   1.749  52.991  1.00  0.00     0.065 A 
HETATM    3  C7  UNL     1      23.404   0.658  52.527  1.00  0.00     0.107 A 
HETATM    4  C8  UNL     1      24.164   1.755  52.991  1.00  0.00     0.143 A 
HETATM    5  O1  UNL     1      24.452   2.026  51.412  1.00  0.00     0.000 OA
HETATM    6  C9  UNL     1      23.100   2.730  50.953  1.00  0.00     0.048 A 
HETATM    7  C10 UNL     1      24.174   3.733  51.408  1.00  0.00     0.287 A 
HETATM    8  C11 UNL     1      23.045   4.393  51.160  1.00  0.00     0.205 A 
HETATM    9  C12 UNL     1      21.794   4.818  50.837  1.00  0.00     0.051 A 
HETATM   10 CL1  UNL     1      21.647   6.455  51.181  1.00  0.00    -0.086 Cl
HETATM   11  C13 UNL     1      21.081   3.685  50.444  1.00  0.00     0.027 A 
HETATM   12  C14 UNL     1      21.710   2.495  50.485  1.00  0.00    -0.052 A 
HETATM   13  C15 UNL     1      21.561   1.003  50.408  1.00  0.00     0.151 C 
HETATM   14  N2  UNL     1      22.244   0.430  51.710  1.00  0.00    -0.396 N 
HETATM   15  N3  UNL     1      23.822   4.406  52.531  1.00  0.00    -0.046 N 
HETATM   16  C16 UNL     1      24.564   3.357  53.136  1.00  0.00     0.239 A 
HETATM   17  H12 UNL     1      22.252  -0.250  52.504  1.00  0.00     0.155 HD
HETATM   18  H13 UNL     1      23.643   5.347  52.893  1.00  0.00     0.282 HD
ENDROOT
BRANCH   1  19
HETATM   19  C5  UNL     1      25.337  -0.326  53.124  1.00  0.00     0.062 C 
BRANCH  19  20
HETATM   20  C4  UNL     1      26.374  -1.327  53.002  1.00  0.00     0.009 C 
BRANCH  20  21
HETATM   21  C3  UNL     1      27.187  -0.395  52.436  1.00  0.00    -0.010 C 
BRANCH  21  22
HETATM   22  C2  UNL     1      28.204   0.166  53.447  1.00  0.00     0.021 A 
HETATM   23  C1  UNL     1      28.897   1.019  54.138  1.00  0.00     0.149 A 
HETATM   24 BR1  UNL     1      28.242   2.146  53.460  1.00  0.00    -0.157 Br
ENDBRANCH  21  22
ENDBRANCH  20  21
ENDBRANCH  19  20
ENDBRANCH   1  19
TORSDOF 5
ENDMDL
MODEL 7
REMARK VINA RESULT:      -6.8      3.315      5.843
REMARK  5 active torsions:
REMARK  status: ('A' for Active; 'I' for Inactive)
REMARK    1  A    between atoms: C2_2  and  C3_4 
REMARK    2  A    between atoms: C3_4  and  C4_5 
REMARK    3  A    between atoms: C4_5  and  C5_6 
REMARK    4  A    between atoms: C5_6  and  N1_7 
REMARK    5  A    between atoms: N3_21  and  C16_22 
ROOT
HETATM    1  N1  UNL     1      24.138   2.242  52.859  1.00  0.00    -0.255 NA
HETATM    2  C6  UNL     1      25.018   2.822  52.026  1.00  0.00     0.065 A 
HETATM    3  C7  UNL     1      23.665   3.200  52.114  1.00  0.00     0.107 A 
HETATM    4  C8  UNL     1      25.023   2.823  52.024  1.00  0.00     0.143 A 
HETATM    5  O1  UNL     1      24.655   2.441  50.485  1.00  0.00     0.000 OA
HETATM    6  C9  UNL     1      24.659   3.870  49.786  1.00  0.00     0.048 A 
HETATM    7  C10 UNL     1      26.026   3.168  49.723  1.00  0.00     0.287 A 
HETATM    8  C11 UNL     1      26.150   4.398  49.228  1.00  0.00     0.205 A 
HETATM    9  C12 UNL     1      26.005   5.671  48.774  1.00  0.00     0.051 A 
HETATM   10 CL1  UNL     1      27.506   6.295  48.351  1.00  0.00    -0.086 Cl
HETATM   11  C13 UNL     1      24.660   6.001  48.944  1.00  0.00     0.027 A 
HETATM   12  C14 UNL     1      23.849   5.082  49.500  1.00  0.00    -0.052 A 
HETATM   13  C15 UNL     1      22.500   4.812  50.102  1.00  0.00     0.151 C 
HETATM   14  N2  UNL     1      22.776   4.152  51.510  1.00  0.00    -0.396 N 
HETATM   15  N3  UNL     1      26.983   3.815  50.432  1.00  0.00    -0.046 N 
HETATM   16  C16 UNL     1      26.568   2.891  51.428  1.00  0.00     0.239 A 
HETATM   17  H12 UNL     1      22.543   4.051  52.523  1.00  0.00     0.155 HD
HETATM   18  H13 UNL     1      27.889   4.282  50.338  1.00  0.00     0.282 HD
ENDROOT
BRANCH   1  19
HETATM   19  C5  UNL     1      23.652   1.153  53.050  1.00  0.00     0.062 C 
BRANCH  19  20
HETATM   20  C4  UNL     1      22.986  -0.115  53.249  1.00  0.00     0.009 C 
BRANCH  20  21
HETATM   21  C3  UNL     1      24.047  -0.540  53.986  1.00  0.00    -0.010 C 
BRANCH  21  22
HETATM   22  C2  UNL     1      25.263  -0.871  53.099  1.00  0.00     0.021 A 
HETATM   23  C1  UNL     1      26.491  -0.939  52.686  1.00  0.00     0.149 A 
HETATM   24 BR1  UNL     1      26.960  -0.196  53.864  1.00  0.00    -0.157 Br
ENDBRANCH  21  22
ENDBRANCH  20  21
ENDBRANCH  19  20
ENDBRANCH   1  19
TORSDOF 5
ENDMDL
MODEL 8
REMARK VINA RESULT:      -6.7      3.611      5.591
REMARK  5 active torsions:
REMARK  status: ('A' for Active; 'I' for Inactive)
REMARK    1  A    between atoms: C2_2  and  C3_4 
REMARK    2  A    between atoms: C3_4  and  C4_5 
REMARK    3  A    between atoms: C4_5  and  C5_6 
REMARK    4  A    between atoms: C5_6  and  N1_7 
REMARK    5  A    between atoms: N3_21  and  C16_22 
ROOT
HETATM    1  N1  UNL     1      25.069   1.706  53.203  1.00  0.00    -0.255 NA
HETATM    2  C6  UNL     1      25.617   2.399  52.191  1.00  0.00     0.065 A 
HETATM    3  C7  UNL     1      24.577   2.895  53.000  1.00  0.00     0.107 A 
HETATM    4  C8  UNL     1      25.621   2.400  52.187  1.00  0.00     0.143 A 
HETATM    5  O1  UNL     1      24.541   2.550  50.978  1.00  0.00     0.000 OA
HETATM    6  C9  UNL     1      24.602   4.112  50.682  1.00  0.00     0.048 A 
HETATM    7  C10 UNL     1      25.582   3.300  49.819  1.00  0.00     0.287 A 
HETATM    8  C11 UNL     1      25.785   4.597  49.596  1.00  0.00     0.205 A 
HETATM    9  C12 UNL     1      25.782   5.956  49.547  1.00  0.00     0.051 A 
HETATM   10 CL1  UNL     1      27.056   6.489  48.592  1.00  0.00    -0.086 Cl
HETATM   11  C13 UNL     1      24.773   6.381  50.412  1.00  0.00     0.027 A 
HETATM   12  C14 UNL     1      24.080   5.444  51.085  1.00  0.00    -0.052 A 
HETATM   13  C15 UNL     1      23.104   5.171  52.193  1.00  0.00     0.151 C 
HETATM   14  N2  UNL     1      23.786   4.088  53.117  1.00  0.00    -0.396 N 
HETATM   15  N3  UNL     1      26.880   3.579  50.094  1.00  0.00    -0.046 N 
HETATM   16  C16 UNL     1      26.719   2.455  50.946  1.00  0.00     0.239 A 
HETATM   17  H12 UNL     1      23.996   3.714  54.070  1.00  0.00     0.155 HD
HETATM   18  H13 UNL     1      27.741   3.938  49.673  1.00  0.00     0.282 HD
ENDROOT
BRANCH   1  19
HETATM   19  C5  UNL     1      24.457   0.679  53.373  1.00  0.00     0.062 C 
BRANCH  19  20
HETATM   20  C4  UNL     1      23.646  -0.506  53.547  1.00  0.00     0.009 C 
BRANCH  20  21
HETATM   21  C3  UNL     1      22.528   0.263  53.453  1.00  0.00    -0.010 C 
BRANCH  21  22
HETATM   22  C2  UNL     1      21.837   0.103  52.085  1.00  0.00     0.021 A 
HETATM   23  C1  UNL     1      21.220   0.409  50.985  1.00  0.00     0.149 A 
HETATM   24 BR1  UNL     1      21.187   1.829  51.362  1.00  0.00    -0.157 Br
ENDBRANCH  21  22
ENDBRANCH  20  21
ENDBRANCH  19  20
ENDBRANCH   1  19
TORSDOF 5
ENDMDL
MODEL 9
REMARK VINA RESULT:      -6.5      4.010      5.010
REMARK  5 active torsions:
REMARK  status: ('A' for Active; 'I' for Inactive)
REMARK    1  A    between atoms: C2_2  and  C3_4 
REMARK    2  A    between atoms: C3_4  and  C4_5 
REMARK    3  A    between atoms: C4_5  and  C5_6 
REMARK    4  A    between atoms: C5_6  and  N1_7 
REMARK    5  A    between atoms: N3_21  and  C16_22 
ROOT
HETATM    1  N1  UNL     1      20.184   0.483  53.409  1.00  0.00    -0.255 NA
HETATM    2  C6  UNL     1      21.423   0.139  53.796  1.00  0.00     0.065 A 
HETATM    3  C7  UNL     1      21.127   1.326  53.101  1.00  0.00     0.107 A 
HETATM    4  C8  UNL     1      21.427   0.135  53.798  1.00  0.00     0.143 A 
HETATM    5  O1  UNL     1      22.329  -0.220  52.491  1.00  0.00     0.000 OA
HETATM    6  C9  UNL     1      23.633   0.653  52.751  1.00  0.00     0.048 A 
HETATM    7  C10 UNL     1      23.744  -0.771  53.320  1.00  0.00     0.287 A 
HETATM    8  C11 UNL     1      24.819  -0.077  53.685  1.00  0.00     0.205 A 
HETATM    9  C12 UNL     1      25.801   0.836  53.911  1.00  0.00     0.051 A 
HETATM   10 CL1  UNL     1      26.933   0.197  54.974  1.00  0.00    -0.086 Cl
HETATM   11  C13 UNL     1      25.418   2.002  53.247  1.00  0.00     0.027 A 
HETATM   12  C14 UNL     1      24.242   2.000  52.593  1.00  0.00    -0.052 A 
HETATM   13  C15 UNL     1      23.200   2.829  51.899  1.00  0.00     0.151 C 
HETATM   14  N2  UNL     1      21.827   2.471  52.589  1.00  0.00    -0.396 N 
HETATM   15  N3  UNL     1      23.821  -0.792  54.673  1.00  0.00    -0.046 N 
HETATM   16  C16 UNL     1      22.418  -0.969  54.537  1.00  0.00     0.239 A 
HETATM   17  H12 UNL     1      20.898   2.769  52.965  1.00  0.00     0.155 HD
HETATM   18  H13 UNL     1      24.424  -1.079  55.449  1.00  0.00     0.282 HD
ENDROOT
BRANCH   1  19
HETATM   19  C5  UNL     1      19.308   0.066  52.688  1.00  0.00     0.062 C 
BRANCH  19  20
HETATM   20  C4  UNL     1      18.251  -0.506  51.884  1.00  0.00     0.009 C 
BRANCH  20  21
HETATM   21  C3  UNL     1      18.097   0.692  51.260  1.00  0.00    -0.010 C 
BRANCH  21  22
HETATM   22  C2  UNL     1      19.155   0.905  50.161  1.00  0.00     0.021 A 
HETATM   23  C1  UNL     1      19.936   1.507  49.317  1.00  0.00     0.149 A 
HETATM   24 BR1  UNL     1      19.411   2.819  49.720  1.00  0.00    -0.157 Br
ENDBRANCH  21  22
ENDBRANCH  20  21
ENDBRANCH  19  20
ENDBRANCH   1  19
TORSDOF 5
ENDMDL
