MODEL 1
REMARK VINA RESULT:      -7.3      0.000      0.000
REMARK  4 active torsions:
REMARK  status: ('A' for Active; 'I' for Inactive)
REMARK    1  A    between atoms: C7_8  and  N2_9 
REMARK    2  A    between atoms: C8_10  and  N3_11 
REMARK    3  A    between atoms: C9_12  and  N4_13 
REMARK    4  A    between atoms: N4_13  and  C10_14 
ROOT
HETATM    1  N3  UNL     1      26.368   3.859  50.128  1.00  0.00    -0.237 NA
HETATM    2  C9  UNL     1      25.267   4.501  50.026  1.00  0.00     0.208 C 
ENDROOT
BRANCH   1   3
HETATM    3  C8  UNL     1      26.503   2.821  51.072  1.00  0.00     0.234 C 
HETATM    4  N2  UNL     1      27.522   2.487  51.793  1.00  0.00    -0.242 NA
BRANCH   4   5
HETATM    5  C7  UNL     1      27.365   1.378  52.669  1.00  0.00     0.062 C 
HETATM    6  C2  UNL     1      28.131   1.280  53.932  1.00  0.00    -0.049 C 
HETATM    7  C1  UNL     1      28.913   2.335  53.869  1.00  0.00     0.041 C 
HETATM    8  C3  UNL     1      27.897   0.168  54.865  1.00  0.00     0.058 C 
HETATM    9  C4  UNL     1      26.410  -0.072  55.045  1.00  0.00     0.152 C 
HETATM   10  N1  UNL     1      25.998  -1.005  53.976  1.00  0.00    -0.301 NA
HETATM   11  C5  UNL     1      26.027  -0.706  52.717  1.00  0.00     0.112 C 
HETATM   12  C6  UNL     1      26.457   0.559  52.106  1.00  0.00     0.050 C 
ENDBRANCH   4   5
ENDBRANCH   1   3
BRANCH   2  13
HETATM   13  N4  UNL     1      25.418   5.491  48.995  1.00  0.00    -0.351 N 
HETATM   14  H11 UNL     1      24.916   5.595  48.061  1.00  0.00     0.166 HD
BRANCH  13  15
HETATM   15  C10 UNL     1      26.320   6.621  49.017  1.00  0.00     0.034 A 
HETATM   16  C11 UNL     1      26.110   7.621  49.922  1.00  0.00     0.032 A 
HETATM   17  C12 UNL     1      26.931   8.739  50.056  1.00  0.00     0.046 A 
HETATM   18  C13 UNL     1      28.023   8.822  49.212  1.00  0.00     0.138 A 
HETATM   19  F1  UNL     1      28.912   9.830  49.215  1.00  0.00    -0.204 F 
HETATM   20  C14 UNL     1      28.264   7.842  48.290  1.00  0.00     0.074 A 
HETATM   21 CL1  UNL     1      29.622   7.852  47.170  1.00  0.00    -0.081 Cl
HETATM   22  C15 UNL     1      27.435   6.742  48.175  1.00  0.00     0.056 A 
ENDBRANCH  13  15
ENDBRANCH   2  13
TORSDOF 4
ENDMDL
MODEL 2
REMARK VINA RESULT:      -7.3      6.361      8.681
REMARK  4 active torsions:
REMARK  status: ('A' for Active; 'I' for Inactive)
REMARK    1  A    between atoms: C7_8  and  N2_9 
REMARK    2  A    between atoms: C8_10  and  N3_11 
REMARK    3  A    between atoms: C9_12  and  N4_13 
REMARK    4  A    between atoms: N4_13  and  C10_14 
ROOT
HETATM    1  N3  UNL     1      22.487  -0.982  53.840  1.00  0.00    -0.237 NA
HETATM    2  C9  UNL     1      21.722  -0.229  54.536  1.00  0.00     0.208 C 
ENDROOT
BRANCH   1   3
HETATM    3  C8  UNL     1      23.874  -0.741  53.795  1.00  0.00     0.234 C 
HETATM    4  N2  UNL     1      24.539   0.138  53.121  1.00  0.00    -0.242 NA
BRANCH   4   5
HETATM    5  C7  UNL     1      25.952   0.146  53.275  1.00  0.00     0.062 C 
HETATM    6  C2  UNL     1      26.676   1.371  53.681  1.00  0.00    -0.049 C 
HETATM    7  C1  UNL     1      25.714   2.266  53.721  1.00  0.00     0.041 C 
HETATM    8  C3  UNL     1      28.127   1.340  53.915  1.00  0.00     0.058 C 
HETATM    9  C4  UNL     1      28.510   0.120  54.731  1.00  0.00     0.152 C 
HETATM   10  N1  UNL     1      28.736  -0.980  53.770  1.00  0.00    -0.301 NA
HETATM   11  C5  UNL     1      27.801  -1.486  53.031  1.00  0.00     0.112 C 
HETATM   12  C6  UNL     1      26.385  -1.097  52.985  1.00  0.00     0.050 C 
ENDBRANCH   4   5
ENDBRANCH   1   3
BRANCH   2  13
HETATM   13  N4  UNL     1      20.373  -0.706  54.395  1.00  0.00    -0.351 N 
HETATM   14  H11 UNL     1      19.756  -1.240  55.081  1.00  0.00     0.166 HD
BRANCH  13  15
HETATM   15  C10 UNL     1      19.522  -0.541  53.238  1.00  0.00     0.034 A 
HETATM   16  C11 UNL     1      18.276  -1.098  53.244  1.00  0.00     0.032 A 
HETATM   17  C12 UNL     1      17.359  -0.976  52.203  1.00  0.00     0.046 A 
HETATM   18  C13 UNL     1      17.753  -0.240  51.101  1.00  0.00     0.138 A 
HETATM   19  F1  UNL     1      16.989  -0.024  50.017  1.00  0.00    -0.204 F 
HETATM   20  C14 UNL     1      18.995   0.331  51.056  1.00  0.00     0.074 A 
HETATM   21 CL1  UNL     1      19.595   1.284  49.704  1.00  0.00    -0.081 Cl
HETATM   22  C15 UNL     1      19.888   0.195  52.102  1.00  0.00     0.056 A 
ENDBRANCH  13  15
ENDBRANCH   2  13
TORSDOF 4
ENDMDL
MODEL 3
REMARK VINA RESULT:      -7.2      3.735      8.288
REMARK  4 active torsions:
REMARK  status: ('A' for Active; 'I' for Inactive)
REMARK    1  A    between atoms: C7_8  and  N2_9 
REMARK    2  A    between atoms: C8_10  and  N3_11 
REMARK    3  A    between atoms: C9_12  and  N4_13 
REMARK    4  A    between atoms: N4_13  and  C10_14 
ROOT
HETATM    1  N3  UNL     1      26.721   3.229  49.940  1.00  0.00    -0.237 NA
HETATM    2  C9  UNL     1      25.758   3.182  50.780  1.00  0.00     0.208 C 
ENDROOT
BRANCH   1   3
HETATM    3  C8  UNL     1      27.040   4.436  49.288  1.00  0.00     0.234 C 
HETATM    4  N2  UNL     1      28.148   4.810  48.738  1.00  0.00    -0.242 NA
BRANCH   4   5
HETATM    5  C7  UNL     1      28.179   6.104  48.148  1.00  0.00     0.062 C 
HETATM    6  C2  UNL     1      29.429   6.665  47.587  1.00  0.00    -0.049 C 
HETATM    7  C1  UNL     1      30.313   5.740  47.890  1.00  0.00     0.041 C 
HETATM    8  C3  UNL     1      29.425   7.969  46.909  1.00  0.00     0.058 C 
HETATM    9  C4  UNL     1      28.244   8.074  45.963  1.00  0.00     0.152 C 
HETATM   10  N1  UNL     1      27.109   8.589  46.757  1.00  0.00    -0.301 NA
HETATM   11  C5  UNL     1      26.562   7.933  47.730  1.00  0.00     0.112 C 
HETATM   12  C6  UNL     1      26.931   6.604  48.234  1.00  0.00     0.050 C 
ENDBRANCH   4   5
ENDBRANCH   1   3
BRANCH   2  13
HETATM   13  N4  UNL     1      25.663   1.839  51.281  1.00  0.00    -0.351 N 
HETATM   14  H11 UNL     1      24.907   1.101  51.138  1.00  0.00     0.166 HD
BRANCH  13  15
HETATM   15  C10 UNL     1      26.632   1.165  52.117  1.00  0.00     0.034 A 
HETATM   16  C11 UNL     1      26.679  -0.199  52.114  1.00  0.00     0.032 A 
HETATM   17  C12 UNL     1      27.590  -0.952  52.850  1.00  0.00     0.046 A 
HETATM   18  C13 UNL     1      28.497  -0.258  53.628  1.00  0.00     0.138 A 
HETATM   19  F1  UNL     1      29.441  -0.832  54.393  1.00  0.00    -0.204 F 
HETATM   20  C14 UNL     1      28.480   1.109  53.660  1.00  0.00     0.074 A 
HETATM   21 CL1  UNL     1      29.588   2.088  54.615  1.00  0.00    -0.081 Cl
HETATM   22  C15 UNL     1      27.566   1.836  52.921  1.00  0.00     0.056 A 
ENDBRANCH  13  15
ENDBRANCH   2  13
TORSDOF 4
ENDMDL
MODEL 4
REMARK VINA RESULT:      -6.9      4.541      8.826
REMARK  4 active torsions:
REMARK  status: ('A' for Active; 'I' for Inactive)
REMARK    1  A    between atoms: C7_8  and  N2_9 
REMARK    2  A    between atoms: C8_10  and  N3_11 
REMARK    3  A    between atoms: C9_12  and  N4_13 
REMARK    4  A    between atoms: N4_13  and  C10_14 
ROOT
HETATM    1  N3  UNL     1      26.662   2.644  50.295  1.00  0.00    -0.237 NA
HETATM    2  C9  UNL     1      26.397   2.494  51.537  1.00  0.00     0.208 C 
ENDROOT
BRANCH   1   3
HETATM    3  C8  UNL     1      26.826   3.933  49.751  1.00  0.00     0.234 C 
HETATM    4  N2  UNL     1      27.654   4.352  48.852  1.00  0.00    -0.242 NA
BRANCH   4   5
HETATM    5  C7  UNL     1      27.590   5.727  48.497  1.00  0.00     0.062 C 
HETATM    6  C2  UNL     1      28.772   6.440  47.961  1.00  0.00    -0.049 C 
HETATM    7  C1  UNL     1      29.712   5.523  48.039  1.00  0.00     0.041 C 
HETATM    8  C3  UNL     1      28.666   7.839  47.522  1.00  0.00     0.058 C 
HETATM    9  C4  UNL     1      27.415   8.044  46.690  1.00  0.00     0.152 C 
HETATM   10  N1  UNL     1      26.323   8.356  47.635  1.00  0.00    -0.301 NA
HETATM   11  C5  UNL     1      25.875   7.515  48.512  1.00  0.00     0.112 C 
HETATM   12  C6  UNL     1      26.333   6.140  48.751  1.00  0.00     0.050 C 
ENDBRANCH   4   5
ENDBRANCH   1   3
BRANCH   2  13
HETATM   13  N4  UNL     1      26.285   1.086  51.806  1.00  0.00    -0.351 N 
HETATM   14  H11 UNL     1      26.860   0.267  51.439  1.00  0.00     0.166 HD
BRANCH  13  15
HETATM   15  C10 UNL     1      25.330   0.455  52.689  1.00  0.00     0.034 A 
HETATM   16  C11 UNL     1      25.785  -0.248  53.767  1.00  0.00     0.032 A 
HETATM   17  C12 UNL     1      24.958  -0.867  54.702  1.00  0.00     0.046 A 
HETATM   18  C13 UNL     1      23.594  -0.752  54.510  1.00  0.00     0.138 A 
HETATM   19  F1  UNL     1      22.664  -1.286  55.319  1.00  0.00    -0.204 F 
HETATM   20  C14 UNL     1      23.100  -0.059  53.440  1.00  0.00     0.074 A 
HETATM   21 CL1  UNL     1      21.385   0.147  53.104  1.00  0.00    -0.081 Cl
HETATM   22  C15 UNL     1      23.940   0.548  52.525  1.00  0.00     0.056 A 
ENDBRANCH  13  15
ENDBRANCH   2  13
TORSDOF 4
ENDMDL
MODEL 5
REMARK VINA RESULT:      -6.8      8.415     10.963
REMARK  4 active torsions:
REMARK  status: ('A' for Active; 'I' for Inactive)
REMARK    1  A    between atoms: C7_8  and  N2_9 
REMARK    2  A    between atoms: C8_10  and  N3_11 
REMARK    3  A    between atoms: C9_12  and  N4_13 
REMARK    4  A    between atoms: N4_13  and  C10_14 
ROOT
HETATM    1  N3  UNL     1      20.929   0.029  53.290  1.00  0.00    -0.237 NA
HETATM    2  C9  UNL     1      20.344  -1.053  53.639  1.00  0.00     0.208 C 
ENDROOT
BRANCH   1   3
HETATM    3  C8  UNL     1      22.313   0.038  53.027  1.00  0.00     0.234 C 
HETATM    4  N2  UNL     1      23.150   1.023  53.032  1.00  0.00    -0.242 NA
BRANCH   4   5
HETATM    5  C7  UNL     1      24.505   0.729  52.722  1.00  0.00     0.062 C 
HETATM    6  C2  UNL     1      25.296   1.600  51.824  1.00  0.00    -0.049 C 
HETATM    7  C1  UNL     1      24.405   2.485  51.433  1.00  0.00     0.041 C 
HETATM    8  C3  UNL     1      26.720   1.327  51.578  1.00  0.00     0.058 C 
HETATM    9  C4  UNL     1      27.432   1.003  52.878  1.00  0.00     0.152 C 
HETATM   10  N1  UNL     1      27.286  -0.452  53.091  1.00  0.00    -0.301 NA
HETATM   11  C5  UNL     1      26.148  -1.031  53.307  1.00  0.00     0.112 C 
HETATM   12  C6  UNL     1      24.822  -0.403  53.379  1.00  0.00     0.050 C 
ENDBRANCH   4   5
ENDBRANCH   1   3
BRANCH   2  13
HETATM   13  N4  UNL     1      18.950  -0.765  53.839  1.00  0.00    -0.351 N 
HETATM   14  H11 UNL     1      18.479   0.071  54.304  1.00  0.00     0.166 HD
BRANCH  13  15
HETATM   15  C10 UNL     1      17.836  -1.585  53.418  1.00  0.00     0.034 A 
HETATM   16  C11 UNL     1      16.869  -1.036  52.626  1.00  0.00     0.032 A 
HETATM   17  C12 UNL     1      15.771  -1.737  52.133  1.00  0.00     0.046 A 
HETATM   18  C13 UNL     1      15.671  -3.072  52.477  1.00  0.00     0.138 A 
HETATM   19  F1  UNL     1      14.678  -3.888  52.083  1.00  0.00    -0.204 F 
HETATM   20  C14 UNL     1      16.618  -3.657  53.272  1.00  0.00     0.074 A 
HETATM   21 CL1  UNL     1      16.584  -5.345  53.769  1.00  0.00    -0.081 Cl
HETATM   22  C15 UNL     1      17.699  -2.941  53.750  1.00  0.00     0.056 A 
ENDBRANCH  13  15
ENDBRANCH   2  13
TORSDOF 4
ENDMDL
MODEL 6
REMARK VINA RESULT:      -6.7      4.243      8.370
REMARK  4 active torsions:
REMARK  status: ('A' for Active; 'I' for Inactive)
REMARK    1  A    between atoms: C7_8  and  N2_9 
REMARK    2  A    between atoms: C8_10  and  N3_11 
REMARK    3  A    between atoms: C9_12  and  N4_13 
REMARK    4  A    between atoms: N4_13  and  C10_14 
ROOT
HETATM    1  N3  UNL     1      26.224   3.467  49.440  1.00  0.00    -0.237 NA
HETATM    2  C9  UNL     1      25.453   3.768  50.415  1.00  0.00     0.208 C 
ENDROOT
BRANCH   1   3
HETATM    3  C8  UNL     1      27.175   4.394  48.970  1.00  0.00     0.234 C 
HETATM    4  N2  UNL     1      27.008   5.591  48.513  1.00  0.00    -0.242 NA
BRANCH   4   5
HETATM    5  C7  UNL     1      28.169   6.302  48.105  1.00  0.00     0.062 C 
HETATM    6  C2  UNL     1      28.077   7.660  47.522  1.00  0.00    -0.049 C 
HETATM    7  C1  UNL     1      26.777   7.846  47.451  1.00  0.00     0.041 C 
HETATM    8  C3  UNL     1      29.292   8.412  47.181  1.00  0.00     0.058 C 
HETATM    9  C4  UNL     1      30.315   8.307  48.297  1.00  0.00     0.152 C 
HETATM   10  N1  UNL     1      31.108   7.089  48.033  1.00  0.00    -0.301 NA
HETATM   11  C5  UNL     1      30.613   5.893  48.068  1.00  0.00     0.112 C 
HETATM   12  C6  UNL     1      29.226   5.505  48.358  1.00  0.00     0.050 C 
ENDBRANCH   4   5
ENDBRANCH   1   3
BRANCH   2  13
HETATM   13  N4  UNL     1      24.596   2.644  50.674  1.00  0.00    -0.351 N 
HETATM   14  H11 UNL     1      23.708   2.326  50.178  1.00  0.00     0.166 HD
BRANCH  13  15
HETATM   15  C10 UNL     1      24.777   1.648  51.705  1.00  0.00     0.034 A 
HETATM   16  C11 UNL     1      23.701   1.258  52.449  1.00  0.00     0.032 A 
HETATM   17  C12 UNL     1      23.750   0.285  53.445  1.00  0.00     0.046 A 
HETATM   18  C13 UNL     1      24.973  -0.314  53.680  1.00  0.00     0.138 A 
HETATM   19  F1  UNL     1      25.189  -1.270  54.600  1.00  0.00    -0.204 F 
HETATM   20  C14 UNL     1      26.075   0.052  52.958  1.00  0.00     0.074 A 
HETATM   21 CL1  UNL     1      27.676  -0.645  53.178  1.00  0.00    -0.081 Cl
HETATM   22  C15 UNL     1      26.003   1.021  51.975  1.00  0.00     0.056 A 
ENDBRANCH  13  15
ENDBRANCH   2  13
TORSDOF 4
ENDMDL
MODEL 7
REMARK VINA RESULT:      -6.7      6.941      8.582
REMARK  4 active torsions:
REMARK  status: ('A' for Active; 'I' for Inactive)
REMARK    1  A    between atoms: C7_8  and  N2_9 
REMARK    2  A    between atoms: C8_10  and  N3_11 
REMARK    3  A    between atoms: C9_12  and  N4_13 
REMARK    4  A    between atoms: N4_13  and  C10_14 
ROOT
HETATM    1  N3  UNL     1      23.513   1.272  52.943  1.00  0.00    -0.237 NA
HETATM    2  C9  UNL     1      22.958   0.863  51.866  1.00  0.00     0.208 C 
ENDROOT
BRANCH   1   3
HETATM    3  C8  UNL     1      24.844   0.918  53.239  1.00  0.00     0.234 C 
HETATM    4  N2  UNL     1      25.734   0.354  52.492  1.00  0.00    -0.242 NA
BRANCH   4   5
HETATM    5  C7  UNL     1      27.011   0.113  53.069  1.00  0.00     0.062 C 
HETATM    6  C2  UNL     1      27.665  -1.211  52.968  1.00  0.00    -0.049 C 
HETATM    7  C1  UNL     1      26.745  -1.933  52.366  1.00  0.00     0.041 C 
HETATM    8  C3  UNL     1      29.020  -1.419  53.498  1.00  0.00     0.058 C 
HETATM    9  C4  UNL     1      29.929  -0.271  53.104  1.00  0.00     0.152 C 
HETATM   10  N1  UNL     1      29.781   0.766  54.147  1.00  0.00    -0.301 NA
HETATM   11  C5  UNL     1      28.680   1.412  54.359  1.00  0.00     0.112 C 
HETATM   12  C6  UNL     1      27.402   1.263  53.651  1.00  0.00     0.050 C 
ENDBRANCH   4   5
ENDBRANCH   1   3
BRANCH   2  13
HETATM   13  N4  UNL     1      21.615   1.373  51.831  1.00  0.00    -0.351 N 
HETATM   14  H11 UNL     1      21.259   2.368  51.690  1.00  0.00     0.166 HD
BRANCH  13  15
HETATM   15  C10 UNL     1      20.400   0.601  51.971  1.00  0.00     0.034 A 
HETATM   16  C11 UNL     1      20.202  -0.126  53.108  1.00  0.00     0.032 A 
HETATM   17  C12 UNL     1      19.058  -0.879  53.366  1.00  0.00     0.046 A 
HETATM   18  C13 UNL     1      18.072  -0.876  52.398  1.00  0.00     0.138 A 
HETATM   19  F1  UNL     1      16.910  -1.545  52.492  1.00  0.00    -0.204 F 
HETATM   20  C14 UNL     1      18.235  -0.162  51.243  1.00  0.00     0.074 A 
HETATM   21 CL1  UNL     1      17.044  -0.092  49.949  1.00  0.00    -0.081 Cl
HETATM   22  C15 UNL     1      19.380   0.577  51.009  1.00  0.00     0.056 A 
ENDBRANCH  13  15
ENDBRANCH   2  13
TORSDOF 4
ENDMDL
MODEL 8
REMARK VINA RESULT:      -6.7      2.945      3.581
REMARK  4 active torsions:
REMARK  status: ('A' for Active; 'I' for Inactive)
REMARK    1  A    between atoms: C7_8  and  N2_9 
REMARK    2  A    between atoms: C8_10  and  N3_11 
REMARK    3  A    between atoms: C9_12  and  N4_13 
REMARK    4  A    between atoms: N4_13  and  C10_14 
ROOT
HETATM    1  N3  UNL     1      25.452   2.660  50.874  1.00  0.00    -0.237 NA
HETATM    2  C9  UNL     1      25.272   3.914  50.702  1.00  0.00     0.208 C 
ENDROOT
BRANCH   1   3
HETATM    3  C8  UNL     1      24.472   1.880  51.519  1.00  0.00     0.234 C 
HETATM    4  N2  UNL     1      24.607   0.945  52.401  1.00  0.00    -0.242 NA
BRANCH   4   5
HETATM    5  C7  UNL     1      23.422   0.323  52.879  1.00  0.00     0.062 C 
HETATM    6  C2  UNL     1      23.451  -0.615  54.023  1.00  0.00    -0.049 C 
HETATM    7  C1  UNL     1      24.738  -0.703  54.281  1.00  0.00     0.041 C 
HETATM    8  C3  UNL     1      22.206  -1.186  54.556  1.00  0.00     0.058 C 
HETATM    9  C4  UNL     1      21.142  -0.113  54.689  1.00  0.00     0.152 C 
HETATM   10  N1  UNL     1      20.444  -0.043  53.388  1.00  0.00    -0.301 NA
HETATM   11  C5  UNL     1      21.015   0.340  52.291  1.00  0.00     0.112 C 
HETATM   12  C6  UNL     1      22.409   0.763  52.107  1.00  0.00     0.050 C 
ENDBRANCH   4   5
ENDBRANCH   1   3
BRANCH   2  13
HETATM   13  N4  UNL     1      26.424   4.445  50.026  1.00  0.00    -0.351 N 
HETATM   14  H11 UNL     1      27.445   4.144  50.065  1.00  0.00     0.166 HD
BRANCH  13  15
HETATM   15  C10 UNL     1      26.436   5.547  49.091  1.00  0.00     0.034 A 
HETATM   16  C11 UNL     1      25.263   6.177  48.789  1.00  0.00     0.032 A 
HETATM   17  C12 UNL     1      25.160   7.268  47.930  1.00  0.00     0.046 A 
HETATM   18  C13 UNL     1      26.329   7.730  47.356  1.00  0.00     0.138 A 
HETATM   19  F1  UNL     1      26.403   8.772  46.510  1.00  0.00    -0.204 F 
HETATM   20  C14 UNL     1      27.524   7.124  47.631  1.00  0.00     0.074 A 
HETATM   21 CL1  UNL     1      29.067   7.631  46.954  1.00  0.00    -0.081 Cl
HETATM   22  C15 UNL     1      27.602   6.041  48.486  1.00  0.00     0.056 A 
ENDBRANCH  13  15
ENDBRANCH   2  13
TORSDOF 4
ENDMDL
MODEL 9
REMARK VINA RESULT:      -6.6      4.413      5.959
REMARK  4 active torsions:
REMARK  status: ('A' for Active; 'I' for Inactive)
REMARK    1  A    between atoms: C7_8  and  N2_9 
REMARK    2  A    between atoms: C8_10  and  N3_11 
REMARK    3  A    between atoms: C9_12  and  N4_13 
REMARK    4  A    between atoms: N4_13  and  C10_14 
ROOT
HETATM    1  N3  UNL     1      28.760   5.247  48.025  1.00  0.00    -0.237 NA
HETATM    2  C9  UNL     1      29.415   6.302  48.329  1.00  0.00     0.208 C 
ENDROOT
BRANCH   1   3
HETATM    3  C8  UNL     1      27.549   4.947  48.679  1.00  0.00     0.234 C 
HETATM    4  N2  UNL     1      27.204   3.889  49.336  1.00  0.00    -0.242 NA
BRANCH   4   5
HETATM    5  C7  UNL     1      25.897   3.865  49.895  1.00  0.00     0.062 C 
HETATM    6  C2  UNL     1      25.543   2.931  50.988  1.00  0.00    -0.049 C 
HETATM    7  C1  UNL     1      26.644   2.223  51.119  1.00  0.00     0.041 C 
HETATM    8  C3  UNL     1      24.212   2.976  51.609  1.00  0.00     0.058 C 
HETATM    9  C4  UNL     1      23.803   4.409  51.890  1.00  0.00     0.152 C 
HETATM   10  N1  UNL     1      23.146   4.912  50.666  1.00  0.00    -0.301 NA
HETATM   11  C5  UNL     1      23.762   5.070  49.538  1.00  0.00     0.112 C 
HETATM   12  C6  UNL     1      25.174   4.796  49.242  1.00  0.00     0.050 C 
ENDBRANCH   4   5
ENDBRANCH   1   3
BRANCH   2  13
HETATM   13  N4  UNL     1      30.596   6.349  47.510  1.00  0.00    -0.351 N 
HETATM   14  H11 UNL     1      30.858   7.010  46.716  1.00  0.00     0.166 HD
BRANCH  13  15
HETATM   15  C10 UNL     1      31.742   5.473  47.607  1.00  0.00     0.034 A 
HETATM   16  C11 UNL     1      32.917   5.966  48.096  1.00  0.00     0.032 A 
HETATM   17  C12 UNL     1      34.073   5.208  48.266  1.00  0.00     0.046 A 
HETATM   18  C13 UNL     1      34.008   3.873  47.912  1.00  0.00     0.138 A 
HETATM   19  F1  UNL     1      35.030   3.007  48.016  1.00  0.00    -0.204 F 
HETATM   20  C14 UNL     1      32.850   3.343  47.415  1.00  0.00     0.074 A 
HETATM   21 CL1  UNL     1      32.661   1.660  46.935  1.00  0.00    -0.081 Cl
HETATM   22  C15 UNL     1      31.714   4.115  47.255  1.00  0.00     0.056 A 
ENDBRANCH  13  15
ENDBRANCH   2  13
TORSDOF 4
ENDMDL
