MODEL 1
REMARK VINA RESULT:      -8.8      0.000      0.000
REMARK  3 active torsions:
REMARK  status: ('A' for Active; 'I' for Inactive)
REMARK    1  A    between atoms: N5_11  and  C7_12 
REMARK    2  A    between atoms: C7_12  and  C8_13 
REMARK    3  A    between atoms: C8_13  and  C9_14 
ROOT
HETATM    1  C1  UNL     1      20.218   0.270  51.865  1.00  0.00     0.043 C 
HETATM    2  C2  UNL     1      21.648   0.394  52.245  1.00  0.00    -0.084 C 
HETATM    3  C3  UNL     1      22.139  -0.397  53.187  1.00  0.00    -0.008 C 
HETATM    4  C4  UNL     1      23.522  -0.364  53.639  1.00  0.00     0.143 C 
HETATM    5  N1  UNL     1      24.435   0.388  52.770  1.00  0.00    -0.200 NA
HETATM    6  N2  UNL     1      25.546   0.561  53.645  1.00  0.00    -0.237 N 
HETATM    7  N3  UNL     1      26.622  -0.334  53.645  1.00  0.00    -0.157 NA
HETATM    8  C5  UNL     1      27.446  -0.230  52.659  1.00  0.00     0.257 C 
HETATM    9  N4  UNL     1      26.734   0.845  52.058  1.00  0.00    -0.236 NA
HETATM   10  C6  UNL     1      27.022   2.048  52.433  1.00  0.00     0.206 C 
HETATM   11  N5  UNL     1      26.038   2.536  51.525  1.00  0.00    -0.368 N 
HETATM   12  C15 UNL     1      24.651   2.669  51.781  1.00  0.00     0.112 A 
HETATM   13  C16 UNL     1      24.087   2.782  53.161  1.00  0.00     0.057 A 
HETATM   14  C17 UNL     1      23.859   1.587  52.311  1.00  0.00     0.060 A 
HETATM   15  C18 UNL     1      22.550   1.351  51.620  1.00  0.00     0.062 C 
HETATM   16  H7  UNL     1      26.019   1.125  54.417  1.00  0.00     0.204 HD
ENDROOT
BRANCH  11  17
HETATM   17  C7  UNL     1      26.640   2.910  50.259  1.00  0.00     0.129 C 
BRANCH  17  18
HETATM   18  C8  UNL     1      25.737   3.735  49.372  1.00  0.00     0.060 C 
BRANCH  18  19
HETATM   19  C9  UNL     1      26.582   4.917  48.970  1.00  0.00    -0.035 A 
HETATM   20  C10 UNL     1      27.901   4.849  48.582  1.00  0.00     0.010 A 
HETATM   21  C11 UNL     1      28.617   5.970  48.218  1.00  0.00     0.024 A 
HETATM   22  C12 UNL     1      28.018   7.234  48.231  1.00  0.00     0.035 A 
HETATM   23 CL1  UNL     1      28.958   8.616  47.764  1.00  0.00    -0.084 Cl
HETATM   24  C13 UNL     1      26.697   7.329  48.616  1.00  0.00     0.048 A 
HETATM   25  C14 UNL     1      26.007   6.194  48.975  1.00  0.00     0.042 A 
HETATM   26 CL2  UNL     1      24.325   6.416  49.453  1.00  0.00    -0.084 Cl
ENDBRANCH  18  19
ENDBRANCH  17  18
ENDBRANCH  11  17
TORSDOF 3
ENDMDL
MODEL 2
REMARK VINA RESULT:      -8.5      3.899      5.443
REMARK  3 active torsions:
REMARK  status: ('A' for Active; 'I' for Inactive)
REMARK    1  A    between atoms: N5_11  and  C7_12 
REMARK    2  A    between atoms: C7_12  and  C8_13 
REMARK    3  A    between atoms: C8_13  and  C9_14 
ROOT
HETATM    1  C1  UNL     1      21.295   2.157  48.049  1.00  0.00     0.043 C 
HETATM    2  C2  UNL     1      21.305   1.599  49.425  1.00  0.00    -0.084 C 
HETATM    3  C3  UNL     1      20.157   1.284  50.004  1.00  0.00    -0.008 C 
HETATM    4  C4  UNL     1      20.046   0.732  51.346  1.00  0.00     0.143 C 
HETATM    5  N1  UNL     1      21.308   0.244  51.916  1.00  0.00    -0.200 NA
HETATM    6  N2  UNL     1      20.955   0.153  53.294  1.00  0.00    -0.237 N 
HETATM    7  N3  UNL     1      20.487  -1.044  53.849  1.00  0.00    -0.157 NA
HETATM    8  C5  UNL     1      21.375  -1.953  54.068  1.00  0.00     0.257 C 
HETATM    9  N4  UNL     1      22.445  -1.156  53.574  1.00  0.00    -0.236 NA
HETATM   10  C6  UNL     1      23.044  -0.365  54.402  1.00  0.00     0.206 C 
HETATM   11  N5  UNL     1      23.892   0.059  53.338  1.00  0.00    -0.368 N 
HETATM   12  C15 UNL     1      23.612   1.077  52.394  1.00  0.00     0.112 A 
HETATM   13  C16 UNL     1      22.627   2.174  52.651  1.00  0.00     0.057 A 
HETATM   14  C17 UNL     1      22.381   1.113  51.644  1.00  0.00     0.060 A 
HETATM   15  C18 UNL     1      22.532   1.372  50.175  1.00  0.00     0.062 C 
HETATM   16  H7  UNL     1      20.858   0.629  54.242  1.00  0.00     0.204 HD
ENDROOT
BRANCH  11  17
HETATM   17  C7  UNL     1      25.135  -0.690  53.334  1.00  0.00     0.129 C 
BRANCH  17  18
HETATM   18  C8  UNL     1      26.114  -0.247  52.272  1.00  0.00     0.060 C 
BRANCH  18  19
HETATM   19  C9  UNL     1      27.230   0.414  53.040  1.00  0.00    -0.035 A 
HETATM   20  C10 UNL     1      27.965  -0.186  54.038  1.00  0.00     0.010 A 
HETATM   21  C11 UNL     1      28.981   0.472  54.698  1.00  0.00     0.024 A 
HETATM   22  C12 UNL     1      29.304   1.793  54.370  1.00  0.00     0.035 A 
HETATM   23 CL1  UNL     1      30.591   2.581  55.228  1.00  0.00    -0.084 Cl
HETATM   24  C13 UNL     1      28.583   2.417  53.375  1.00  0.00     0.048 A 
HETATM   25  C14 UNL     1      27.574   1.736  52.733  1.00  0.00     0.042 A 
HETATM   26 CL2  UNL     1      26.708   2.616  51.476  1.00  0.00    -0.084 Cl
ENDBRANCH  18  19
ENDBRANCH  17  18
ENDBRANCH  11  17
TORSDOF 3
ENDMDL
MODEL 3
REMARK VINA RESULT:      -8.4      4.413      6.121
REMARK  3 active torsions:
REMARK  status: ('A' for Active; 'I' for Inactive)
REMARK    1  A    between atoms: N5_11  and  C7_12 
REMARK    2  A    between atoms: C7_12  and  C8_13 
REMARK    3  A    between atoms: C8_13  and  C9_14 
ROOT
HETATM    1  C1  UNL     1      17.092   0.168  49.617  1.00  0.00     0.043 C 
HETATM    2  C2  UNL     1      18.029   0.039  50.761  1.00  0.00    -0.084 C 
HETATM    3  C3  UNL     1      17.630  -0.588  51.857  1.00  0.00    -0.008 C 
HETATM    4  C4  UNL     1      18.461  -0.773  53.038  1.00  0.00     0.143 C 
HETATM    5  N1  UNL     1      19.888  -0.496  52.834  1.00  0.00    -0.200 NA
HETATM    6  N2  UNL     1      20.328  -0.381  54.185  1.00  0.00    -0.237 N 
HETATM    7  N3  UNL     1      20.856  -1.477  54.877  1.00  0.00    -0.157 NA
HETATM    8  C5  UNL     1      22.060  -1.817  54.567  1.00  0.00     0.257 C 
HETATM    9  N4  UNL     1      22.199  -0.786  53.597  1.00  0.00    -0.236 NA
HETATM   10  C6  UNL     1      22.621   0.368  53.995  1.00  0.00     0.206 C 
HETATM   11  N5  UNL     1      22.520   0.836  52.653  1.00  0.00    -0.368 N 
HETATM   12  C15 UNL     1      21.358   1.353  52.028  1.00  0.00     0.112 A 
HETATM   13  C16 UNL     1      20.212   1.932  52.796  1.00  0.00     0.057 A 
HETATM   14  C17 UNL     1      20.097   0.654  52.051  1.00  0.00     0.060 A 
HETATM   15  C18 UNL     1      19.384   0.572  50.735  1.00  0.00     0.062 C 
HETATM   16  H7  UNL     1      20.463   0.227  55.050  1.00  0.00     0.204 HD
ENDROOT
BRANCH  11  17
HETATM   17  C7  UNL     1      23.795   0.734  51.969  1.00  0.00     0.129 C 
BRANCH  17  18
HETATM   18  C8  UNL     1      24.910   1.508  52.633  1.00  0.00     0.060 C 
BRANCH  18  19
HETATM   19  C9  UNL     1      26.019   0.501  52.802  1.00  0.00    -0.035 A 
HETATM   20  C10 UNL     1      25.888  -0.857  52.616  1.00  0.00     0.010 A 
HETATM   21  C11 UNL     1      26.947  -1.725  52.779  1.00  0.00     0.024 A 
HETATM   22  C12 UNL     1      28.210  -1.248  53.144  1.00  0.00     0.035 A 
HETATM   23 CL1  UNL     1      29.513  -2.378  53.338  1.00  0.00    -0.084 Cl
HETATM   24  C13 UNL     1      28.368   0.108  53.337  1.00  0.00     0.048 A 
HETATM   25  C14 UNL     1      27.294   0.952  53.167  1.00  0.00     0.042 A 
HETATM   26 CL2  UNL     1      27.593   2.667  53.436  1.00  0.00    -0.084 Cl
ENDBRANCH  18  19
ENDBRANCH  17  18
ENDBRANCH  11  17
TORSDOF 3
ENDMDL
MODEL 4
REMARK VINA RESULT:      -8.0      3.498      6.875
REMARK  3 active torsions:
REMARK  status: ('A' for Active; 'I' for Inactive)
REMARK    1  A    between atoms: N5_11  and  C7_12 
REMARK    2  A    between atoms: C7_12  and  C8_13 
REMARK    3  A    between atoms: C8_13  and  C9_14 
ROOT
HETATM    1  C1  UNL     1      26.493   6.825  48.323  1.00  0.00     0.043 C 
HETATM    2  C2  UNL     1      25.361   5.996  48.810  1.00  0.00    -0.084 C 
HETATM    3  C3  UNL     1      24.268   5.894  48.069  1.00  0.00    -0.008 C 
HETATM    4  C4  UNL     1      23.100   5.112  48.445  1.00  0.00     0.143 C 
HETATM    5  N1  UNL     1      23.317   4.178  49.557  1.00  0.00    -0.200 NA
HETATM    6  N2  UNL     1      21.970   3.887  49.920  1.00  0.00    -0.237 N 
HETATM    7  N3  UNL     1      21.297   2.776  49.397  1.00  0.00    -0.157 NA
HETATM    8  C5  UNL     1      21.625   1.631  49.890  1.00  0.00     0.257 C 
HETATM    9  N4  UNL     1      22.585   2.186  50.781  1.00  0.00    -0.236 NA
HETATM   10  C6  UNL     1      22.179   2.575  51.944  1.00  0.00     0.206 C 
HETATM   11  N5  UNL     1      23.514   2.970  52.246  1.00  0.00    -0.368 N 
HETATM   12  C15 UNL     1      24.119   4.209  51.920  1.00  0.00     0.112 A 
HETATM   13  C16 UNL     1      23.331   5.452  51.651  1.00  0.00     0.057 A 
HETATM   14  C17 UNL     1      24.088   4.751  50.584  1.00  0.00     0.060 A 
HETATM   15  C18 UNL     1      25.397   5.276  50.075  1.00  0.00     0.062 C 
HETATM   16  H7  UNL     1      21.100   4.149  50.477  1.00  0.00     0.204 HD
ENDROOT
BRANCH  11  17
HETATM   17  C7  UNL     1      24.214   1.925  52.969  1.00  0.00     0.129 C 
BRANCH  17  18
HETATM   18  C8  UNL     1      25.622   2.295  53.370  1.00  0.00     0.060 C 
BRANCH  18  19
HETATM   19  C9  UNL     1      26.393   1.003  53.278  1.00  0.00    -0.035 A 
HETATM   20  C10 UNL     1      25.836  -0.233  53.038  1.00  0.00     0.010 A 
HETATM   21  C11 UNL     1      26.599  -1.379  52.957  1.00  0.00     0.024 A 
HETATM   22  C12 UNL     1      27.988  -1.323  53.119  1.00  0.00     0.035 A 
HETATM   23 CL1  UNL     1      28.907  -2.790  53.009  1.00  0.00    -0.084 Cl
HETATM   24  C13 UNL     1      28.570  -0.097  53.361  1.00  0.00     0.048 A 
HETATM   25  C14 UNL     1      27.784   1.030  53.436  1.00  0.00     0.042 A 
HETATM   26 CL2  UNL     1      28.618   2.550  53.750  1.00  0.00    -0.084 Cl
ENDBRANCH  18  19
ENDBRANCH  17  18
ENDBRANCH  11  17
TORSDOF 3
ENDMDL
MODEL 5
REMARK VINA RESULT:      -8.0      4.003      7.730
REMARK  3 active torsions:
REMARK  status: ('A' for Active; 'I' for Inactive)
REMARK    1  A    between atoms: N5_11  and  C7_12 
REMARK    2  A    between atoms: C7_12  and  C8_13 
REMARK    3  A    between atoms: C8_13  and  C9_14 
ROOT
HETATM    1  C1  UNL     1      27.059  -1.100  53.027  1.00  0.00     0.043 C 
HETATM    2  C2  UNL     1      26.481   0.165  52.505  1.00  0.00    -0.084 C 
HETATM    3  C3  UNL     1      27.288   1.082  51.994  1.00  0.00    -0.008 C 
HETATM    4  C4  UNL     1      26.834   2.356  51.455  1.00  0.00     0.143 C 
HETATM    5  N1  UNL     1      25.387   2.444  51.220  1.00  0.00    -0.200 NA
HETATM    6  N2  UNL     1      25.229   3.854  51.090  1.00  0.00    -0.237 N 
HETATM    7  N3  UNL     1      25.256   4.479  49.837  1.00  0.00    -0.157 NA
HETATM    8  C5  UNL     1      24.198   4.343  49.113  1.00  0.00     0.257 C 
HETATM    9  N4  UNL     1      23.522   3.555  50.086  1.00  0.00    -0.236 NA
HETATM   10  C6  UNL     1      22.831   4.168  50.989  1.00  0.00     0.206 C 
HETATM   11  N5  UNL     1      22.486   2.902  51.544  1.00  0.00    -0.368 N 
HETATM   12  C15 UNL     1      23.250   2.156  52.476  1.00  0.00     0.112 A 
HETATM   13  C16 UNL     1      24.269   2.780  53.375  1.00  0.00     0.057 A 
HETATM   14  C17 UNL     1      24.647   1.867  52.268  1.00  0.00     0.060 A 
HETATM   15  C18 UNL     1      25.053   0.446  52.524  1.00  0.00     0.062 C 
HETATM   16  H7  UNL     1      25.083   4.801  51.556  1.00  0.00     0.204 HD
ENDROOT
BRANCH  11  17
HETATM   17  C7  UNL     1      21.205   2.445  51.039  1.00  0.00     0.129 C 
BRANCH  17  18
HETATM   18  C8  UNL     1      21.185   0.985  50.653  1.00  0.00     0.060 C 
BRANCH  18  19
HETATM   19  C9  UNL     1      19.806   0.512  51.036  1.00  0.00    -0.035 A 
HETATM   20  C10 UNL     1      18.676   0.663  50.264  1.00  0.00     0.010 A 
HETATM   21  C11 UNL     1      17.442   0.200  50.669  1.00  0.00     0.024 A 
HETATM   22  C12 UNL     1      17.295  -0.450  51.900  1.00  0.00     0.035 A 
HETATM   23 CL1  UNL     1      15.723  -1.016  52.368  1.00  0.00    -0.084 Cl
HETATM   24  C13 UNL     1      18.411  -0.614  52.693  1.00  0.00     0.048 A 
HETATM   25  C14 UNL     1      19.630  -0.142  52.262  1.00  0.00     0.042 A 
HETATM   26 CL2  UNL     1      20.997  -0.397  53.344  1.00  0.00    -0.084 Cl
ENDBRANCH  18  19
ENDBRANCH  17  18
ENDBRANCH  11  17
TORSDOF 3
ENDMDL
MODEL 6
REMARK VINA RESULT:      -8.0      1.767      3.520
REMARK  3 active torsions:
REMARK  status: ('A' for Active; 'I' for Inactive)
REMARK    1  A    between atoms: N5_11  and  C7_12 
REMARK    2  A    between atoms: C7_12  and  C8_13 
REMARK    3  A    between atoms: C8_13  and  C9_14 
ROOT
HETATM    1  C1  UNL     1      28.650   0.497  55.016  1.00  0.00     0.043 C 
HETATM    2  C2  UNL     1      27.437   0.764  54.204  1.00  0.00    -0.084 C 
HETATM    3  C3  UNL     1      26.343   0.048  54.418  1.00  0.00    -0.008 C 
HETATM    4  C4  UNL     1      25.099   0.222  53.684  1.00  0.00     0.143 C 
HETATM    5  N1  UNL     1      25.018   1.457  52.894  1.00  0.00    -0.200 NA
HETATM    6  N2  UNL     1      23.925   1.146  52.035  1.00  0.00    -0.237 N 
HETATM    7  N3  UNL     1      22.614   1.518  52.358  1.00  0.00    -0.157 NA
HETATM    8  C5  UNL     1      22.322   2.763  52.197  1.00  0.00     0.257 C 
HETATM    9  N4  UNL     1      23.623   3.103  51.734  1.00  0.00    -0.236 NA
HETATM   10  C6  UNL     1      23.866   2.992  50.470  1.00  0.00     0.206 C 
HETATM   11  N5  UNL     1      25.195   3.444  50.714  1.00  0.00    -0.368 N 
HETATM   12  C15 UNL     1      26.296   2.644  51.109  1.00  0.00     0.112 A 
HETATM   13  C16 UNL     1      26.358   1.169  50.863  1.00  0.00     0.057 A 
HETATM   14  C17 UNL     1      26.225   1.736  52.227  1.00  0.00     0.060 A 
HETATM   15  C18 UNL     1      27.387   1.792  53.173  1.00  0.00     0.062 C 
HETATM   16  H7  UNL     1      23.573   0.697  51.134  1.00  0.00     0.204 HD
ENDROOT
BRANCH  11  17
HETATM   17  C7  UNL     1      25.307   4.873  50.492  1.00  0.00     0.129 C 
BRANCH  17  18
HETATM   18  C8  UNL     1      25.100   5.288  49.055  1.00  0.00     0.060 C 
BRANCH  18  19
HETATM   19  C9  UNL     1      26.461   5.743  48.594  1.00  0.00    -0.035 A 
HETATM   20  C10 UNL     1      27.606   4.977  48.635  1.00  0.00     0.010 A 
HETATM   21  C11 UNL     1      28.822   5.450  48.190  1.00  0.00     0.024 A 
HETATM   22  C12 UNL     1      28.936   6.745  47.672  1.00  0.00     0.035 A 
HETATM   23 CL1  UNL     1      30.486   7.298  47.122  1.00  0.00    -0.084 Cl
HETATM   24  C13 UNL     1      27.805   7.532  47.619  1.00  0.00     0.048 A 
HETATM   25  C14 UNL     1      26.604   7.034  48.071  1.00  0.00     0.042 A 
HETATM   26 CL2  UNL     1      25.216   8.114  47.965  1.00  0.00    -0.084 Cl
ENDBRANCH  18  19
ENDBRANCH  17  18
ENDBRANCH  11  17
TORSDOF 3
ENDMDL
MODEL 7
REMARK VINA RESULT:      -7.8      1.808      2.756
REMARK  3 active torsions:
REMARK  status: ('A' for Active; 'I' for Inactive)
REMARK    1  A    between atoms: N5_11  and  C7_12 
REMARK    2  A    between atoms: C7_12  and  C8_13 
REMARK    3  A    between atoms: C8_13  and  C9_14 
ROOT
HETATM    1  C1  UNL     1      17.679   0.758  49.942  1.00  0.00     0.043 C 
HETATM    2  C2  UNL     1      18.847   0.732  50.859  1.00  0.00    -0.084 C 
HETATM    3  C3  UNL     1      18.819  -0.061  51.920  1.00  0.00    -0.008 C 
HETATM    4  C4  UNL     1      19.904  -0.168  52.884  1.00  0.00     0.143 C 
HETATM    5  N1  UNL     1      21.175   0.424  52.449  1.00  0.00    -0.200 NA
HETATM    6  N2  UNL     1      21.863   0.510  53.694  1.00  0.00    -0.237 N 
HETATM    7  N3  UNL     1      22.727  -0.505  54.122  1.00  0.00    -0.157 NA
HETATM    8  C5  UNL     1      23.878  -0.551  53.546  1.00  0.00     0.257 C 
HETATM    9  N4  UNL     1      23.607   0.568  52.710  1.00  0.00    -0.236 NA
HETATM   10  C6  UNL     1      23.877   1.746  53.167  1.00  0.00     0.206 C 
HETATM   11  N5  UNL     1      23.402   2.298  51.942  1.00  0.00    -0.368 N 
HETATM   12  C15 UNL     1      22.057   2.608  51.625  1.00  0.00     0.112 A 
HETATM   13  C16 UNL     1      21.014   2.859  52.667  1.00  0.00     0.057 A 
HETATM   14  C17 UNL     1      20.987   1.657  51.798  1.00  0.00     0.060 A 
HETATM   15  C18 UNL     1      20.038   1.541  50.643  1.00  0.00     0.062 C 
HETATM   16  H7  UNL     1      22.062   1.054  54.589  1.00  0.00     0.204 HD
ENDROOT
BRANCH  11  17
HETATM   17  C7  UNL     1      24.497   2.531  51.019  1.00  0.00     0.129 C 
BRANCH  17  18
HETATM   18  C8  UNL     1      24.067   3.120  49.695  1.00  0.00     0.060 C 
BRANCH  18  19
HETATM   19  C9  UNL     1      25.190   4.050  49.314  1.00  0.00    -0.035 A 
HETATM   20  C10 UNL     1      26.522   3.702  49.266  1.00  0.00     0.010 A 
HETATM   21  C11 UNL     1      27.502   4.600  48.900  1.00  0.00     0.024 A 
HETATM   22  C12 UNL     1      27.171   5.917  48.560  1.00  0.00     0.035 A 
HETATM   23 CL1  UNL     1      28.439   7.012  48.106  1.00  0.00    -0.084 Cl
HETATM   24  C13 UNL     1      25.845   6.291  48.601  1.00  0.00     0.048 A 
HETATM   25  C14 UNL     1      24.887   5.373  48.969  1.00  0.00     0.042 A 
HETATM   26 CL2  UNL     1      23.221   5.944  48.993  1.00  0.00    -0.084 Cl
ENDBRANCH  18  19
ENDBRANCH  17  18
ENDBRANCH  11  17
TORSDOF 3
ENDMDL
MODEL 8
REMARK VINA RESULT:      -7.8      6.418      9.204
REMARK  3 active torsions:
REMARK  status: ('A' for Active; 'I' for Inactive)
REMARK    1  A    between atoms: N5_11  and  C7_12 
REMARK    2  A    between atoms: C7_12  and  C8_13 
REMARK    3  A    between atoms: C8_13  and  C9_14 
ROOT
HETATM    1  C1  UNL     1      32.816   1.984  47.064  1.00  0.00     0.043 C 
HETATM    2  C2  UNL     1      32.967   3.417  47.421  1.00  0.00    -0.084 C 
HETATM    3  C3  UNL     1      34.182   3.922  47.572  1.00  0.00    -0.008 C 
HETATM    4  C4  UNL     1      34.450   5.310  47.920  1.00  0.00     0.143 C 
HETATM    5  N1  UNL     1      33.297   6.209  47.790  1.00  0.00    -0.200 NA
HETATM    6  N2  UNL     1      33.753   7.329  48.545  1.00  0.00    -0.237 N 
HETATM    7  N3  UNL     1      34.397   8.410  47.931  1.00  0.00    -0.157 NA
HETATM    8  C5  UNL     1      33.641   9.223  47.276  1.00  0.00     0.257 C 
HETATM    9  N4  UNL     1      32.453   8.499  47.568  1.00  0.00    -0.236 NA
HETATM   10  C6  UNL     1      31.822   8.784  48.659  1.00  0.00     0.206 C 
HETATM   11  N5  UNL     1      30.858   7.788  48.329  1.00  0.00    -0.368 N 
HETATM   12  C15 UNL     1      30.949   6.403  48.613  1.00  0.00     0.112 A 
HETATM   13  C16 UNL     1      31.811   5.853  49.706  1.00  0.00     0.057 A 
HETATM   14  C17 UNL     1      32.112   5.623  48.271  1.00  0.00     0.060 A 
HETATM   15  C18 UNL     1      31.830   4.307  47.609  1.00  0.00     0.062 C 
HETATM   16  H7  UNL     1      33.858   7.807  49.492  1.00  0.00     0.204 HD
ENDROOT
BRANCH  11  17
HETATM   17  C7  UNL     1      29.716   8.374  47.652  1.00  0.00     0.129 C 
BRANCH  17  18
HETATM   18  C8  UNL     1      28.704   7.361  47.172  1.00  0.00     0.060 C 
BRANCH  18  19
HETATM   19  C9  UNL     1      27.517   7.554  48.081  1.00  0.00    -0.035 A 
HETATM   20  C10 UNL     1      26.883   8.755  48.307  1.00  0.00     0.010 A 
HETATM   21  C11 UNL     1      25.795   8.863  49.147  1.00  0.00     0.024 A 
HETATM   22  C12 UNL     1      25.289   7.738  49.807  1.00  0.00     0.035 A 
HETATM   23 CL1  UNL     1      23.917   7.922  50.854  1.00  0.00    -0.084 Cl
HETATM   24  C13 UNL     1      25.907   6.523  49.598  1.00  0.00     0.048 A 
HETATM   25  C14 UNL     1      26.991   6.444  48.754  1.00  0.00     0.042 A 
HETATM   26 CL2  UNL     1      27.713   4.850  48.550  1.00  0.00    -0.084 Cl
ENDBRANCH  18  19
ENDBRANCH  17  18
ENDBRANCH  11  17
TORSDOF 3
ENDMDL
MODEL 9
REMARK VINA RESULT:      -7.8      2.240      4.024
REMARK  3 active torsions:
REMARK  status: ('A' for Active; 'I' for Inactive)
REMARK    1  A    between atoms: N5_11  and  C7_12 
REMARK    2  A    between atoms: C7_12  and  C8_13 
REMARK    3  A    between atoms: C8_13  and  C9_14 
ROOT
HETATM    1  C1  UNL     1      27.357   0.261  54.903  1.00  0.00     0.043 C 
HETATM    2  C2  UNL     1      26.062   0.447  54.201  1.00  0.00    -0.084 C 
HETATM    3  C3  UNL     1      25.246  -0.587  54.065  1.00  0.00    -0.008 C 
HETATM    4  C4  UNL     1      23.954  -0.523  53.397  1.00  0.00     0.143 C 
HETATM    5  N1  UNL     1      23.457   0.836  53.149  1.00  0.00    -0.200 NA
HETATM    6  N2  UNL     1      22.443   0.572  52.184  1.00  0.00    -0.237 N 
HETATM    7  N3  UNL     1      21.108   0.381  52.562  1.00  0.00    -0.157 NA
HETATM    8  C5  UNL     1      20.453   1.442  52.886  1.00  0.00     0.257 C 
HETATM    9  N4  UNL     1      21.560   2.306  52.657  1.00  0.00    -0.236 NA
HETATM   10  C6  UNL     1      21.730   2.770  51.464  1.00  0.00     0.206 C 
HETATM   11  N5  UNL     1      22.884   3.466  51.930  1.00  0.00    -0.368 N 
HETATM   12  C15 UNL     1      24.196   2.943  52.034  1.00  0.00     0.112 A 
HETATM   13  C16 UNL     1      24.669   1.771  51.235  1.00  0.00     0.057 A 
HETATM   14  C17 UNL     1      24.477   1.698  52.704  1.00  0.00     0.060 A 
HETATM   15  C18 UNL     1      25.638   1.727  53.652  1.00  0.00     0.062 C 
HETATM   16  H7  UNL     1      22.173   0.423  51.164  1.00  0.00     0.204 HD
ENDROOT
BRANCH  11  17
HETATM   17  C7  UNL     1      22.555   4.833  52.290  1.00  0.00     0.129 C 
BRANCH  17  18
HETATM   18  C8  UNL     1      22.187   5.704  51.112  1.00  0.00     0.060 C 
BRANCH  18  19
HETATM   19  C9  UNL     1      23.511   6.111  50.516  1.00  0.00    -0.035 A 
HETATM   20  C10 UNL     1      24.374   7.033  51.065  1.00  0.00     0.010 A 
HETATM   21  C11 UNL     1      25.576   7.357  50.473  1.00  0.00     0.024 A 
HETATM   22  C12 UNL     1      25.966   6.748  49.275  1.00  0.00     0.035 A 
HETATM   23 CL1  UNL     1      27.489   7.186  48.567  1.00  0.00    -0.084 Cl
HETATM   24  C13 UNL     1      25.120   5.822  48.704  1.00  0.00     0.048 A 
HETATM   25  C14 UNL     1      23.926   5.519  49.317  1.00  0.00     0.042 A 
HETATM   26 CL2  UNL     1      22.911   4.324  48.512  1.00  0.00    -0.084 Cl
ENDBRANCH  18  19
ENDBRANCH  17  18
ENDBRANCH  11  17
TORSDOF 3
ENDMDL
