MODEL 1
REMARK VINA RESULT:      -8.9      0.000      0.000
REMARK  7 active torsions:
REMARK  status: ('A' for Active; 'I' for Inactive)
REMARK    1  A    between atoms: N1_2  and  C3_4 
REMARK    2  A    between atoms: C3_4  and  C4_5 
REMARK    3  A    between atoms: C5_6  and  C6_7 
REMARK       I    between atoms: C6_7  and  N2_9 
REMARK    4  A    between atoms: N2_9  and  C7_10 
REMARK    5  A    between atoms: C13_18  and  C14_19 
REMARK    6  A    between atoms: C14_19  and  N5_20 
REMARK    7  A    between atoms: N5_20  and  C15_21 
ROOT
HETATM    1  C7  UNL     1      21.337   0.895  51.685  1.00  0.00     0.065 A 
HETATM    2  C8  UNL     1      21.710   0.181  52.715  1.00  0.00     0.029 A 
HETATM    3  C9  UNL     1      20.626  -0.487  53.231  1.00  0.00     0.067 A 
HETATM    4  N3  UNL     1      20.754  -1.284  54.285  1.00  0.00    -0.261 NA
HETATM    5  C10 UNL     1      21.888  -1.529  54.948  1.00  0.00     0.140 A 
HETATM    6  C11 UNL     1      22.936  -0.846  54.401  1.00  0.00     0.071 A 
HETATM    7  C12 UNL     1      24.220  -1.036  55.039  1.00  0.00     0.101 C 
HETATM    8  N4  UNL     1      25.258  -1.182  55.535  1.00  0.00    -0.191 NA
HETATM    9  C13 UNL     1      22.939   0.019  53.300  1.00  0.00     0.004 A 
HETATM   10  C21 UNL     1      19.207  -0.518  52.833  1.00  0.00     0.208 A 
HETATM   11  N6  UNL     1      18.996   0.329  51.683  1.00  0.00    -0.293 NA
HETATM   12  C22 UNL     1      19.992   0.959  51.186  1.00  0.00     0.141 A 
ENDROOT
BRANCH   9  13
HETATM   13  C14 UNL     1      23.918   0.678  52.769  1.00  0.00     0.145 C 
BRANCH  13  14
HETATM   14  N5  UNL     1      25.158   1.121  52.261  1.00  0.00    -0.379 N 
HETATM   15  H14 UNL     1      25.268   1.932  51.552  1.00  0.00     0.160 HD
BRANCH  14  16
HETATM   16  C15 UNL     1      26.416   0.541  52.689  1.00  0.00     0.030 A 
HETATM   17  C16 UNL     1      26.786  -0.750  52.449  1.00  0.00     0.032 A 
HETATM   18  C17 UNL     1      28.011  -1.215  52.895  1.00  0.00     0.046 A 
HETATM   19  C18 UNL     1      28.859  -0.358  53.588  1.00  0.00     0.138 A 
HETATM   20  F1  UNL     1      30.048  -0.864  54.001  1.00  0.00    -0.204 F 
HETATM   21  C19 UNL     1      28.503   0.953  53.841  1.00  0.00     0.074 A 
HETATM   22 CL1  UNL     1      29.597   2.000  54.714  1.00  0.00    -0.081 Cl
HETATM   23  C20 UNL     1      27.277   1.380  53.382  1.00  0.00     0.056 A 
ENDBRANCH  14  16
ENDBRANCH  13  14
ENDBRANCH   9  13
BRANCH   1  24
HETATM   24  N2  UNL     1      22.350   1.619  51.075  1.00  0.00    -0.322 N 
HETATM   25  C6  UNL     1      22.331   3.032  51.049  1.00  0.00     0.245 C 
HETATM   26  O1  UNL     1      21.492   3.816  51.518  1.00  0.00    -0.268 OA
HETATM   27  H11 UNL     1      23.230   1.715  50.561  1.00  0.00     0.169 HD
BRANCH  25  28
HETATM   28  C5  UNL     1      23.113   4.152  50.563  1.00  0.00     0.072 C 
HETATM   29  C4  UNL     1      24.127   3.795  49.823  1.00  0.00     0.008 C 
BRANCH  29  30
HETATM   30  C3  UNL     1      25.013   4.817  49.257  1.00  0.00     0.299 C 
BRANCH  30  31
HETATM   31  N1  UNL     1      26.413   4.575  49.639  1.00  0.00     0.083 N 
HETATM   32  C1  UNL     1      27.323   5.096  48.622  1.00  0.00     0.309 C 
HETATM   33  C2  UNL     1      26.575   3.122  49.706  1.00  0.00     0.309 C 
ENDBRANCH  30  31
ENDBRANCH  29  30
ENDBRANCH  25  28
ENDBRANCH   1  24
TORSDOF 7
ENDMDL
MODEL 2
REMARK VINA RESULT:      -8.3      2.850      5.166
REMARK  7 active torsions:
REMARK  status: ('A' for Active; 'I' for Inactive)
REMARK    1  A    between atoms: N1_2  and  C3_4 
REMARK    2  A    between atoms: C3_4  and  C4_5 
REMARK    3  A    between atoms: C5_6  and  C6_7 
REMARK       I    between atoms: C6_7  and  N2_9 
REMARK    4  A    between atoms: N2_9  and  C7_10 
REMARK    5  A    between atoms: C13_18  and  C14_19 
REMARK    6  A    between atoms: C14_19  and  N5_20 
REMARK    7  A    between atoms: N5_20  and  C15_21 
ROOT
HETATM    1  C7  UNL     1      22.637  -0.401  53.409  1.00  0.00     0.065 A 
HETATM    2  C8  UNL     1      23.889  -0.085  53.614  1.00  0.00     0.029 A 
HETATM    3  C9  UNL     1      24.347  -0.715  54.745  1.00  0.00     0.067 A 
HETATM    4  N3  UNL     1      25.598  -0.551  55.158  1.00  0.00    -0.261 NA
HETATM    5  C10 UNL     1      26.526   0.205  54.565  1.00  0.00     0.140 A 
HETATM    6  C11 UNL     1      26.028   0.810  53.447  1.00  0.00     0.071 A 
HETATM    7  C12 UNL     1      26.948   1.657  52.721  1.00  0.00     0.101 C 
HETATM    8  N4  UNL     1      27.674   2.335  52.122  1.00  0.00    -0.191 NA
HETATM    9  C13 UNL     1      24.740   0.724  52.905  1.00  0.00     0.004 A 
HETATM   10  C21 UNL     1      23.690  -1.627  55.699  1.00  0.00     0.208 A 
HETATM   11  N6  UNL     1      22.319  -1.852  55.306  1.00  0.00    -0.293 NA
HETATM   12  C22 UNL     1      21.873  -1.276  54.255  1.00  0.00     0.141 A 
ENDROOT
BRANCH   9  13
HETATM   13  C14 UNL     1      24.247   1.291  51.852  1.00  0.00     0.145 C 
BRANCH  13  14
HETATM   14  N5  UNL     1      24.008   2.056  50.689  1.00  0.00    -0.379 N 
HETATM   15  H14 UNL     1      23.511   1.677  49.805  1.00  0.00     0.160 HD
BRANCH  14  16
HETATM   16  C15 UNL     1      24.378   3.455  50.600  1.00  0.00     0.030 A 
HETATM   17  C16 UNL     1      23.752   4.458  51.282  1.00  0.00     0.032 A 
HETATM   18  C17 UNL     1      24.177   5.767  51.135  1.00  0.00     0.046 A 
HETATM   19  C18 UNL     1      25.244   6.051  50.289  1.00  0.00     0.138 A 
HETATM   20  F1  UNL     1      25.620   7.350  50.183  1.00  0.00    -0.204 F 
HETATM   21  C19 UNL     1      25.890   5.050  49.590  1.00  0.00     0.074 A 
HETATM   22 CL1  UNL     1      27.227   5.447  48.536  1.00  0.00    -0.081 Cl
HETATM   23  C20 UNL     1      25.440   3.760  49.761  1.00  0.00     0.056 A 
ENDBRANCH  14  16
ENDBRANCH  13  14
ENDBRANCH   9  13
BRANCH   1  24
HETATM   24  N2  UNL     1      22.060   0.178  52.289  1.00  0.00    -0.322 N 
HETATM   25  C6  UNL     1      20.939   1.031  52.398  1.00  0.00     0.245 C 
HETATM   26  O1  UNL     1      20.318   1.390  53.410  1.00  0.00    -0.268 OA
HETATM   27  H11 UNL     1      21.983   0.358  51.285  1.00  0.00     0.169 HD
BRANCH  25  28
HETATM   28  C5  UNL     1      20.048   1.818  51.567  1.00  0.00     0.072 C 
HETATM   29  C4  UNL     1      20.653   2.414  50.577  1.00  0.00     0.008 C 
BRANCH  29  30
HETATM   30  C3  UNL     1      19.884   3.247  49.647  1.00  0.00     0.299 C 
BRANCH  30  31
HETATM   31  N1  UNL     1      20.564   3.356  48.346  1.00  0.00     0.083 N 
HETATM   32  C1  UNL     1      21.404   2.186  48.105  1.00  0.00     0.309 C 
HETATM   33  C2  UNL     1      21.425   4.536  48.431  1.00  0.00     0.309 C 
ENDBRANCH  30  31
ENDBRANCH  29  30
ENDBRANCH  25  28
ENDBRANCH   1  24
TORSDOF 7
ENDMDL
MODEL 3
REMARK VINA RESULT:      -8.3      3.568      5.945
REMARK  7 active torsions:
REMARK  status: ('A' for Active; 'I' for Inactive)
REMARK    1  A    between atoms: N1_2  and  C3_4 
REMARK    2  A    between atoms: C3_4  and  C4_5 
REMARK    3  A    between atoms: C5_6  and  C6_7 
REMARK       I    between atoms: C6_7  and  N2_9 
REMARK    4  A    between atoms: N2_9  and  C7_10 
REMARK    5  A    between atoms: C13_18  and  C14_19 
REMARK    6  A    between atoms: C14_19  and  N5_20 
REMARK    7  A    between atoms: N5_20  and  C15_21 
ROOT
HETATM    1  C7  UNL     1      26.145   2.100  52.956  1.00  0.00     0.065 A 
HETATM    2  C8  UNL     1      25.338   1.167  53.391  1.00  0.00     0.029 A 
HETATM    3  C9  UNL     1      26.018   0.324  54.237  1.00  0.00     0.067 A 
HETATM    4  N3  UNL     1      25.406  -0.705  54.811  1.00  0.00    -0.261 NA
HETATM    5  C10 UNL     1      24.123  -1.042  54.652  1.00  0.00     0.140 A 
HETATM    6  C11 UNL     1      23.489  -0.179  53.805  1.00  0.00     0.071 A 
HETATM    7  C12 UNL     1      22.090  -0.447  53.558  1.00  0.00     0.101 C 
HETATM    8  N4  UNL     1      20.965  -0.643  53.353  1.00  0.00    -0.191 NA
HETATM    9  C13 UNL     1      24.010   0.937  53.138  1.00  0.00     0.004 A 
HETATM   10  C21 UNL     1      27.418   0.309  54.696  1.00  0.00     0.208 A 
HETATM   11  N6  UNL     1      28.145   1.410  54.110  1.00  0.00    -0.293 NA
HETATM   12  C22 UNL     1      27.530   2.207  53.320  1.00  0.00     0.141 A 
ENDROOT
BRANCH   9  13
HETATM   13  C14 UNL     1      23.429   1.763  52.331  1.00  0.00     0.145 C 
BRANCH  13  14
HETATM   14  N5  UNL     1      22.604   2.730  51.715  1.00  0.00    -0.379 N 
HETATM   15  H14 UNL     1      22.092   3.520  52.251  1.00  0.00     0.160 HD
BRANCH  14  16
HETATM   16  C15 UNL     1      22.406   2.770  50.280  1.00  0.00     0.030 A 
HETATM   17  C16 UNL     1      22.344   1.663  49.484  1.00  0.00     0.032 A 
HETATM   18  C17 UNL     1      22.149   1.801  48.120  1.00  0.00     0.046 A 
HETATM   19  C18 UNL     1      22.017   3.071  47.571  1.00  0.00     0.138 A 
HETATM   20  F1  UNL     1      21.826   3.147  46.229  1.00  0.00    -0.204 F 
HETATM   21  C19 UNL     1      22.077   4.203  48.359  1.00  0.00     0.074 A 
HETATM   22 CL1  UNL     1      21.906   5.783  47.631  1.00  0.00    -0.081 Cl
HETATM   23  C20 UNL     1      22.272   4.028  49.711  1.00  0.00     0.056 A 
ENDBRANCH  14  16
ENDBRANCH  13  14
ENDBRANCH   9  13
BRANCH   1  24
HETATM   24  N2  UNL     1      25.570   3.016  52.089  1.00  0.00    -0.322 N 
HETATM   25  C6  UNL     1      26.036   3.165  50.763  1.00  0.00     0.245 C 
HETATM   26  O1  UNL     1      26.954   2.568  50.180  1.00  0.00    -0.268 OA
HETATM   27  H11 UNL     1      24.901   3.748  51.837  1.00  0.00     0.169 HD
BRANCH  25  28
HETATM   28  C5  UNL     1      25.772   3.939  49.566  1.00  0.00     0.072 C 
HETATM   29  C4  UNL     1      25.699   5.223  49.783  1.00  0.00     0.008 C 
BRANCH  29  30
HETATM   30  C3  UNL     1      25.437   6.138  48.668  1.00  0.00     0.299 C 
BRANCH  30  31
HETATM   31  N1  UNL     1      26.382   7.266  48.675  1.00  0.00     0.083 N 
HETATM   32  C1  UNL     1      27.748   6.796  48.460  1.00  0.00     0.309 C 
HETATM   33  C2  UNL     1      26.301   7.861  50.010  1.00  0.00     0.309 C 
ENDBRANCH  30  31
ENDBRANCH  29  30
ENDBRANCH  25  28
ENDBRANCH   1  24
TORSDOF 7
ENDMDL
MODEL 4
REMARK VINA RESULT:      -8.2      3.030      5.829
REMARK  7 active torsions:
REMARK  status: ('A' for Active; 'I' for Inactive)
REMARK    1  A    between atoms: N1_2  and  C3_4 
REMARK    2  A    between atoms: C3_4  and  C4_5 
REMARK    3  A    between atoms: C5_6  and  C6_7 
REMARK       I    between atoms: C6_7  and  N2_9 
REMARK    4  A    between atoms: N2_9  and  C7_10 
REMARK    5  A    between atoms: C13_18  and  C14_19 
REMARK    6  A    between atoms: C14_19  and  N5_20 
REMARK    7  A    between atoms: N5_20  and  C15_21 
ROOT
HETATM    1  C7  UNL     1      22.307   0.799  52.943  1.00  0.00     0.065 A 
HETATM    2  C8  UNL     1      21.769   1.010  51.770  1.00  0.00     0.029 A 
HETATM    3  C9  UNL     1      20.454   0.613  51.785  1.00  0.00     0.067 A 
HETATM    4  N3  UNL     1      19.693   0.732  50.703  1.00  0.00    -0.261 NA
HETATM    5  C10 UNL     1      20.080   1.225  49.523  1.00  0.00     0.140 A 
HETATM    6  C11 UNL     1      21.391   1.607  49.555  1.00  0.00     0.071 A 
HETATM    7  C12 UNL     1      21.921   2.158  48.328  1.00  0.00     0.101 C 
HETATM    8  N4  UNL     1      22.362   2.609  47.354  1.00  0.00    -0.191 NA
HETATM    9  C13 UNL     1      22.299   1.537  50.620  1.00  0.00     0.004 A 
HETATM   10  C21 UNL     1      19.615   0.023  52.844  1.00  0.00     0.208 A 
HETATM   11  N6  UNL     1      20.383  -0.132  54.056  1.00  0.00    -0.293 NA
HETATM   12  C22 UNL     1      21.609   0.233  54.064  1.00  0.00     0.141 A 
ENDROOT
BRANCH   9  13
HETATM   13  C14 UNL     1      23.542   1.889  50.670  1.00  0.00     0.145 C 
BRANCH  13  14
HETATM   14  N5  UNL     1      24.772   2.567  50.813  1.00  0.00    -0.379 N 
HETATM   15  H14 UNL     1      25.569   2.245  51.472  1.00  0.00     0.160 HD
BRANCH  14  16
HETATM   16  C15 UNL     1      25.091   3.752  50.042  1.00  0.00     0.030 A 
HETATM   17  C16 UNL     1      24.186   4.717  49.709  1.00  0.00     0.032 A 
HETATM   18  C17 UNL     1      24.585   5.817  48.970  1.00  0.00     0.046 A 
HETATM   19  C18 UNL     1      25.912   5.931  48.571  1.00  0.00     0.138 A 
HETATM   20  F1  UNL     1      26.249   7.030  47.850  1.00  0.00    -0.204 F 
HETATM   21  C19 UNL     1      26.844   4.965  48.897  1.00  0.00     0.074 A 
HETATM   22 CL1  UNL     1      28.503   5.143  48.377  1.00  0.00    -0.081 Cl
HETATM   23  C20 UNL     1      26.411   3.885  49.633  1.00  0.00     0.056 A 
ENDBRANCH  14  16
ENDBRANCH  13  14
ENDBRANCH   9  13
BRANCH   1  24
HETATM   24  N2  UNL     1      23.639   1.163  53.053  1.00  0.00    -0.322 N 
HETATM   25  C6  UNL     1      24.655   0.193  53.219  1.00  0.00     0.245 C 
HETATM   26  O1  UNL     1      24.560  -1.041  53.292  1.00  0.00    -0.268 OA
HETATM   27  H11 UNL     1      24.408   1.837  53.084  1.00  0.00     0.169 HD
BRANCH  25  28
HETATM   28  C5  UNL     1      26.094   0.096  53.370  1.00  0.00     0.072 C 
HETATM   29  C4  UNL     1      26.498   0.250  54.601  1.00  0.00     0.008 C 
BRANCH  29  30
HETATM   30  C3  UNL     1      27.928   0.176  54.914  1.00  0.00     0.299 C 
BRANCH  30  31
HETATM   31  N1  UNL     1      28.743   0.639  53.778  1.00  0.00     0.083 N 
HETATM   32  C1  UNL     1      29.901  -0.231  53.586  1.00  0.00     0.309 C 
HETATM   33  C2  UNL     1      29.221   1.976  54.134  1.00  0.00     0.309 C 
ENDBRANCH  30  31
ENDBRANCH  29  30
ENDBRANCH  25  28
ENDBRANCH   1  24
TORSDOF 7
ENDMDL
MODEL 5
REMARK VINA RESULT:      -7.7      3.197      6.472
REMARK  7 active torsions:
REMARK  status: ('A' for Active; 'I' for Inactive)
REMARK    1  A    between atoms: N1_2  and  C3_4 
REMARK    2  A    between atoms: C3_4  and  C4_5 
REMARK    3  A    between atoms: C5_6  and  C6_7 
REMARK       I    between atoms: C6_7  and  N2_9 
REMARK    4  A    between atoms: N2_9  and  C7_10 
REMARK    5  A    between atoms: C13_18  and  C14_19 
REMARK    6  A    between atoms: C14_19  and  N5_20 
REMARK    7  A    between atoms: N5_20  and  C15_21 
ROOT
HETATM    1  C7  UNL     1      22.741  -0.368  53.449  1.00  0.00     0.065 A 
HETATM    2  C8  UNL     1      23.995  -0.073  53.676  1.00  0.00     0.029 A 
HETATM    3  C9  UNL     1      24.432  -0.740  54.795  1.00  0.00     0.067 A 
HETATM    4  N3  UNL     1      25.680  -0.603  55.226  1.00  0.00    -0.261 NA
HETATM    5  C10 UNL     1      26.624   0.157  54.665  1.00  0.00     0.140 A 
HETATM    6  C11 UNL     1      26.146   0.799  53.558  1.00  0.00     0.071 A 
HETATM    7  C12 UNL     1      27.085   1.653  52.866  1.00  0.00     0.101 C 
HETATM    8  N4  UNL     1      27.826   2.338  52.294  1.00  0.00    -0.191 NA
HETATM    9  C13 UNL     1      24.864   0.744  52.999  1.00  0.00     0.004 A 
HETATM   10  C21 UNL     1      23.752  -1.669  55.716  1.00  0.00     0.208 A 
HETATM   11  N6  UNL     1      22.384  -1.866  55.302  1.00  0.00    -0.293 NA
HETATM   12  C22 UNL     1      21.957  -1.256  54.262  1.00  0.00     0.141 A 
ENDROOT
BRANCH   9  13
HETATM   13  C14 UNL     1      24.390   1.345  51.956  1.00  0.00     0.145 C 
BRANCH  13  14
HETATM   14  N5  UNL     1      24.178   2.136  50.806  1.00  0.00    -0.379 N 
HETATM   15  H14 UNL     1      24.330   1.784  49.793  1.00  0.00     0.160 HD
BRANCH  14  16
HETATM   16  C15 UNL     1      23.687   3.497  50.887  1.00  0.00     0.030 A 
HETATM   17  C16 UNL     1      22.389   3.829  51.146  1.00  0.00     0.032 A 
HETATM   18  C17 UNL     1      22.014   5.160  51.208  1.00  0.00     0.046 A 
HETATM   19  C18 UNL     1      22.966   6.152  51.004  1.00  0.00     0.138 A 
HETATM   20  F1  UNL     1      22.544   7.440  51.076  1.00  0.00    -0.204 F 
HETATM   21  C19 UNL     1      24.285   5.837  50.740  1.00  0.00     0.074 A 
HETATM   22 CL1  UNL     1      25.453   7.112  50.488  1.00  0.00    -0.081 Cl
HETATM   23  C20 UNL     1      24.622   4.503  50.686  1.00  0.00     0.056 A 
ENDBRANCH  14  16
ENDBRANCH  13  14
ENDBRANCH   9  13
BRANCH   1  24
HETATM   24  N2  UNL     1      22.185   0.248  52.339  1.00  0.00    -0.322 N 
HETATM   25  C6  UNL     1      20.791   0.217  52.102  1.00  0.00     0.245 C 
HETATM   26  O1  UNL     1      19.891  -0.312  52.772  1.00  0.00    -0.268 OA
HETATM   27  H11 UNL     1      22.225   0.791  51.473  1.00  0.00     0.169 HD
BRANCH  25  28
HETATM   28  C5  UNL     1      19.810   0.685  51.143  1.00  0.00     0.072 C 
HETATM   29  C4  UNL     1      18.640   0.124  51.283  1.00  0.00     0.008 C 
BRANCH  29  30
HETATM   30  C3  UNL     1      17.541   0.495  50.386  1.00  0.00     0.299 C 
BRANCH  30  31
HETATM   31  N1  UNL     1      16.359   0.929  51.147  1.00  0.00     0.083 N 
HETATM   32  C1  UNL     1      15.144   0.762  50.353  1.00  0.00     0.309 C 
HETATM   33  C2  UNL     1      16.545   2.356  51.415  1.00  0.00     0.309 C 
ENDBRANCH  30  31
ENDBRANCH  29  30
ENDBRANCH  25  28
ENDBRANCH   1  24
TORSDOF 7
ENDMDL
MODEL 6
REMARK VINA RESULT:      -7.7      4.023      6.778
REMARK  7 active torsions:
REMARK  status: ('A' for Active; 'I' for Inactive)
REMARK    1  A    between atoms: N1_2  and  C3_4 
REMARK    2  A    between atoms: C3_4  and  C4_5 
REMARK    3  A    between atoms: C5_6  and  C6_7 
REMARK       I    between atoms: C6_7  and  N2_9 
REMARK    4  A    between atoms: N2_9  and  C7_10 
REMARK    5  A    between atoms: C13_18  and  C14_19 
REMARK    6  A    between atoms: C14_19  and  N5_20 
REMARK    7  A    between atoms: N5_20  and  C15_21 
ROOT
HETATM    1  C7  UNL     1      24.554   2.252  51.656  1.00  0.00     0.065 A 
HETATM    2  C8  UNL     1      24.540   1.262  52.510  1.00  0.00     0.029 A 
HETATM    3  C9  UNL     1      25.827   0.871  52.787  1.00  0.00     0.067 A 
HETATM    4  N3  UNL     1      26.071  -0.121  53.635  1.00  0.00    -0.261 NA
HETATM    5  C10 UNL     1      25.153  -0.832  54.294  1.00  0.00     0.140 A 
HETATM    6  C11 UNL     1      23.890  -0.409  53.989  1.00  0.00     0.071 A 
HETATM    7  C12 UNL     1      22.811  -1.110  54.648  1.00  0.00     0.101 C 
HETATM    8  N4  UNL     1      21.932  -1.657  55.172  1.00  0.00    -0.191 NA
HETATM    9  C13 UNL     1      23.495   0.615  53.120  1.00  0.00     0.004 A 
HETATM   10  C21 UNL     1      27.131   1.359  52.302  1.00  0.00     0.208 A 
HETATM   11  N6  UNL     1      26.938   2.447  51.372  1.00  0.00    -0.293 NA
HETATM   12  C22 UNL     1      25.747   2.828  51.102  1.00  0.00     0.141 A 
ENDROOT
BRANCH   9  13
HETATM   13  C14 UNL     1      22.308   1.028  52.815  1.00  0.00     0.145 C 
BRANCH  13  14
HETATM   14  N5  UNL     1      21.032   1.631  52.777  1.00  0.00    -0.379 N 
HETATM   15  H14 UNL     1      20.842   2.665  53.035  1.00  0.00     0.160 HD
BRANCH  14  16
HETATM   16  C15 UNL     1      19.854   0.910  52.337  1.00  0.00     0.030 A 
HETATM   17  C16 UNL     1      19.103   1.259  51.252  1.00  0.00     0.032 A 
HETATM   18  C17 UNL     1      17.994   0.507  50.907  1.00  0.00     0.046 A 
HETATM   19  C18 UNL     1      17.651  -0.602  51.673  1.00  0.00     0.138 A 
HETATM   20  F1  UNL     1      16.555  -1.304  51.289  1.00  0.00    -0.204 F 
HETATM   21  C19 UNL     1      18.397  -0.971  52.775  1.00  0.00     0.074 A 
HETATM   22 CL1  UNL     1      17.934  -2.372  53.713  1.00  0.00    -0.081 Cl
HETATM   23  C20 UNL     1      19.494  -0.200  53.088  1.00  0.00     0.056 A 
ENDBRANCH  14  16
ENDBRANCH  13  14
ENDBRANCH   9  13
BRANCH   1  24
HETATM   24  N2  UNL     1      23.305   2.736  51.297  1.00  0.00    -0.322 N 
HETATM   25  C6  UNL     1      22.981   3.006  49.948  1.00  0.00     0.245 C 
HETATM   26  O1  UNL     1      23.679   2.877  48.930  1.00  0.00    -0.268 OA
HETATM   27  H11 UNL     1      22.351   3.050  51.491  1.00  0.00     0.169 HD
BRANCH  25  28
HETATM   28  C5  UNL     1      21.881   3.490  49.137  1.00  0.00     0.072 C 
HETATM   29  C4  UNL     1      21.190   2.535  48.577  1.00  0.00     0.008 C 
BRANCH  29  30
HETATM   30  C3  UNL     1      20.043   2.868  47.726  1.00  0.00     0.299 C 
BRANCH  30  31
HETATM   31  N1  UNL     1      19.427   4.139  48.141  1.00  0.00     0.083 N 
HETATM   32  C1  UNL     1      18.126   3.902  48.762  1.00  0.00     0.309 C 
HETATM   33  C2  UNL     1      19.222   4.914  46.916  1.00  0.00     0.309 C 
ENDBRANCH  30  31
ENDBRANCH  29  30
ENDBRANCH  25  28
ENDBRANCH   1  24
TORSDOF 7
ENDMDL
MODEL 7
REMARK VINA RESULT:      -7.5      3.619      6.804
REMARK  7 active torsions:
REMARK  status: ('A' for Active; 'I' for Inactive)
REMARK    1  A    between atoms: N1_2  and  C3_4 
REMARK    2  A    between atoms: C3_4  and  C4_5 
REMARK    3  A    between atoms: C5_6  and  C6_7 
REMARK       I    between atoms: C6_7  and  N2_9 
REMARK    4  A    between atoms: N2_9  and  C7_10 
REMARK    5  A    between atoms: C13_18  and  C14_19 
REMARK    6  A    between atoms: C14_19  and  N5_20 
REMARK    7  A    between atoms: N5_20  and  C15_21 
ROOT
HETATM    1  C7  UNL     1      21.448   3.630  51.943  1.00  0.00     0.065 A 
HETATM    2  C8  UNL     1      21.066   4.632  51.195  1.00  0.00     0.029 A 
HETATM    3  C9  UNL     1      19.762   4.446  50.804  1.00  0.00     0.067 A 
HETATM    4  N3  UNL     1      19.146   5.338  50.037  1.00  0.00    -0.261 NA
HETATM    5  C10 UNL     1      19.680   6.469  49.567  1.00  0.00     0.140 A 
HETATM    6  C11 UNL     1      20.974   6.612  49.981  1.00  0.00     0.071 A 
HETATM    7  C12 UNL     1      21.655   7.805  49.531  1.00  0.00     0.101 C 
HETATM    8  N4  UNL     1      22.216   8.760  49.185  1.00  0.00    -0.191 NA
HETATM    9  C13 UNL     1      21.737   5.755  50.784  1.00  0.00     0.004 A 
HETATM   10  C21 UNL     1      18.796   3.367  51.077  1.00  0.00     0.208 A 
HETATM   11  N6  UNL     1      19.402   2.359  51.914  1.00  0.00    -0.293 NA
HETATM   12  C22 UNL     1      20.615   2.513  52.290  1.00  0.00     0.141 A 
ENDROOT
BRANCH   9  13
HETATM   13  C14 UNL     1      22.962   5.869  51.183  1.00  0.00     0.145 C 
BRANCH  13  14
HETATM   14  N5  UNL     1      24.287   6.278  51.447  1.00  0.00    -0.379 N 
HETATM   15  H14 UNL     1      24.645   6.583  52.423  1.00  0.00     0.160 HD
BRANCH  14  16
HETATM   16  C15 UNL     1      25.310   6.282  50.420  1.00  0.00     0.030 A 
HETATM   17  C16 UNL     1      25.722   5.170  49.745  1.00  0.00     0.032 A 
HETATM   18  C17 UNL     1      26.706   5.272  48.777  1.00  0.00     0.046 A 
HETATM   19  C18 UNL     1      27.269   6.512  48.498  1.00  0.00     0.138 A 
HETATM   20  F1  UNL     1      28.228   6.555  47.540  1.00  0.00    -0.204 F 
HETATM   21  C19 UNL     1      26.866   7.649  49.171  1.00  0.00     0.074 A 
HETATM   22 CL1  UNL     1      27.599   9.191  48.793  1.00  0.00    -0.081 Cl
HETATM   23  C20 UNL     1      25.886   7.510  50.127  1.00  0.00     0.056 A 
ENDBRANCH  14  16
ENDBRANCH  13  14
ENDBRANCH   9  13
BRANCH   1  24
HETATM   24  N2  UNL     1      22.754   3.704  52.402  1.00  0.00    -0.322 N 
HETATM   25  C6  UNL     1      23.726   2.754  52.012  1.00  0.00     0.245 C 
HETATM   26  O1  UNL     1      23.610   1.773  51.262  1.00  0.00    -0.268 OA
HETATM   27  H11 UNL     1      23.516   4.123  52.941  1.00  0.00     0.169 HD
BRANCH  25  28
HETATM   28  C5  UNL     1      25.126   2.438  52.216  1.00  0.00     0.072 C 
HETATM   29  C4  UNL     1      25.412   2.122  53.449  1.00  0.00     0.008 C 
BRANCH  29  30
HETATM   30  C3  UNL     1      26.790   1.776  53.813  1.00  0.00     0.299 C 
BRANCH  30  31
HETATM   31  N1  UNL     1      26.832   0.543  54.614  1.00  0.00     0.083 N 
HETATM   32  C1  UNL     1      28.211   0.100  54.807  1.00  0.00     0.309 C 
HETATM   33  C2  UNL     1      26.122  -0.475  53.838  1.00  0.00     0.309 C 
ENDBRANCH  30  31
ENDBRANCH  29  30
ENDBRANCH  25  28
ENDBRANCH   1  24
TORSDOF 7
ENDMDL
MODEL 8
REMARK VINA RESULT:      -7.5      3.809      6.093
REMARK  7 active torsions:
REMARK  status: ('A' for Active; 'I' for Inactive)
REMARK    1  A    between atoms: N1_2  and  C3_4 
REMARK    2  A    between atoms: C3_4  and  C4_5 
REMARK    3  A    between atoms: C5_6  and  C6_7 
REMARK       I    between atoms: C6_7  and  N2_9 
REMARK    4  A    between atoms: N2_9  and  C7_10 
REMARK    5  A    between atoms: C13_18  and  C14_19 
REMARK    6  A    between atoms: C14_19  and  N5_20 
REMARK    7  A    between atoms: N5_20  and  C15_21 
ROOT
HETATM    1  C7  UNL     1      25.222   1.851  51.967  1.00  0.00     0.065 A 
HETATM    2  C8  UNL     1      24.961   0.946  52.874  1.00  0.00     0.029 A 
HETATM    3  C9  UNL     1      26.126   0.558  53.489  1.00  0.00     0.067 A 
HETATM    4  N3  UNL     1      26.118  -0.354  54.454  1.00  0.00    -0.261 NA
HETATM    5  C10 UNL     1      25.038  -0.981  54.929  1.00  0.00     0.140 A 
HETATM    6  C11 UNL     1      23.905  -0.564  54.290  1.00  0.00     0.071 A 
HETATM    7  C12 UNL     1      22.670  -1.178  54.724  1.00  0.00     0.101 C 
HETATM    8  N4  UNL     1      21.669  -1.655  55.064  1.00  0.00    -0.191 NA
HETATM    9  C13 UNL     1      23.775   0.381  53.266  1.00  0.00     0.004 A 
HETATM   10  C21 UNL     1      27.528   0.973  53.296  1.00  0.00     0.208 A 
HETATM   11  N6  UNL     1      27.611   1.971  52.257  1.00  0.00    -0.293 NA
HETATM   12  C22 UNL     1      26.537   2.348  51.672  1.00  0.00     0.141 A 
ENDROOT
BRANCH   9  13
HETATM   13  C14 UNL     1      22.714   0.787  52.646  1.00  0.00     0.145 C 
BRANCH  13  14
HETATM   14  N5  UNL     1      21.400   1.060  52.208  1.00  0.00    -0.379 N 
HETATM   15  H14 UNL     1      20.527   1.015  52.847  1.00  0.00     0.160 HD
BRANCH  14  16
HETATM   16  C15 UNL     1      21.112   1.474  50.850  1.00  0.00     0.030 A 
HETATM   17  C16 UNL     1      21.639   0.879  49.740  1.00  0.00     0.032 A 
HETATM   18  C17 UNL     1      21.303   1.343  48.480  1.00  0.00     0.046 A 
HETATM   19  C18 UNL     1      20.427   2.417  48.354  1.00  0.00     0.138 A 
HETATM   20  F1  UNL     1      20.131   2.830  47.096  1.00  0.00    -0.204 F 
HETATM   21  C19 UNL     1      19.885   3.032  49.465  1.00  0.00     0.074 A 
HETATM   22 CL1  UNL     1      18.788   4.379  49.267  1.00  0.00    -0.081 Cl
HETATM   23  C20 UNL     1      20.241   2.544  50.702  1.00  0.00     0.056 A 
ENDBRANCH  14  16
ENDBRANCH  13  14
ENDBRANCH   9  13
BRANCH   1  24
HETATM   24  N2  UNL     1      24.119   2.324  51.274  1.00  0.00    -0.322 N 
HETATM   25  C6  UNL     1      24.056   3.659  50.813  1.00  0.00     0.245 C 
HETATM   26  O1  UNL     1      24.890   4.570  50.927  1.00  0.00    -0.268 OA
HETATM   27  H11 UNL     1      23.192   2.232  50.849  1.00  0.00     0.169 HD
BRANCH  25  28
HETATM   28  C5  UNL     1      23.171   4.552  50.092  1.00  0.00     0.072 C 
HETATM   29  C4  UNL     1      23.426   4.615  48.814  1.00  0.00     0.008 C 
BRANCH  29  30
HETATM   30  C3  UNL     1      22.614   5.478  47.950  1.00  0.00     0.299 C 
BRANCH  30  31
HETATM   31  N1  UNL     1      23.434   6.532  47.332  1.00  0.00     0.083 N 
HETATM   32  C1  UNL     1      23.545   7.686  48.221  1.00  0.00     0.309 C 
HETATM   33  C2  UNL     1      22.726   6.947  46.120  1.00  0.00     0.309 C 
ENDBRANCH  30  31
ENDBRANCH  29  30
ENDBRANCH  25  28
ENDBRANCH   1  24
TORSDOF 7
ENDMDL
MODEL 9
REMARK VINA RESULT:      -7.4      6.402     11.731
REMARK  7 active torsions:
REMARK  status: ('A' for Active; 'I' for Inactive)
REMARK    1  A    between atoms: N1_2  and  C3_4 
REMARK    2  A    between atoms: C3_4  and  C4_5 
REMARK    3  A    between atoms: C5_6  and  C6_7 
REMARK       I    between atoms: C6_7  and  N2_9 
REMARK    4  A    between atoms: N2_9  and  C7_10 
REMARK    5  A    between atoms: C13_18  and  C14_19 
REMARK    6  A    between atoms: C14_19  and  N5_20 
REMARK    7  A    between atoms: N5_20  and  C15_21 
ROOT
HETATM    1  C7  UNL     1      29.642   9.413  48.123  1.00  0.00     0.065 A 
HETATM    2  C8  UNL     1      30.844   9.780  47.761  1.00  0.00     0.029 A 
HETATM    3  C9  UNL     1      30.788  11.009  47.150  1.00  0.00     0.067 A 
HETATM    4  N3  UNL     1      31.889  11.596  46.695  1.00  0.00    -0.261 NA
HETATM    5  C10 UNL     1      33.128  11.099  46.767  1.00  0.00     0.140 A 
HETATM    6  C11 UNL     1      33.135   9.879  47.381  1.00  0.00     0.071 A 
HETATM    7  C12 UNL     1      34.427   9.244  47.514  1.00  0.00     0.101 C 
HETATM    8  N4  UNL     1      35.456   8.723  47.636  1.00  0.00    -0.191 NA
HETATM    9  C13 UNL     1      32.056   9.154  47.901  1.00  0.00     0.004 A 
HETATM   10  C21 UNL     1      29.662  11.914  46.857  1.00  0.00     0.208 A 
HETATM   11  N6  UNL     1      28.426  11.336  47.330  1.00  0.00    -0.293 NA
HETATM   12  C22 UNL     1      28.456  10.193  47.903  1.00  0.00     0.141 A 
ENDROOT
BRANCH   9  13
HETATM   13  C14 UNL     1      32.040   7.999  48.482  1.00  0.00     0.145 C 
BRANCH  13  14
HETATM   14  N5  UNL     1      32.354   6.765  49.092  1.00  0.00    -0.379 N 
HETATM   15  H14 UNL     1      32.129   6.524  50.124  1.00  0.00     0.160 HD
BRANCH  14  16
HETATM   16  C15 UNL     1      32.977   5.681  48.359  1.00  0.00     0.030 A 
HETATM   17  C16 UNL     1      34.323   5.553  48.177  1.00  0.00     0.032 A 
HETATM   18  C17 UNL     1      34.827   4.480  47.463  1.00  0.00     0.046 A 
HETATM   19  C18 UNL     1      33.953   3.536  46.935  1.00  0.00     0.138 A 
HETATM   20  F1  UNL     1      34.501   2.504  46.245  1.00  0.00    -0.204 F 
HETATM   21  C19 UNL     1      32.588   3.647  47.108  1.00  0.00     0.074 A 
HETATM   22 CL1  UNL     1      31.522   2.440  46.429  1.00  0.00    -0.081 Cl
HETATM   23  C20 UNL     1      32.123   4.728  47.824  1.00  0.00     0.056 A 
ENDBRANCH  14  16
ENDBRANCH  13  14
ENDBRANCH   9  13
BRANCH   1  24
HETATM   24  N2  UNL     1      29.569   8.182  48.755  1.00  0.00    -0.322 N 
HETATM   25  C6  UNL     1      28.915   7.084  48.151  1.00  0.00     0.245 C 
HETATM   26  O1  UNL     1      28.338   7.017  47.055  1.00  0.00    -0.268 OA
HETATM   27  H11 UNL     1      29.752   7.531  49.523  1.00  0.00     0.169 HD
BRANCH  25  28
HETATM   28  C5  UNL     1      28.600   5.692  48.407  1.00  0.00     0.072 C 
HETATM   29  C4  UNL     1      27.378   5.504  48.827  1.00  0.00     0.008 C 
BRANCH  29  30
HETATM   30  C3  UNL     1      26.911   4.148  49.127  1.00  0.00     0.299 C 
BRANCH  30  31
HETATM   31  N1  UNL     1      25.753   4.176  50.036  1.00  0.00     0.083 N 
HETATM   32  C1  UNL     1      24.662   3.361  49.506  1.00  0.00     0.309 C 
HETATM   33  C2  UNL     1      25.307   5.569  50.089  1.00  0.00     0.309 C 
ENDBRANCH  30  31
ENDBRANCH  29  30
ENDBRANCH  25  28
ENDBRANCH   1  24
TORSDOF 7
ENDMDL
