MODEL 1
REMARK VINA RESULT:      -8.1      0.000      0.000
REMARK  6 active torsions:
REMARK  status: ('A' for Active; 'I' for Inactive)
REMARK    1  A    between atoms: N1_2  and  C3_4 
REMARK    2  A    between atoms: C3_4  and  C4_5 
REMARK    3  A    between atoms: C5_6  and  C6_7 
REMARK    4  A    between atoms: C6_7  and  C7_9 
REMARK    5  A    between atoms: C10_13  and  N3_14 
REMARK    6  A    between atoms: N3_14  and  C11_15 
ROOT
HETATM    1  C7  UNL     1      24.623   2.091  53.392  1.00  0.00     0.081 C 
HETATM    2  C8  UNL     1      24.162   3.147  52.934  1.00  0.00     0.031 C 
HETATM    3  C9  UNL     1      23.638   4.508  52.578  1.00  0.00     0.173 C 
HETATM    4  N2  UNL     1      24.259   5.303  51.645  1.00  0.00    -0.394 N 
HETATM    5  C10 UNL     1      24.464   5.237  50.299  1.00  0.00     0.229 C 
HETATM    6  C17 UNL     1      23.929   4.060  49.489  1.00  0.00     0.257 A 
HETATM    7  C18 UNL     1      22.611   4.895  49.960  1.00  0.00     0.025 C 
HETATM    8  N4  UNL     1      21.609   5.528  50.340  1.00  0.00    -0.099 N 
HETATM    9  C19 UNL     1      23.390   3.023  48.706  1.00  0.00     0.263 A 
HETATM   10  N5  UNL     1      24.359   2.926  49.752  1.00  0.00    -0.056 NA
HETATM   11  C20 UNL     1      23.896   2.717  50.963  1.00  0.00     0.679 A 
HETATM   12  C21 UNL     1      22.456   2.528  51.443  1.00  0.00     0.165 A 
HETATM   13  N6  UNL     1      23.616   2.781  51.721  1.00  0.00    -0.341 N 
HETATM   14  H14 UNL     1      25.199   5.667  52.139  1.00  0.00     0.155 HD
ENDROOT
BRANCH   5  15
HETATM   15  N3  UNL     1      24.513   6.434  49.513  1.00  0.00    -0.366 N 
HETATM   16  H16 UNL     1      23.470   6.699  49.460  1.00  0.00     0.162 HD
BRANCH  15  17
HETATM   17  C11 UNL     1      25.348   7.262  48.683  1.00  0.00     0.030 A 
HETATM   18  C12 UNL     1      25.413   8.180  47.657  1.00  0.00     0.029 A 
HETATM   19  C13 UNL     1      26.494   8.355  46.923  1.00  0.00     0.004 A 
HETATM   20  C14 UNL     1      27.701   7.673  47.065  1.00  0.00     0.019 A 
HETATM   21  C15 UNL     1      27.719   6.727  48.079  1.00  0.00     0.013 A 
HETATM   22 BR1  UNL     1      29.390   5.803  48.195  1.00  0.00    -0.051 Br
HETATM   23  C16 UNL     1      26.574   6.503  48.897  1.00  0.00     0.048 A 
ENDBRANCH  15  17
ENDBRANCH   5  15
BRANCH   1  24
HETATM   24  C6  UNL     1      24.972   0.765  53.177  1.00  0.00     0.173 C 
HETATM   25  O1  UNL     1      23.999  -0.055  53.361  1.00  0.00    -0.288 OA
BRANCH  24  26
HETATM   26  C5  UNL     1      25.829  -0.316  52.867  1.00  0.00     0.052 C 
HETATM   27  C4  UNL     1      26.981  -0.620  53.435  1.00  0.00     0.007 C 
BRANCH  27  28
HETATM   28  C3  UNL     1      27.797  -0.042  54.570  1.00  0.00     0.299 C 
BRANCH  28  29
HETATM   29  N1  UNL     1      29.023   0.585  54.204  1.00  0.00     0.083 N 
HETATM   30  C1  UNL     1      29.975  -0.156  53.489  1.00  0.00     0.309 C 
HETATM   31  C2  UNL     1      28.731   1.936  53.647  1.00  0.00     0.309 C 
ENDBRANCH  28  29
ENDBRANCH  27  28
ENDBRANCH  24  26
ENDBRANCH   1  24
TORSDOF 6
ENDMDL
MODEL 2
REMARK VINA RESULT:      -7.5      2.083      3.346
REMARK  6 active torsions:
REMARK  status: ('A' for Active; 'I' for Inactive)
REMARK    1  A    between atoms: N1_2  and  C3_4 
REMARK    2  A    between atoms: C3_4  and  C4_5 
REMARK    3  A    between atoms: C5_6  and  C6_7 
REMARK    4  A    between atoms: C6_7  and  C7_9 
REMARK    5  A    between atoms: C10_13  and  N3_14 
REMARK    6  A    between atoms: N3_14  and  C11_15 
ROOT
HETATM    1  C7  UNL     1      24.483   2.563  53.270  1.00  0.00     0.081 C 
HETATM    2  C8  UNL     1      24.135   3.588  52.664  1.00  0.00     0.031 C 
HETATM    3  C9  UNL     1      23.773   4.936  52.112  1.00  0.00     0.173 C 
HETATM    4  N2  UNL     1      24.429   5.477  51.032  1.00  0.00    -0.394 N 
HETATM    5  C10 UNL     1      24.532   5.170  49.708  1.00  0.00     0.229 C 
HETATM    6  C17 UNL     1      23.792   3.967  49.130  1.00  0.00     0.257 A 
HETATM    7  C18 UNL     1      22.631   5.044  49.515  1.00  0.00     0.025 C 
HETATM    8  N4  UNL     1      21.750   5.864  49.829  1.00  0.00    -0.099 N 
HETATM    9  C19 UNL     1      23.069   2.906  48.556  1.00  0.00     0.263 A 
HETATM   10  N5  UNL     1      24.085   2.839  49.558  1.00  0.00    -0.056 NA
HETATM   11  C20 UNL     1      23.682   2.893  50.807  1.00  0.00     0.679 A 
HETATM   12  C21 UNL     1      22.266   2.988  51.376  1.00  0.00     0.165 A 
HETATM   13  N6  UNL     1      23.465   3.115  51.555  1.00  0.00    -0.341 N 
HETATM   14  H14 UNL     1      25.440   5.777  51.415  1.00  0.00     0.155 HD
ENDROOT
BRANCH   5  15
HETATM   15  N3  UNL     1      24.684   6.208  48.732  1.00  0.00    -0.366 N 
HETATM   16  H16 UNL     1      23.740   6.159  48.216  1.00  0.00     0.162 HD
BRANCH  15  17
HETATM   17  C11 UNL     1      25.620   7.112  48.113  1.00  0.00     0.030 A 
HETATM   18  C12 UNL     1      25.826   8.100  47.175  1.00  0.00     0.029 A 
HETATM   19  C13 UNL     1      27.009   8.351  46.651  1.00  0.00     0.004 A 
HETATM   20  C14 UNL     1      28.197   7.690  46.955  1.00  0.00     0.019 A 
HETATM   21  C15 UNL     1      28.076   6.676  47.894  1.00  0.00     0.013 A 
HETATM   22 BR1  UNL     1      29.734   5.786  48.236  1.00  0.00    -0.051 Br
HETATM   23  C16 UNL     1      26.817   6.369  48.486  1.00  0.00     0.048 A 
ENDBRANCH  15  17
ENDBRANCH   5  15
BRANCH   1  24
HETATM   24  C6  UNL     1      24.639   1.184  53.263  1.00  0.00     0.173 C 
HETATM   25  O1  UNL     1      25.699   0.793  52.649  1.00  0.00    -0.288 OA
BRANCH  24  26
HETATM   26  C5  UNL     1      24.295  -0.161  53.534  1.00  0.00     0.052 C 
HETATM   27  C4  UNL     1      23.168  -0.780  53.238  1.00  0.00     0.007 C 
BRANCH  27  28
HETATM   28  C3  UNL     1      21.893  -0.392  52.523  1.00  0.00     0.299 C 
BRANCH  28  29
HETATM   29  N1  UNL     1      20.720  -0.316  53.331  1.00  0.00     0.083 N 
HETATM   30  C1  UNL     1      19.497  -0.006  52.721  1.00  0.00     0.309 C 
HETATM   31  C2  UNL     1      20.685  -1.490  54.248  1.00  0.00     0.309 C 
ENDBRANCH  28  29
ENDBRANCH  27  28
ENDBRANCH  24  26
ENDBRANCH   1  24
TORSDOF 6
ENDMDL
MODEL 3
REMARK VINA RESULT:      -7.3      1.917      2.105
REMARK  6 active torsions:
REMARK  status: ('A' for Active; 'I' for Inactive)
REMARK    1  A    between atoms: N1_2  and  C3_4 
REMARK    2  A    between atoms: C3_4  and  C4_5 
REMARK    3  A    between atoms: C5_6  and  C6_7 
REMARK    4  A    between atoms: C6_7  and  C7_9 
REMARK    5  A    between atoms: C10_13  and  N3_14 
REMARK    6  A    between atoms: N3_14  and  C11_15 
ROOT
HETATM    1  C7  UNL     1      24.374   2.053  53.357  1.00  0.00     0.081 C 
HETATM    2  C8  UNL     1      23.897   3.154  53.042  1.00  0.00     0.031 C 
HETATM    3  C9  UNL     1      23.310   4.525  52.874  1.00  0.00     0.173 C 
HETATM    4  N2  UNL     1      24.006   5.543  52.267  1.00  0.00    -0.394 N 
HETATM    5  C10 UNL     1      24.460   5.787  51.005  1.00  0.00     0.229 C 
HETATM    6  C17 UNL     1      24.205   4.787  49.881  1.00  0.00     0.257 A 
HETATM    7  C18 UNL     1      22.745   5.415  50.239  1.00  0.00     0.025 C 
HETATM    8  N4  UNL     1      21.631   5.887  50.531  1.00  0.00    -0.099 N 
HETATM    9  C19 UNL     1      23.927   3.917  48.811  1.00  0.00     0.263 A 
HETATM   10  N5  UNL     1      24.694   3.651  49.987  1.00  0.00    -0.056 NA
HETATM   11  C20 UNL     1      24.041   3.153  51.013  1.00  0.00     0.679 A 
HETATM   12  C21 UNL     1      22.565   2.776  51.146  1.00  0.00     0.165 A 
HETATM   13  N6  UNL     1      23.623   3.031  51.696  1.00  0.00    -0.341 N 
HETATM   14  H14 UNL     1      24.799   5.845  53.002  1.00  0.00     0.155 HD
ENDROOT
BRANCH   5  15
HETATM   15  N3  UNL     1      24.528   7.128  50.506  1.00  0.00    -0.366 N 
HETATM   16  H16 UNL     1      23.492   7.421  50.532  1.00  0.00     0.162 HD
BRANCH  15  17
HETATM   17  C11 UNL     1      25.373   8.104  49.866  1.00  0.00     0.030 A 
HETATM   18  C12 UNL     1      26.504   8.887  49.949  1.00  0.00     0.029 A 
HETATM   19  C13 UNL     1      26.659   9.992  49.248  1.00  0.00     0.004 A 
HETATM   20  C14 UNL     1      25.745  10.523  48.341  1.00  0.00     0.019 A 
HETATM   21  C15 UNL     1      24.575   9.793  48.198  1.00  0.00     0.013 A 
HETATM   22 BR1  UNL     1      23.350  10.596  46.968  1.00  0.00    -0.051 Br
HETATM   23  C16 UNL     1      24.363   8.592  48.936  1.00  0.00     0.048 A 
ENDBRANCH  15  17
ENDBRANCH   5  15
BRANCH   1  24
HETATM   24  C6  UNL     1      24.890   0.830  52.950  1.00  0.00     0.173 C 
HETATM   25  O1  UNL     1      24.018  -0.114  52.941  1.00  0.00    -0.288 OA
BRANCH  24  26
HETATM   26  C5  UNL     1      25.884  -0.078  52.520  1.00  0.00     0.052 C 
HETATM   27  C4  UNL     1      27.005  -0.399  53.138  1.00  0.00     0.007 C 
BRANCH  27  28
HETATM   28  C3  UNL     1      27.646  -0.016  54.453  1.00  0.00     0.299 C 
BRANCH  28  29
HETATM   29  N1  UNL     1      29.042   0.273  54.409  1.00  0.00     0.083 N 
HETATM   30  C1  UNL     1      29.868  -0.506  53.586  1.00  0.00     0.309 C 
HETATM   31  C2  UNL     1      29.230   1.744  54.274  1.00  0.00     0.309 C 
ENDBRANCH  28  29
ENDBRANCH  27  28
ENDBRANCH  24  26
ENDBRANCH   1  24
TORSDOF 6
ENDMDL
MODEL 4
REMARK VINA RESULT:      -7.3      3.598      7.277
REMARK  6 active torsions:
REMARK  status: ('A' for Active; 'I' for Inactive)
REMARK    1  A    between atoms: N1_2  and  C3_4 
REMARK    2  A    between atoms: C3_4  and  C4_5 
REMARK    3  A    between atoms: C5_6  and  C6_7 
REMARK    4  A    between atoms: C6_7  and  C7_9 
REMARK    5  A    between atoms: C10_13  and  N3_14 
REMARK    6  A    between atoms: N3_14  and  C11_15 
ROOT
HETATM    1  C7  UNL     1      21.187   6.771  50.356  1.00  0.00     0.081 C 
HETATM    2  C8  UNL     1      22.388   6.507  50.517  1.00  0.00     0.031 C 
HETATM    3  C9  UNL     1      23.846   6.361  50.844  1.00  0.00     0.173 C 
HETATM    4  N2  UNL     1      24.331   5.268  51.520  1.00  0.00    -0.394 N 
HETATM    5  C10 UNL     1      24.450   3.937  51.251  1.00  0.00     0.229 C 
HETATM    6  C17 UNL     1      23.985   3.371  49.913  1.00  0.00     0.257 A 
HETATM    7  C18 UNL     1      25.292   4.280  49.566  1.00  0.00     0.025 C 
HETATM    8  N4  UNL     1      26.280   4.991  49.307  1.00  0.00    -0.099 N 
HETATM    9  C19 UNL     1      23.628   2.831  48.663  1.00  0.00     0.263 A 
HETATM   10  N5  UNL     1      22.781   3.464  49.625  1.00  0.00    -0.056 NA
HETATM   11  C20 UNL     1      22.616   4.761  49.499  1.00  0.00     0.679 A 
HETATM   12  C21 UNL     1      23.172   5.722  48.447  1.00  0.00     0.165 A 
HETATM   13  N6  UNL     1      22.661   5.568  49.544  1.00  0.00    -0.341 N 
HETATM   14  H14 UNL     1      23.987   5.394  52.581  1.00  0.00     0.155 HD
ENDROOT
BRANCH   5  15
HETATM   15  N3  UNL     1      25.547   3.185  51.783  1.00  0.00    -0.366 N 
HETATM   16  H16 UNL     1      26.368   3.867  51.637  1.00  0.00     0.162 HD
BRANCH  15  17
HETATM   17  C11 UNL     1      25.968   1.888  52.249  1.00  0.00     0.030 A 
HETATM   18  C12 UNL     1      26.874   0.856  52.136  1.00  0.00     0.029 A 
HETATM   19  C13 UNL     1      26.599  -0.379  52.508  1.00  0.00     0.004 A 
HETATM   20  C14 UNL     1      25.399  -0.821  53.059  1.00  0.00     0.019 A 
HETATM   21  C15 UNL     1      24.429   0.160  53.207  1.00  0.00     0.013 A 
HETATM   22 BR1  UNL     1      22.796  -0.521  53.933  1.00  0.00    -0.051 Br
HETATM   23  C16 UNL     1      24.681   1.507  52.819  1.00  0.00     0.048 A 
ENDBRANCH  15  17
ENDBRANCH   5  15
BRANCH   1  24
HETATM   24  C6  UNL     1      19.977   6.447  49.757  1.00  0.00     0.173 C 
HETATM   25  O1  UNL     1      19.273   7.475  49.440  1.00  0.00    -0.288 OA
BRANCH  24  26
HETATM   26  C5  UNL     1      18.965   5.594  49.259  1.00  0.00     0.052 C 
HETATM   27  C4  UNL     1      18.356   4.610  49.893  1.00  0.00     0.007 C 
BRANCH  27  28
HETATM   28  C3  UNL     1      18.427   4.035  51.290  1.00  0.00     0.299 C 
BRANCH  28  29
HETATM   29  N1  UNL     1      19.272   2.898  51.457  1.00  0.00     0.083 N 
HETATM   30  C1  UNL     1      19.543   2.088  50.346  1.00  0.00     0.309 C 
HETATM   31  C2  UNL     1      20.468   3.292  52.253  1.00  0.00     0.309 C 
ENDBRANCH  28  29
ENDBRANCH  27  28
ENDBRANCH  24  26
ENDBRANCH   1  24
TORSDOF 6
ENDMDL
MODEL 5
REMARK VINA RESULT:      -7.2      3.698      8.204
REMARK  6 active torsions:
REMARK  status: ('A' for Active; 'I' for Inactive)
REMARK    1  A    between atoms: N1_2  and  C3_4 
REMARK    2  A    between atoms: C3_4  and  C4_5 
REMARK    3  A    between atoms: C5_6  and  C6_7 
REMARK    4  A    between atoms: C6_7  and  C7_9 
REMARK    5  A    between atoms: C10_13  and  N3_14 
REMARK    6  A    between atoms: N3_14  and  C11_15 
ROOT
HETATM    1  C7  UNL     1      26.957   7.788  48.925  1.00  0.00     0.081 C 
HETATM    2  C8  UNL     1      26.620   6.597  48.999  1.00  0.00     0.031 C 
HETATM    3  C9  UNL     1      26.409   5.111  49.008  1.00  0.00     0.173 C 
HETATM    4  N2  UNL     1      26.232   4.410  50.177  1.00  0.00    -0.394 N 
HETATM    5  C10 UNL     1      25.270   4.364  51.141  1.00  0.00     0.229 C 
HETATM    6  C17 UNL     1      24.022   5.235  51.036  1.00  0.00     0.257 A 
HETATM    7  C18 UNL     1      23.880   4.132  49.845  1.00  0.00     0.025 C 
HETATM    8  N4  UNL     1      23.788   3.297  48.927  1.00  0.00    -0.099 N 
HETATM    9  C19 UNL     1      22.830   5.976  50.932  1.00  0.00     0.263 A 
HETATM   10  N5  UNL     1      24.167   6.468  51.043  1.00  0.00    -0.056 NA
HETATM   11  C20 UNL     1      24.807   6.688  49.917  1.00  0.00     0.679 A 
HETATM   12  C21 UNL     1      24.332   6.527  48.473  1.00  0.00     0.165 A 
HETATM   13  N6  UNL     1      25.264   6.644  49.251  1.00  0.00    -0.341 N 
HETATM   14  H14 UNL     1      27.240   4.387  50.669  1.00  0.00     0.155 HD
ENDROOT
BRANCH   5  15
HETATM   15  N3  UNL     1      24.996   3.140  51.834  1.00  0.00    -0.366 N 
HETATM   16  H16 UNL     1      24.020   3.338  52.244  1.00  0.00     0.162 HD
BRANCH  15  17
HETATM   17  C11 UNL     1      25.561   1.900  52.299  1.00  0.00     0.030 A 
HETATM   18  C12 UNL     1      26.559   0.959  52.161  1.00  0.00     0.029 A 
HETATM   19  C13 UNL     1      26.423  -0.290  52.561  1.00  0.00     0.004 A 
HETATM   20  C14 UNL     1      25.297  -0.837  53.171  1.00  0.00     0.019 A 
HETATM   21  C15 UNL     1      24.242   0.047  53.347  1.00  0.00     0.013 A 
HETATM   22 BR1  UNL     1      22.717  -0.777  54.154  1.00  0.00    -0.051 Br
HETATM   23  C16 UNL     1      24.344   1.405  52.930  1.00  0.00     0.048 A 
ENDBRANCH  15  17
ENDBRANCH   5  15
BRANCH   1  24
HETATM   24  C6  UNL     1      26.630   9.122  49.130  1.00  0.00     0.173 C 
HETATM   25  O1  UNL     1      26.856   9.525  50.330  1.00  0.00    -0.288 OA
BRANCH  24  26
HETATM   26  C5  UNL     1      26.144  10.405  48.786  1.00  0.00     0.052 C 
HETATM   27  C4  UNL     1      26.806  11.389  48.210  1.00  0.00     0.007 C 
BRANCH  27  28
HETATM   28  C3  UNL     1      28.212  11.564  47.679  1.00  0.00     0.299 C 
BRANCH  28  29
HETATM   29  N1  UNL     1      29.266  11.358  48.617  1.00  0.00     0.083 N 
HETATM   30  C1  UNL     1      30.213  10.357  48.362  1.00  0.00     0.309 C 
HETATM   31  C2  UNL     1      29.837  12.678  49.005  1.00  0.00     0.309 C 
ENDBRANCH  28  29
ENDBRANCH  27  28
ENDBRANCH  24  26
ENDBRANCH   1  24
TORSDOF 6
ENDMDL
MODEL 6
REMARK VINA RESULT:      -7.2      4.327      7.543
REMARK  6 active torsions:
REMARK  status: ('A' for Active; 'I' for Inactive)
REMARK    1  A    between atoms: N1_2  and  C3_4 
REMARK    2  A    between atoms: C3_4  and  C4_5 
REMARK    3  A    between atoms: C5_6  and  C6_7 
REMARK    4  A    between atoms: C6_7  and  C7_9 
REMARK    5  A    between atoms: C10_13  and  N3_14 
REMARK    6  A    between atoms: N3_14  and  C11_15 
ROOT
HETATM    1  C7  UNL     1      18.628   3.734  51.572  1.00  0.00     0.081 C 
HETATM    2  C8  UNL     1      19.842   3.927  51.401  1.00  0.00     0.031 C 
HETATM    3  C9  UNL     1      21.294   4.302  51.358  1.00  0.00     0.173 C 
HETATM    4  N2  UNL     1      22.286   3.395  51.646  1.00  0.00    -0.394 N 
HETATM    5  C10 UNL     1      22.756   2.256  51.063  1.00  0.00     0.229 C 
HETATM    6  C17 UNL     1      22.141   1.737  49.767  1.00  0.00     0.257 A 
HETATM    7  C18 UNL     1      22.916   3.110  49.357  1.00  0.00     0.025 C 
HETATM    8  N4  UNL     1      23.495   4.169  49.055  1.00  0.00    -0.099 N 
HETATM    9  C19 UNL     1      21.639   1.271  48.538  1.00  0.00     0.263 A 
HETATM   10  N5  UNL     1      20.945   1.404  49.780  1.00  0.00    -0.056 NA
HETATM   11  C20 UNL     1      20.332   2.546  49.990  1.00  0.00     0.679 A 
HETATM   12  C21 UNL     1      20.212   3.775  49.087  1.00  0.00     0.165 A 
HETATM   13  N6  UNL     1      20.119   3.297  50.206  1.00  0.00    -0.341 N 
HETATM   14  H14 UNL     1      22.239   3.241  52.757  1.00  0.00     0.155 HD
ENDROOT
BRANCH   5  15
HETATM   15  N3  UNL     1      24.144   1.913  51.157  1.00  0.00    -0.366 N 
HETATM   16  H16 UNL     1      24.516   2.256  50.206  1.00  0.00     0.162 HD
BRANCH  15  17
HETATM   17  C11 UNL     1      25.125   1.180  51.916  1.00  0.00     0.030 A 
HETATM   18  C12 UNL     1      26.368   0.584  51.930  1.00  0.00     0.029 A 
HETATM   19  C13 UNL     1      26.688  -0.377  52.773  1.00  0.00     0.004 A 
HETATM   20  C14 UNL     1      25.858  -0.920  53.751  1.00  0.00     0.019 A 
HETATM   21  C15 UNL     1      24.584  -0.374  53.803  1.00  0.00     0.013 A 
HETATM   22 BR1  UNL     1      23.486  -1.189  55.141  1.00  0.00    -0.051 Br
HETATM   23  C16 UNL     1      24.193   0.666  52.912  1.00  0.00     0.048 A 
ENDBRANCH  15  17
ENDBRANCH   5  15
BRANCH   1  24
HETATM   24  C6  UNL     1      17.476   3.058  51.196  1.00  0.00     0.173 C 
HETATM   25  O1  UNL     1      16.786   3.680  50.307  1.00  0.00    -0.288 OA
BRANCH  24  26
HETATM   26  C5  UNL     1      16.519   2.017  51.216  1.00  0.00     0.052 C 
HETATM   27  C4  UNL     1      16.736   0.720  51.106  1.00  0.00     0.007 C 
BRANCH  27  28
HETATM   28  C3  UNL     1      17.967  -0.148  50.964  1.00  0.00     0.299 C 
BRANCH  28  29
HETATM   29  N1  UNL     1      18.548  -0.615  52.179  1.00  0.00     0.083 N 
HETATM   30  C1  UNL     1      19.540   0.159  52.796  1.00  0.00     0.309 C 
HETATM   31  C2  UNL     1      17.464  -1.087  53.086  1.00  0.00     0.309 C 
ENDBRANCH  28  29
ENDBRANCH  27  28
ENDBRANCH  24  26
ENDBRANCH   1  24
TORSDOF 6
ENDMDL
MODEL 7
REMARK VINA RESULT:      -7.1      1.969      2.634
REMARK  6 active torsions:
REMARK  status: ('A' for Active; 'I' for Inactive)
REMARK    1  A    between atoms: N1_2  and  C3_4 
REMARK    2  A    between atoms: C3_4  and  C4_5 
REMARK    3  A    between atoms: C5_6  and  C6_7 
REMARK    4  A    between atoms: C6_7  and  C7_9 
REMARK    5  A    between atoms: C10_13  and  N3_14 
REMARK    6  A    between atoms: N3_14  and  C11_15 
ROOT
HETATM    1  C7  UNL     1      23.626   3.691  52.411  1.00  0.00     0.081 C 
HETATM    2  C8  UNL     1      23.486   4.833  51.948  1.00  0.00     0.031 C 
HETATM    3  C9  UNL     1      23.187   6.251  51.559  1.00  0.00     0.173 C 
HETATM    4  N2  UNL     1      24.164   7.217  51.529  1.00  0.00    -0.394 N 
HETATM    5  C10 UNL     1      25.278   7.444  50.777  1.00  0.00     0.229 C 
HETATM    6  C17 UNL     1      25.664   6.488  49.653  1.00  0.00     0.257 A 
HETATM    7  C18 UNL     1      24.307   7.231  49.142  1.00  0.00     0.025 C 
HETATM    8  N4  UNL     1      23.260   7.789  48.767  1.00  0.00    -0.099 N 
HETATM    9  C19 UNL     1      26.007   5.663  48.566  1.00  0.00     0.263 A 
HETATM   10  N5  UNL     1      25.933   5.313  49.950  1.00  0.00    -0.056 NA
HETATM   11  C20 UNL     1      24.779   4.855  50.378  1.00  0.00     0.679 A 
HETATM   12  C21 UNL     1      23.480   4.600  49.611  1.00  0.00     0.165 A 
HETATM   13  N6  UNL     1      24.036   4.756  50.686  1.00  0.00    -0.341 N 
HETATM   14  H14 UNL     1      24.400   7.439  52.603  1.00  0.00     0.155 HD
ENDROOT
BRANCH   5  15
HETATM   15  N3  UNL     1      25.702   8.783  50.494  1.00  0.00    -0.366 N 
HETATM   16  H16 UNL     1      25.210   9.335  51.276  1.00  0.00     0.162 HD
BRANCH  15  17
HETATM   17  C11 UNL     1      26.350   9.631  49.527  1.00  0.00     0.030 A 
HETATM   18  C12 UNL     1      26.252  10.308  48.330  1.00  0.00     0.029 A 
HETATM   19  C13 UNL     1      27.304  10.631  47.605  1.00  0.00     0.004 A 
HETATM   20  C14 UNL     1      28.633  10.359  47.921  1.00  0.00     0.019 A 
HETATM   21  C15 UNL     1      28.820   9.678  49.115  1.00  0.00     0.013 A 
HETATM   22 BR1  UNL     1      30.662   9.305  49.470  1.00  0.00    -0.051 Br
HETATM   23  C16 UNL     1      27.713   9.307  49.931  1.00  0.00     0.048 A 
ENDBRANCH  15  17
ENDBRANCH   5  15
BRANCH   1  24
HETATM   24  C6  UNL     1      24.209   2.436  52.301  1.00  0.00     0.173 C 
HETATM   25  O1  UNL     1      23.892   1.640  53.259  1.00  0.00    -0.288 OA
BRANCH  24  26
HETATM   26  C5  UNL     1      25.023   1.431  51.729  1.00  0.00     0.052 C 
HETATM   27  C4  UNL     1      26.307   1.214  51.944  1.00  0.00     0.007 C 
BRANCH  27  28
HETATM   28  C3  UNL     1      27.364   1.844  52.824  1.00  0.00     0.299 C 
BRANCH  28  29
HETATM   29  N1  UNL     1      28.052   0.961  53.706  1.00  0.00     0.083 N 
HETATM   30  C1  UNL     1      29.247   1.392  54.298  1.00  0.00     0.309 C 
HETATM   31  C2  UNL     1      27.070   0.350  54.646  1.00  0.00     0.309 C 
ENDBRANCH  28  29
ENDBRANCH  27  28
ENDBRANCH  24  26
ENDBRANCH   1  24
TORSDOF 6
ENDMDL
MODEL 8
REMARK VINA RESULT:      -7.1      4.719      7.848
REMARK  6 active torsions:
REMARK  status: ('A' for Active; 'I' for Inactive)
REMARK    1  A    between atoms: N1_2  and  C3_4 
REMARK    2  A    between atoms: C3_4  and  C4_5 
REMARK    3  A    between atoms: C5_6  and  C6_7 
REMARK    4  A    between atoms: C6_7  and  C7_9 
REMARK    5  A    between atoms: C10_13  and  N3_14 
REMARK    6  A    between atoms: N3_14  and  C11_15 
ROOT
HETATM    1  C7  UNL     1      26.677   8.684  50.091  1.00  0.00     0.081 C 
HETATM    2  C8  UNL     1      27.833   9.045  49.822  1.00  0.00     0.031 C 
HETATM    3  C9  UNL     1      29.237   9.562  49.698  1.00  0.00     0.173 C 
HETATM    4  N2  UNL     1      30.306   8.718  49.514  1.00  0.00    -0.394 N 
HETATM    5  C10 UNL     1      30.724   7.887  48.518  1.00  0.00     0.229 C 
HETATM    6  C17 UNL     1      29.922   7.759  47.227  1.00  0.00     0.257 A 
HETATM    7  C18 UNL     1      30.547   9.263  47.198  1.00  0.00     0.025 C 
HETATM    8  N4  UNL     1      31.014  10.416  47.193  1.00  0.00    -0.099 N 
HETATM    9  C19 UNL     1      29.240   7.671  45.999  1.00  0.00     0.263 A 
HETATM   10  N5  UNL     1      28.763   7.318  47.299  1.00  0.00    -0.056 NA
HETATM   11  C20 UNL     1      28.140   8.260  47.970  1.00  0.00     0.679 A 
HETATM   12  C21 UNL     1      27.809   9.696  47.565  1.00  0.00     0.165 A 
HETATM   13  N6  UNL     1      27.931   8.873  48.456  1.00  0.00    -0.341 N 
HETATM   14  H14 UNL     1      30.458   8.206  50.501  1.00  0.00     0.155 HD
ENDROOT
BRANCH   5  15
HETATM   15  N3  UNL     1      32.122   7.677  48.288  1.00  0.00    -0.366 N 
HETATM   16  H16 UNL     1      32.336   8.435  47.553  1.00  0.00     0.162 HD
BRANCH  15  17
HETATM   17  C11 UNL     1      33.232   6.789  48.522  1.00  0.00     0.030 A 
HETATM   18  C12 UNL     1      34.587   6.662  48.736  1.00  0.00     0.029 A 
HETATM   19  C13 UNL     1      35.251   5.554  48.470  1.00  0.00     0.004 A 
HETATM   20  C14 UNL     1      34.711   4.377  47.957  1.00  0.00     0.019 A 
HETATM   21  C15 UNL     1      33.346   4.421  47.712  1.00  0.00     0.013 A 
HETATM   22 BR1  UNL     1      32.676   2.789  46.975  1.00  0.00    -0.051 Br
HETATM   23  C16 UNL     1      32.588   5.597  47.983  1.00  0.00     0.048 A 
ENDBRANCH  15  17
ENDBRANCH   5  15
BRANCH   1  24
HETATM   24  C6  UNL     1      25.512   8.052  49.679  1.00  0.00     0.173 C 
HETATM   25  O1  UNL     1      24.443   8.619  50.114  1.00  0.00    -0.288 OA
BRANCH  24  26
HETATM   26  C5  UNL     1      24.731   7.070  49.028  1.00  0.00     0.052 C 
HETATM   27  C4  UNL     1      25.040   5.805  48.816  1.00  0.00     0.007 C 
BRANCH  27  28
HETATM   28  C3  UNL     1      26.216   4.920  49.166  1.00  0.00     0.299 C 
BRANCH  28  29
HETATM   29  N1  UNL     1      25.903   3.578  49.533  1.00  0.00     0.083 N 
HETATM   30  C1  UNL     1      26.505   3.031  50.674  1.00  0.00     0.309 C 
HETATM   31  C2  UNL     1      24.429   3.381  49.446  1.00  0.00     0.309 C 
ENDBRANCH  28  29
ENDBRANCH  27  28
ENDBRANCH  24  26
ENDBRANCH   1  24
TORSDOF 6
ENDMDL
MODEL 9
REMARK VINA RESULT:      -7.0      2.343      3.121
REMARK  6 active torsions:
REMARK  status: ('A' for Active; 'I' for Inactive)
REMARK    1  A    between atoms: N1_2  and  C3_4 
REMARK    2  A    between atoms: C3_4  and  C4_5 
REMARK    3  A    between atoms: C5_6  and  C6_7 
REMARK    4  A    between atoms: C6_7  and  C7_9 
REMARK    5  A    between atoms: C10_13  and  N3_14 
REMARK    6  A    between atoms: N3_14  and  C11_15 
ROOT
HETATM    1  C7  UNL     1      22.183   3.135  52.647  1.00  0.00     0.081 C 
HETATM    2  C8  UNL     1      22.685   4.185  52.217  1.00  0.00     0.031 C 
HETATM    3  C9  UNL     1      23.334   5.501  51.904  1.00  0.00     0.173 C 
HETATM    4  N2  UNL     1      24.499   5.581  51.178  1.00  0.00    -0.394 N 
HETATM    5  C10 UNL     1      24.859   5.311  49.892  1.00  0.00     0.229 C 
HETATM    6  C17 UNL     1      23.831   4.796  48.890  1.00  0.00     0.257 A 
HETATM    7  C18 UNL     1      23.403   6.338  49.192  1.00  0.00     0.025 C 
HETATM    8  N4  UNL     1      23.072   7.512  49.443  1.00  0.00    -0.099 N 
HETATM    9  C19 UNL     1      22.891   4.385  47.927  1.00  0.00     0.263 A 
HETATM   10  N5  UNL     1      23.291   3.701  49.116  1.00  0.00    -0.056 NA
HETATM   11  C20 UNL     1      22.588   3.947  50.198  1.00  0.00     0.679 A 
HETATM   12  C21 UNL     1      21.364   4.844  50.389  1.00  0.00     0.165 A 
HETATM   13  N6  UNL     1      22.290   4.231  50.895  1.00  0.00    -0.341 N 
HETATM   14  H14 UNL     1      25.306   5.215  51.866  1.00  0.00     0.155 HD
ENDROOT
BRANCH   5  15
HETATM   15  N3  UNL     1      25.876   6.086  49.246  1.00  0.00    -0.366 N 
HETATM   16  H16 UNL     1      25.416   7.060  49.210  1.00  0.00     0.162 HD
BRANCH  15  17
HETATM   17  C11 UNL     1      27.120   6.024  48.523  1.00  0.00     0.030 A 
HETATM   18  C12 UNL     1      28.391   5.496  48.450  1.00  0.00     0.029 A 
HETATM   19  C13 UNL     1      29.372   6.085  47.794  1.00  0.00     0.004 A 
HETATM   20  C14 UNL     1      29.284   7.284  47.091  1.00  0.00     0.019 A 
HETATM   21  C15 UNL     1      28.033   7.883  47.115  1.00  0.00     0.013 A 
HETATM   22 BR1  UNL     1      27.992   9.542  46.163  1.00  0.00    -0.051 Br
HETATM   23  C16 UNL     1      26.944   7.284  47.811  1.00  0.00     0.048 A 
ENDBRANCH  15  17
ENDBRANCH   5  15
BRANCH   1  24
HETATM   24  C6  UNL     1      21.548   1.932  52.373  1.00  0.00     0.173 C 
HETATM   25  O1  UNL     1      20.267   2.001  52.453  1.00  0.00    -0.288 OA
BRANCH  24  26
HETATM   26  C5  UNL     1      21.457   0.559  52.047  1.00  0.00     0.052 C 
HETATM   27  C4  UNL     1      22.082  -0.449  52.625  1.00  0.00     0.007 C 
BRANCH  27  28
HETATM   28  C3  UNL     1      23.039  -0.587  53.789  1.00  0.00     0.299 C 
BRANCH  28  29
HETATM   29  N1  UNL     1      24.427  -0.581  53.462  1.00  0.00     0.083 N 
HETATM   30  C1  UNL     1      24.921   0.434  52.631  1.00  0.00     0.309 C 
HETATM   31  C2  UNL     1      25.219  -0.820  54.701  1.00  0.00     0.309 C 
ENDBRANCH  28  29
ENDBRANCH  27  28
ENDBRANCH  24  26
ENDBRANCH   1  24
TORSDOF 6
ENDMDL
