MODEL 1
REMARK VINA RESULT:      -6.9      0.000      0.000
REMARK  8 active torsions:
REMARK  status: ('A' for Active; 'I' for Inactive)
REMARK    1  A    between atoms: C2_2  and  C3_4 
REMARK    2  A    between atoms: C3_4  and  C4_5 
REMARK    3  A    between atoms: C4_5  and  C5_6 
REMARK    4  A    between atoms: C5_6  and  C6_7 
REMARK    5  A    between atoms: C6_7  and  C7_8 
REMARK    6  A    between atoms: C7_8  and  N1_10 
REMARK    7  A    between atoms: N1_10  and  C9_11 
REMARK    8  A    between atoms: C12_18  and  C13_19 
ROOT
HETATM    1  C9  UNL     1      26.024   2.339  51.735  1.00  0.00     0.106 C 
HETATM    2  N2  UNL     1      26.955   1.449  51.657  1.00  0.00    -0.217 NA
HETATM    3  C10 UNL     1      26.825   0.181  52.239  1.00  0.00     0.166 A 
HETATM    4  N3  UNL     1      27.892  -0.544  52.894  1.00  0.00    -0.241 NA
HETATM    5  C11 UNL     1      26.508  -1.013  52.731  1.00  0.00     0.278 A 
HETATM    6  N4  UNL     1      25.837  -1.006  54.045  1.00  0.00    -0.167 NA
HETATM    7  O1  UNL     1      24.900   0.006  54.087  1.00  0.00    -0.262 OA
HETATM    8  C12 UNL     1      23.786  -0.053  53.258  1.00  0.00     0.089 C 
HETATM    9  C15 UNL     1      24.247   1.100  52.881  1.00  0.00     0.019 C 
HETATM   10  C16 UNL     1      24.647   2.376  52.376  1.00  0.00     0.108 C 
HETATM   11  H13 UNL     1      25.304  -1.875  54.223  1.00  0.00     0.157 HD
ENDROOT
BRANCH   1  12
HETATM   12  N1  UNL     1      26.424   3.548  51.053  1.00  0.00    -0.370 N 
HETATM   13  H11 UNL     1      26.992   4.237  51.636  1.00  0.00     0.161 HD
BRANCH  12  14
HETATM   14  C7  UNL     1      26.098   3.851  49.673  1.00  0.00     0.101 C 
HETATM   15  C8  UNL     1      27.241   4.450  48.924  1.00  0.00     0.036 C 
BRANCH  14  16
HETATM   16  C6  UNL     1      24.900   4.724  49.542  1.00  0.00    -0.002 C 
BRANCH  16  17
HETATM   17  C5  UNL     1      23.754   4.214  49.117  1.00  0.00    -0.002 C 
BRANCH  17  18
HETATM   18  C4  UNL     1      23.607   2.797  48.851  1.00  0.00     0.002 C 
BRANCH  18  19
HETATM   19  C3  UNL     1      22.383   2.329  48.716  1.00  0.00     0.036 C 
BRANCH  19  20
HETATM   20  C2  UNL     1      21.710   1.838  49.908  1.00  0.00     0.077 A 
HETATM   21  C1  UNL     1      21.060   1.480  50.991  1.00  0.00     0.250 A 
HETATM   22  F1  UNL     1      21.914   0.546  50.339  1.00  0.00    -0.367 F 
ENDBRANCH  19  20
ENDBRANCH  18  19
ENDBRANCH  17  18
ENDBRANCH  16  17
ENDBRANCH  14  16
ENDBRANCH  12  14
ENDBRANCH   1  12
BRANCH   8  23
HETATM   23  C13 UNL     1      22.853  -1.133  53.222  1.00  0.00     0.045 C 
HETATM   24  C14 UNL     1      21.638  -1.129  53.707  1.00  0.00     0.059 C 
HETATM   25 BR1  UNL     1      20.720   0.252  54.591  1.00  0.00    -0.064 Br
ENDBRANCH   8  23
TORSDOF 8
ENDMDL
MODEL 2
REMARK VINA RESULT:      -6.4      2.813      5.085
REMARK  8 active torsions:
REMARK  status: ('A' for Active; 'I' for Inactive)
REMARK    1  A    between atoms: C2_2  and  C3_4 
REMARK    2  A    between atoms: C3_4  and  C4_5 
REMARK    3  A    between atoms: C4_5  and  C5_6 
REMARK    4  A    between atoms: C5_6  and  C6_7 
REMARK    5  A    between atoms: C6_7  and  C7_8 
REMARK    6  A    between atoms: C7_8  and  N1_10 
REMARK    7  A    between atoms: N1_10  and  C9_11 
REMARK    8  A    between atoms: C12_18  and  C13_19 
ROOT
HETATM    1  C9  UNL     1      23.207   3.298  51.994  1.00  0.00     0.106 C 
HETATM    2  N2  UNL     1      23.774   3.824  50.962  1.00  0.00    -0.217 NA
HETATM    3  C10 UNL     1      25.089   3.512  50.595  1.00  0.00     0.166 A 
HETATM    4  N3  UNL     1      26.049   4.458  50.066  1.00  0.00    -0.241 NA
HETATM    5  C11 UNL     1      26.293   3.026  50.302  1.00  0.00     0.278 A 
HETATM    6  N4  UNL     1      27.216   2.876  51.444  1.00  0.00    -0.167 NA
HETATM    7  O1  UNL     1      26.537   2.371  52.533  1.00  0.00    -0.262 OA
HETATM    8  C12 UNL     1      26.017   1.082  52.482  1.00  0.00     0.089 C 
HETATM    9  C15 UNL     1      24.921   1.721  52.755  1.00  0.00     0.019 C 
HETATM   10  C16 UNL     1      23.649   2.301  53.052  1.00  0.00     0.108 C 
HETATM   11  H13 UNL     1      27.971   2.193  51.256  1.00  0.00     0.157 HD
ENDROOT
BRANCH   1  12
HETATM   12  N1  UNL     1      21.858   3.797  52.137  1.00  0.00    -0.370 N 
HETATM   13  H11 UNL     1      21.743   4.622  52.804  1.00  0.00     0.161 HD
BRANCH  12  14
HETATM   14  C7  UNL     1      20.708   3.248  51.446  1.00  0.00     0.101 C 
HETATM   15  C8  UNL     1      19.823   4.299  50.865  1.00  0.00     0.036 C 
BRANCH  14  16
HETATM   16  C6  UNL     1      19.905   2.333  52.301  1.00  0.00    -0.002 C 
BRANCH  16  17
HETATM   17  C5  UNL     1      20.171   1.035  52.313  1.00  0.00    -0.002 C 
BRANCH  17  18
HETATM   18  C4  UNL     1      20.598   0.361  53.522  1.00  0.00     0.002 C 
BRANCH  18  19
HETATM   19  C3  UNL     1      21.369  -0.699  53.385  1.00  0.00     0.036 C 
BRANCH  19  20
HETATM   20  C2  UNL     1      22.342  -0.970  54.430  1.00  0.00     0.077 A 
HETATM   21  C1  UNL     1      23.149  -1.221  55.435  1.00  0.00     0.250 A 
HETATM   22  F1  UNL     1      23.684  -1.039  54.130  1.00  0.00    -0.367 F 
ENDBRANCH  19  20
ENDBRANCH  18  19
ENDBRANCH  17  18
ENDBRANCH  16  17
ENDBRANCH  14  16
ENDBRANCH  12  14
ENDBRANCH   1  12
BRANCH   8  23
HETATM   23  C13 UNL     1      26.780  -0.094  52.210  1.00  0.00     0.045 C 
HETATM   24  C14 UNL     1      27.768  -0.564  52.928  1.00  0.00     0.059 C 
HETATM   25 BR1  UNL     1      28.506   0.115  54.516  1.00  0.00    -0.064 Br
ENDBRANCH   8  23
TORSDOF 8
ENDMDL
MODEL 3
REMARK VINA RESULT:      -6.3      2.806      4.600
REMARK  8 active torsions:
REMARK  status: ('A' for Active; 'I' for Inactive)
REMARK    1  A    between atoms: C2_2  and  C3_4 
REMARK    2  A    between atoms: C3_4  and  C4_5 
REMARK    3  A    between atoms: C4_5  and  C5_6 
REMARK    4  A    between atoms: C5_6  and  C6_7 
REMARK    5  A    between atoms: C6_7  and  C7_8 
REMARK    6  A    between atoms: C7_8  and  N1_10 
REMARK    7  A    between atoms: N1_10  and  C9_11 
REMARK    8  A    between atoms: C12_18  and  C13_19 
ROOT
HETATM    1  C9  UNL     1      26.216   2.248  51.865  1.00  0.00     0.106 C 
HETATM    2  N2  UNL     1      27.037   1.264  51.720  1.00  0.00    -0.217 NA
HETATM    3  C10 UNL     1      26.795   0.003  52.282  1.00  0.00     0.166 A 
HETATM    4  N3  UNL     1      27.807  -0.852  52.866  1.00  0.00    -0.241 NA
HETATM    5  C11 UNL     1      26.372  -1.161  52.767  1.00  0.00     0.278 A 
HETATM    6  N4  UNL     1      25.774  -1.113  54.115  1.00  0.00    -0.167 NA
HETATM    7  O1  UNL     1      24.959  -0.006  54.227  1.00  0.00    -0.262 OA
HETATM    8  C12 UNL     1      23.805   0.081  53.457  1.00  0.00     0.089 C 
HETATM    9  C15 UNL     1      24.372   1.184  53.079  1.00  0.00     0.019 C 
HETATM   10  C16 UNL     1      24.885   2.421  52.579  1.00  0.00     0.108 C 
HETATM   11  H13 UNL     1      25.157  -1.922  54.304  1.00  0.00     0.157 HD
ENDROOT
BRANCH   1  12
HETATM   12  N1  UNL     1      26.712   3.422  51.185  1.00  0.00    -0.370 N 
HETATM   13  H11 UNL     1      27.614   3.834  51.581  1.00  0.00     0.161 HD
BRANCH  12  14
HETATM   14  C7  UNL     1      26.067   4.038  50.043  1.00  0.00     0.101 C 
HETATM   15  C8  UNL     1      25.003   3.180  49.445  1.00  0.00     0.036 C 
BRANCH  14  16
HETATM   16  C6  UNL     1      27.032   4.450  48.988  1.00  0.00    -0.002 C 
BRANCH  16  17
HETATM   17  C5  UNL     1      27.107   5.720  48.620  1.00  0.00    -0.002 C 
BRANCH  17  18
HETATM   18  C4  UNL     1      28.355   6.308  48.177  1.00  0.00     0.002 C 
BRANCH  18  19
HETATM   19  C3  UNL     1      29.401   5.512  48.087  1.00  0.00     0.036 C 
BRANCH  19  20
HETATM   20  C2  UNL     1      30.634   5.939  48.729  1.00  0.00     0.077 A 
HETATM   21  C1  UNL     1      31.697   6.389  49.354  1.00  0.00     0.250 A 
HETATM   22  F1  UNL     1      31.821   5.297  48.450  1.00  0.00    -0.367 F 
ENDBRANCH  19  20
ENDBRANCH  18  19
ENDBRANCH  17  18
ENDBRANCH  16  17
ENDBRANCH  14  16
ENDBRANCH  12  14
ENDBRANCH   1  12
BRANCH   8  23
HETATM   23  C13 UNL     1      22.757  -0.889  53.450  1.00  0.00     0.045 C 
HETATM   24  C14 UNL     1      21.475  -0.649  53.340  1.00  0.00     0.059 C 
HETATM   25 BR1  UNL     1      20.590   0.998  53.158  1.00  0.00    -0.064 Br
ENDBRANCH   8  23
TORSDOF 8
ENDMDL
MODEL 4
REMARK VINA RESULT:      -6.3      2.943      4.865
REMARK  8 active torsions:
REMARK  status: ('A' for Active; 'I' for Inactive)
REMARK    1  A    between atoms: C2_2  and  C3_4 
REMARK    2  A    between atoms: C3_4  and  C4_5 
REMARK    3  A    between atoms: C4_5  and  C5_6 
REMARK    4  A    between atoms: C5_6  and  C6_7 
REMARK    5  A    between atoms: C6_7  and  C7_8 
REMARK    6  A    between atoms: C7_8  and  N1_10 
REMARK    7  A    between atoms: N1_10  and  C9_11 
REMARK    8  A    between atoms: C12_18  and  C13_19 
ROOT
HETATM    1  C9  UNL     1      23.786   0.980  53.143  1.00  0.00     0.106 C 
HETATM    2  N2  UNL     1      23.846  -0.149  53.764  1.00  0.00    -0.217 NA
HETATM    3  C10 UNL     1      22.699  -0.888  54.080  1.00  0.00     0.166 A 
HETATM    4  N3  UNL     1      22.501  -1.629  55.307  1.00  0.00    -0.241 NA
HETATM    5  C11 UNL     1      21.540  -1.530  54.199  1.00  0.00     0.278 A 
HETATM    6  N4  UNL     1      20.393  -0.706  54.626  1.00  0.00    -0.167 NA
HETATM    7  O1  UNL     1      20.420   0.510  53.976  1.00  0.00    -0.262 OA
HETATM    8  C12 UNL     1      20.240   0.557  52.598  1.00  0.00     0.089 C 
HETATM    9  C15 UNL     1      21.389   1.156  52.663  1.00  0.00     0.019 C 
HETATM   10  C16 UNL     1      22.649   1.827  52.594  1.00  0.00     0.108 C 
HETATM   11  H13 UNL     1      19.484  -1.129  54.370  1.00  0.00     0.157 HD
ENDROOT
BRANCH   1  12
HETATM   12  N1  UNL     1      25.111   1.522  52.951  1.00  0.00    -0.370 N 
HETATM   13  H11 UNL     1      25.263   2.507  53.332  1.00  0.00     0.161 HD
BRANCH  12  14
HETATM   14  C7  UNL     1      26.192   0.817  52.291  1.00  0.00     0.101 C 
HETATM   15  C8  UNL     1      27.347   0.545  53.197  1.00  0.00     0.036 C 
BRANCH  14  16
HETATM   16  C6  UNL     1      26.670   1.512  51.065  1.00  0.00    -0.002 C 
BRANCH  16  17
HETATM   17  C5  UNL     1      26.503   2.820  50.939  1.00  0.00    -0.002 C 
BRANCH  17  18
HETATM   18  C4  UNL     1      25.762   3.386  49.831  1.00  0.00     0.002 C 
BRANCH  18  19
HETATM   19  C3  UNL     1      25.946   4.663  49.567  1.00  0.00     0.036 C 
BRANCH  19  20
HETATM   20  C2  UNL     1      27.190   5.051  48.924  1.00  0.00     0.077 A 
HETATM   21  C1  UNL     1      28.359   5.344  48.402  1.00  0.00     0.250 A 
HETATM   22  F1  UNL     1      27.181   5.939  47.870  1.00  0.00    -0.367 F 
ENDBRANCH  19  20
ENDBRANCH  18  19
ENDBRANCH  17  18
ENDBRANCH  16  17
ENDBRANCH  14  16
ENDBRANCH  12  14
ENDBRANCH   1  12
BRANCH   8  23
HETATM   23  C13 UNL     1      19.107   0.031  51.906  1.00  0.00     0.045 C 
HETATM   24  C14 UNL     1      18.583   0.499  50.802  1.00  0.00     0.059 C 
HETATM   25 BR1  UNL     1      19.117   1.975  49.770  1.00  0.00    -0.064 Br
ENDBRANCH   8  23
TORSDOF 8
ENDMDL
MODEL 5
REMARK VINA RESULT:      -6.2      1.811      2.145
REMARK  8 active torsions:
REMARK  status: ('A' for Active; 'I' for Inactive)
REMARK    1  A    between atoms: C2_2  and  C3_4 
REMARK    2  A    between atoms: C3_4  and  C4_5 
REMARK    3  A    between atoms: C4_5  and  C5_6 
REMARK    4  A    between atoms: C5_6  and  C6_7 
REMARK    5  A    between atoms: C6_7  and  C7_8 
REMARK    6  A    between atoms: C7_8  and  N1_10 
REMARK    7  A    between atoms: N1_10  and  C9_11 
REMARK    8  A    between atoms: C12_18  and  C13_19 
ROOT
HETATM    1  C9  UNL     1      26.056   2.348  51.753  1.00  0.00     0.106 C 
HETATM    2  N2  UNL     1      26.938   1.417  51.616  1.00  0.00    -0.217 NA
HETATM    3  C10 UNL     1      26.793   0.159  52.215  1.00  0.00     0.166 A 
HETATM    4  N3  UNL     1      27.871  -0.611  52.800  1.00  0.00    -0.241 NA
HETATM    5  C11 UNL     1      26.459  -1.018  52.738  1.00  0.00     0.278 A 
HETATM    6  N4  UNL     1      25.884  -0.974  54.096  1.00  0.00    -0.167 NA
HETATM    7  O1  UNL     1      24.998   0.078  54.197  1.00  0.00    -0.262 OA
HETATM    8  C12 UNL     1      23.827   0.066  53.448  1.00  0.00     0.089 C 
HETATM    9  C15 UNL     1      24.311   1.195  53.030  1.00  0.00     0.019 C 
HETATM   10  C16 UNL     1      24.730   2.449  52.489  1.00  0.00     0.108 C 
HETATM   11  H13 UNL     1      25.327  -1.818  54.318  1.00  0.00     0.157 HD
ENDROOT
BRANCH   1  12
HETATM   12  N1  UNL     1      26.459   3.534  51.034  1.00  0.00    -0.370 N 
HETATM   13  H11 UNL     1      26.968   4.270  51.614  1.00  0.00     0.161 HD
BRANCH  12  14
HETATM   14  C7  UNL     1      26.210   3.757  49.624  1.00  0.00     0.101 C 
HETATM   15  C8  UNL     1      27.359   4.407  48.927  1.00  0.00     0.036 C 
BRANCH  14  16
HETATM   16  C6  UNL     1      24.966   4.534  49.373  1.00  0.00    -0.002 C 
BRANCH  16  17
HETATM   17  C5  UNL     1      23.833   3.901  49.108  1.00  0.00    -0.002 C 
BRANCH  17  18
HETATM   18  C4  UNL     1      22.683   4.010  49.981  1.00  0.00     0.002 C 
BRANCH  18  19
HETATM   19  C3  UNL     1      21.714   4.821  49.609  1.00  0.00     0.036 C 
BRANCH  19  20
HETATM   20  C2  UNL     1      21.653   6.135  50.230  1.00  0.00     0.077 A 
HETATM   21  C1  UNL     1      21.504   7.317  50.782  1.00  0.00     0.250 A 
HETATM   22  F1  UNL     1      22.809   6.774  50.619  1.00  0.00    -0.367 F 
ENDBRANCH  19  20
ENDBRANCH  18  19
ENDBRANCH  17  18
ENDBRANCH  16  17
ENDBRANCH  14  16
ENDBRANCH  12  14
ENDBRANCH   1  12
BRANCH   8  23
HETATM   23  C13 UNL     1      22.846  -0.972  53.487  1.00  0.00     0.045 C 
HETATM   24  C14 UNL     1      21.547  -0.815  53.494  1.00  0.00     0.059 C 
HETATM   25 BR1  UNL     1      20.545   0.773  53.457  1.00  0.00    -0.064 Br
ENDBRANCH   8  23
TORSDOF 8
ENDMDL
MODEL 6
REMARK VINA RESULT:      -6.0      3.220      4.963
REMARK  8 active torsions:
REMARK  status: ('A' for Active; 'I' for Inactive)
REMARK    1  A    between atoms: C2_2  and  C3_4 
REMARK    2  A    between atoms: C3_4  and  C4_5 
REMARK    3  A    between atoms: C4_5  and  C5_6 
REMARK    4  A    between atoms: C5_6  and  C6_7 
REMARK    5  A    between atoms: C6_7  and  C7_8 
REMARK    6  A    between atoms: C7_8  and  N1_10 
REMARK    7  A    between atoms: N1_10  and  C9_11 
REMARK    8  A    between atoms: C12_18  and  C13_19 
ROOT
HETATM    1  C9  UNL     1      24.498   2.417  51.166  1.00  0.00     0.106 C 
HETATM    2  N2  UNL     1      23.478   1.832  51.697  1.00  0.00    -0.217 NA
HETATM    3  C10 UNL     1      23.614   0.801  52.635  1.00  0.00     0.166 A 
HETATM    4  N3  UNL     1      22.768  -0.371  52.709  1.00  0.00    -0.241 NA
HETATM    5  C11 UNL     1      23.900  -0.071  53.599  1.00  0.00     0.278 A 
HETATM    6  N4  UNL     1      25.003  -1.006  53.308  1.00  0.00    -0.167 NA
HETATM    7  O1  UNL     1      26.035  -0.335  52.685  1.00  0.00    -0.262 OA
HETATM    8  C12 UNL     1      26.737   0.645  53.379  1.00  0.00     0.089 C 
HETATM    9  C15 UNL     1      26.356   1.361  52.367  1.00  0.00     0.019 C 
HETATM   10  C16 UNL     1      26.003   2.258  51.312  1.00  0.00     0.108 C 
HETATM   11  H13 UNL     1      25.421  -1.406  54.167  1.00  0.00     0.157 HD
ENDROOT
BRANCH   1  12
HETATM   12  N1  UNL     1      24.069   3.435  50.236  1.00  0.00    -0.370 N 
HETATM   13  H11 UNL     1      23.369   3.115  49.497  1.00  0.00     0.161 HD
BRANCH  12  14
HETATM   14  C7  UNL     1      24.527   4.810  50.263  1.00  0.00     0.101 C 
HETATM   15  C8  UNL     1      23.694   5.683  51.140  1.00  0.00     0.036 C 
BRANCH  14  16
HETATM   16  C6  UNL     1      24.627   5.411  48.905  1.00  0.00    -0.002 C 
BRANCH  16  17
HETATM   17  C5  UNL     1      24.981   6.680  48.768  1.00  0.00    -0.002 C 
BRANCH  17  18
HETATM   18  C4  UNL     1      26.067   7.073  47.894  1.00  0.00     0.002 C 
BRANCH  18  19
HETATM   19  C3  UNL     1      27.250   7.262  48.442  1.00  0.00     0.036 C 
BRANCH  19  20
HETATM   20  C2  UNL     1      28.242   6.210  48.296  1.00  0.00     0.077 A 
HETATM   21  C1  UNL     1      29.204   5.327  48.157  1.00  0.00     0.250 A 
HETATM   22  F1  UNL     1      27.863   4.886  48.340  1.00  0.00    -0.367 F 
ENDBRANCH  19  20
ENDBRANCH  18  19
ENDBRANCH  17  18
ENDBRANCH  16  17
ENDBRANCH  14  16
ENDBRANCH  12  14
ENDBRANCH   1  12
BRANCH   8  23
HETATM   23  C13 UNL     1      27.408   0.439  54.623  1.00  0.00     0.045 C 
HETATM   24  C14 UNL     1      28.616  -0.035  54.786  1.00  0.00     0.059 C 
HETATM   25 BR1  UNL     1      29.855  -0.594  53.489  1.00  0.00    -0.064 Br
ENDBRANCH   8  23
TORSDOF 8
ENDMDL
MODEL 7
REMARK VINA RESULT:      -5.9      4.090      7.350
REMARK  8 active torsions:
REMARK  status: ('A' for Active; 'I' for Inactive)
REMARK    1  A    between atoms: C2_2  and  C3_4 
REMARK    2  A    between atoms: C3_4  and  C4_5 
REMARK    3  A    between atoms: C4_5  and  C5_6 
REMARK    4  A    between atoms: C5_6  and  C6_7 
REMARK    5  A    between atoms: C6_7  and  C7_8 
REMARK    6  A    between atoms: C7_8  and  N1_10 
REMARK    7  A    between atoms: N1_10  and  C9_11 
REMARK    8  A    between atoms: C12_18  and  C13_19 
ROOT
HETATM    1  C9  UNL     1      24.908   2.821  51.218  1.00  0.00     0.106 C 
HETATM    2  N2  UNL     1      23.711   3.099  51.610  1.00  0.00    -0.217 NA
HETATM    3  C10 UNL     1      23.127   4.352  51.389  1.00  0.00     0.166 A 
HETATM    4  N3  UNL     1      22.268   5.044  52.327  1.00  0.00    -0.241 NA
HETATM    5  C11 UNL     1      22.664   5.537  50.999  1.00  0.00     0.278 A 
HETATM    6  N4  UNL     1      23.594   6.671  51.162  1.00  0.00    -0.167 NA
HETATM    7  O1  UNL     1      24.866   6.292  50.788  1.00  0.00    -0.262 OA
HETATM    8  C12 UNL     1      25.126   5.969  49.461  1.00  0.00     0.089 C 
HETATM    9  C15 UNL     1      25.522   4.862  50.010  1.00  0.00     0.019 C 
HETATM   10  C16 UNL     1      25.989   3.598  50.485  1.00  0.00     0.108 C 
HETATM   11  H13 UNL     1      23.358   7.469  50.547  1.00  0.00     0.157 HD
ENDROOT
BRANCH   1  12
HETATM   12  N1  UNL     1      25.255   1.465  51.578  1.00  0.00    -0.370 N 
HETATM   13  H11 UNL     1      25.576   0.845  50.771  1.00  0.00     0.161 HD
BRANCH  12  14
HETATM   14  C7  UNL     1      25.187   0.936  52.925  1.00  0.00     0.101 C 
HETATM   15  C8  UNL     1      25.886   1.796  53.924  1.00  0.00     0.036 C 
BRANCH  14  16
HETATM   16  C6  UNL     1      25.694  -0.460  53.023  1.00  0.00    -0.002 C 
BRANCH  16  17
HETATM   17  C5  UNL     1      26.825  -0.796  52.422  1.00  0.00    -0.002 C 
BRANCH  17  18
HETATM   18  C4  UNL     1      27.789  -1.671  53.057  1.00  0.00     0.002 C 
BRANCH  18  19
HETATM   19  C3  UNL     1      29.011  -1.208  53.223  1.00  0.00     0.036 C 
BRANCH  19  20
HETATM   20  C2  UNL     1      29.169   0.046  53.943  1.00  0.00     0.077 A 
HETATM   21  C1  UNL     1      29.364   1.209  54.520  1.00  0.00     0.250 A 
HETATM   22  F1  UNL     1      28.573   0.222  55.172  1.00  0.00    -0.367 F 
ENDBRANCH  19  20
ENDBRANCH  18  19
ENDBRANCH  17  18
ENDBRANCH  16  17
ENDBRANCH  14  16
ENDBRANCH  12  14
ENDBRANCH   1  12
BRANCH   8  23
HETATM   23  C13 UNL     1      24.882   6.832  48.349  1.00  0.00     0.045 C 
HETATM   24  C14 UNL     1      25.784   7.452  47.632  1.00  0.00     0.059 C 
HETATM   25 BR1  UNL     1      27.655   7.426  47.803  1.00  0.00    -0.064 Br
ENDBRANCH   8  23
TORSDOF 8
ENDMDL
MODEL 8
REMARK VINA RESULT:      -5.8      2.507      3.493
REMARK  8 active torsions:
REMARK  status: ('A' for Active; 'I' for Inactive)
REMARK    1  A    between atoms: C2_2  and  C3_4 
REMARK    2  A    between atoms: C3_4  and  C4_5 
REMARK    3  A    between atoms: C4_5  and  C5_6 
REMARK    4  A    between atoms: C5_6  and  C6_7 
REMARK    5  A    between atoms: C6_7  and  C7_8 
REMARK    6  A    between atoms: C7_8  and  N1_10 
REMARK    7  A    between atoms: N1_10  and  C9_11 
REMARK    8  A    between atoms: C12_18  and  C13_19 
ROOT
HETATM    1  C9  UNL     1      23.414   1.521  52.858  1.00  0.00     0.106 C 
HETATM    2  N2  UNL     1      23.857   0.452  53.428  1.00  0.00    -0.217 NA
HETATM    3  C10 UNL     1      22.999  -0.533  53.934  1.00  0.00     0.166 A 
HETATM    4  N3  UNL     1      23.217  -1.275  55.157  1.00  0.00    -0.241 NA
HETATM    5  C11 UNL     1      22.070  -1.431  54.250  1.00  0.00     0.278 A 
HETATM    6  N4  UNL     1      20.861  -0.896  54.905  1.00  0.00    -0.167 NA
HETATM    7  O1  UNL     1      20.475   0.277  54.292  1.00  0.00    -0.262 OA
HETATM    8  C12 UNL     1      20.034   0.252  52.973  1.00  0.00     0.089 C 
HETATM    9  C15 UNL     1      20.998   1.110  52.838  1.00  0.00     0.019 C 
HETATM   10  C16 UNL     1      22.026   2.060  52.553  1.00  0.00     0.108 C 
HETATM   11  H13 UNL     1      20.047  -1.529  54.813  1.00  0.00     0.157 HD
ENDROOT
BRANCH   1  12
HETATM   12  N1  UNL     1      24.512   2.359  52.436  1.00  0.00    -0.370 N 
HETATM   13  H11 UNL     1      24.696   3.216  53.046  1.00  0.00     0.161 HD
BRANCH  12  14
HETATM   14  C7  UNL     1      25.336   2.100  51.272  1.00  0.00     0.101 C 
HETATM   15  C8  UNL     1      26.781   1.939  51.606  1.00  0.00     0.036 C 
BRANCH  14  16
HETATM   16  C6  UNL     1      25.178   3.133  50.213  1.00  0.00    -0.002 C 
BRANCH  16  17
HETATM   17  C5  UNL     1      24.352   4.152  50.399  1.00  0.00    -0.002 C 
BRANCH  17  18
HETATM   18  C4  UNL     1      23.085   4.237  49.702  1.00  0.00     0.002 C 
BRANCH  18  19
HETATM   19  C3  UNL     1      22.983   3.604  48.551  1.00  0.00     0.036 C 
BRANCH  19  20
HETATM   20  C2  UNL     1      22.250   2.348  48.530  1.00  0.00     0.077 A 
HETATM   21  C1  UNL     1      21.538   1.247  48.584  1.00  0.00     0.250 A 
HETATM   22  F1  UNL     1      22.550   1.384  47.593  1.00  0.00    -0.367 F 
ENDBRANCH  19  20
ENDBRANCH  18  19
ENDBRANCH  17  18
ENDBRANCH  16  17
ENDBRANCH  14  16
ENDBRANCH  12  14
ENDBRANCH   1  12
BRANCH   8  23
HETATM   23  C13 UNL     1      18.950  -0.543  52.492  1.00  0.00     0.045 C 
HETATM   24  C14 UNL     1      18.171  -0.265  51.478  1.00  0.00     0.059 C 
HETATM   25 BR1  UNL     1      18.201   1.225  50.335  1.00  0.00    -0.064 Br
ENDBRANCH   8  23
TORSDOF 8
ENDMDL
MODEL 9
REMARK VINA RESULT:      -5.7      7.041      9.879
REMARK  8 active torsions:
REMARK  status: ('A' for Active; 'I' for Inactive)
REMARK    1  A    between atoms: C2_2  and  C3_4 
REMARK    2  A    between atoms: C3_4  and  C4_5 
REMARK    3  A    between atoms: C4_5  and  C5_6 
REMARK    4  A    between atoms: C5_6  and  C6_7 
REMARK    5  A    between atoms: C6_7  and  C7_8 
REMARK    6  A    between atoms: C7_8  and  N1_10 
REMARK    7  A    between atoms: N1_10  and  C9_11 
REMARK    8  A    between atoms: C12_18  and  C13_19 
ROOT
HETATM    1  C9  UNL     1      31.076   6.782  48.484  1.00  0.00     0.106 C 
HETATM    2  N2  UNL     1      31.466   7.804  47.800  1.00  0.00    -0.217 NA
HETATM    3  C10 UNL     1      32.740   7.873  47.224  1.00  0.00     0.166 A 
HETATM    4  N3  UNL     1      33.555   9.067  47.151  1.00  0.00    -0.241 NA
HETATM    5  C11 UNL     1      33.927   7.741  46.636  1.00  0.00     0.278 A 
HETATM    6  N4  UNL     1      34.999   7.179  47.480  1.00  0.00    -0.167 NA
HETATM    7  O1  UNL     1      34.505   6.133  48.232  1.00  0.00    -0.262 OA
HETATM    8  C12 UNL     1      34.074   4.973  47.598  1.00  0.00     0.089 C 
HETATM    9  C15 UNL     1      32.982   5.261  48.235  1.00  0.00     0.019 C 
HETATM   10  C16 UNL     1      31.722   5.464  48.879  1.00  0.00     0.108 C 
HETATM   11  H13 UNL     1      35.769   6.769  46.922  1.00  0.00     0.157 HD
ENDROOT
BRANCH   1  12
HETATM   12  N1  UNL     1      29.727   6.978  48.960  1.00  0.00    -0.370 N 
HETATM   13  H11 UNL     1      29.641   7.431  49.923  1.00  0.00     0.161 HD
BRANCH  12  14
HETATM   14  C7  UNL     1      28.538   6.602  48.221  1.00  0.00     0.101 C 
HETATM   15  C8  UNL     1      27.362   7.465  48.534  1.00  0.00     0.036 C 
BRANCH  14  16
HETATM   16  C6  UNL     1      28.173   5.171  48.405  1.00  0.00    -0.002 C 
BRANCH  16  17
HETATM   17  C5  UNL     1      26.981   4.849  48.884  1.00  0.00    -0.002 C 
BRANCH  17  18
HETATM   18  C4  UNL     1      26.674   3.498  49.307  1.00  0.00     0.002 C 
BRANCH  18  19
HETATM   19  C3  UNL     1      26.096   3.347  50.482  1.00  0.00     0.036 C 
BRANCH  19  20
HETATM   20  C2  UNL     1      26.485   2.201  51.287  1.00  0.00     0.077 A 
HETATM   21  C1  UNL     1      26.827   1.113  51.938  1.00  0.00     0.250 A 
HETATM   22  F1  UNL     1      26.806   2.363  52.617  1.00  0.00    -0.367 F 
ENDBRANCH  19  20
ENDBRANCH  18  19
ENDBRANCH  17  18
ENDBRANCH  16  17
ENDBRANCH  14  16
ENDBRANCH  12  14
ENDBRANCH   1  12
BRANCH   8  23
HETATM   23  C13 UNL     1      34.876   4.176  46.725  1.00  0.00     0.045 C 
HETATM   24  C14 UNL     1      34.692   4.004  45.441  1.00  0.00     0.059 C 
HETATM   25 BR1  UNL     1      33.357   4.718  44.329  1.00  0.00    -0.064 Br
ENDBRANCH   8  23
TORSDOF 8
ENDMDL
