MODEL 1
REMARK VINA RESULT:      -8.0      0.000      0.000
REMARK  7 active torsions:
REMARK  status: ('A' for Active; 'I' for Inactive)
REMARK    1  A    between atoms: C2_2  and  C3_3 
REMARK    2  A    between atoms: C3_3  and  C4_4 
REMARK    3  A    between atoms: C5_5  and  C6_6 
REMARK    4  A    between atoms: C6_6  and  N1_8 
REMARK    5  A    between atoms: N1_8  and  C8_9 
REMARK    6  A    between atoms: C9_10  and  N2_11 
REMARK    7  A    between atoms: N2_11  and  C10_12 
ROOT
HETATM    1  C8  UNL     1      25.047   2.025  53.333  1.00  0.00     0.136 C 
HETATM    2  C9  UNL     1      25.095   0.700  53.105  1.00  0.00     0.172 C 
HETATM    3  N3  UNL     1      25.589  -0.612  53.111  1.00  0.00    -0.221 NA
HETATM    4  C16 UNL     1      26.784  -1.024  53.234  1.00  0.00     0.237 C 
HETATM    5  N4  UNL     1      27.935  -0.161  53.407  1.00  0.00    -0.230 NA
HETATM    6  C17 UNL     1      28.224   0.243  54.628  1.00  0.00     0.252 C 
HETATM    7  O1  UNL     1      29.335   0.970  54.091  1.00  0.00    -0.343 OA
HETATM    8  C18 UNL     1      28.906   2.345  53.839  1.00  0.00     0.206 C 
HETATM    9  C19 UNL     1      27.426   2.285  53.525  1.00  0.00     0.327 C 
HETATM   10  N5  UNL     1      26.305   1.893  53.960  1.00  0.00    -0.390 NA
ENDROOT
BRANCH   2  11
HETATM   11  N2  UNL     1      23.922   0.230  52.408  1.00  0.00    -0.338 N 
HETATM   12  H13 UNL     1      24.212   0.112  51.393  1.00  0.00     0.167 HD
BRANCH  11  13
HETATM   13  C10 UNL     1      22.581  -0.069  52.818  1.00  0.00     0.035 A 
HETATM   14  C11 UNL     1      22.393  -0.617  54.073  1.00  0.00     0.032 A 
HETATM   15  C12 UNL     1      21.078  -0.875  54.386  1.00  0.00     0.046 A 
HETATM   16  C13 UNL     1      20.018  -0.626  53.557  1.00  0.00     0.138 A 
HETATM   17  F1  UNL     1      18.723  -0.870  53.838  1.00  0.00    -0.204 F 
HETATM   18  C14 UNL     1      20.311  -0.082  52.334  1.00  0.00     0.074 A 
HETATM   19 CL1  UNL     1      19.009   0.271  51.195  1.00  0.00    -0.081 Cl
HETATM   20  C15 UNL     1      21.591   0.210  51.933  1.00  0.00     0.056 A 
ENDBRANCH  11  13
ENDBRANCH   2  11
BRANCH   1  21
HETATM   21  N1  UNL     1      23.958   2.796  52.915  1.00  0.00    -0.359 N 
HETATM   22  H12 UNL     1      23.033   2.585  53.327  1.00  0.00     0.162 HD
BRANCH  21  23
HETATM   23  C6  UNL     1      24.192   3.817  51.952  1.00  0.00     0.159 C 
HETATM   24  C7  UNL     1      23.468   5.089  52.314  1.00  0.00     0.046 C 
BRANCH  23  25
HETATM   25  C5  UNL     1      23.714   3.281  50.656  1.00  0.00    -0.082 C 
HETATM   26  C4  UNL     1      23.326   2.862  49.592  1.00  0.00    -0.104 C 
BRANCH  26  27
HETATM   27  C3  UNL     1      22.862   2.370  48.281  1.00  0.00     0.093 C 
BRANCH  27  28
HETATM   28  C2  UNL     1      21.647   1.455  48.472  1.00  0.00     0.007 C 
HETATM   29  C1  UNL     1      20.354   2.199  48.496  1.00  0.00     0.006 C 
ENDBRANCH  27  28
ENDBRANCH  26  27
ENDBRANCH  23  25
ENDBRANCH  21  23
ENDBRANCH   1  21
TORSDOF 7
ENDMDL
MODEL 2
REMARK VINA RESULT:      -7.8      1.443      2.093
REMARK  7 active torsions:
REMARK  status: ('A' for Active; 'I' for Inactive)
REMARK    1  A    between atoms: C2_2  and  C3_3 
REMARK    2  A    between atoms: C3_3  and  C4_4 
REMARK    3  A    between atoms: C5_5  and  C6_6 
REMARK    4  A    between atoms: C6_6  and  N1_8 
REMARK    5  A    between atoms: N1_8  and  C8_9 
REMARK    6  A    between atoms: C9_10  and  N2_11 
REMARK    7  A    between atoms: N2_11  and  C10_12 
ROOT
HETATM    1  C8  UNL     1      25.053   1.866  53.460  1.00  0.00     0.136 C 
HETATM    2  C9  UNL     1      25.152   0.556  53.171  1.00  0.00     0.172 C 
HETATM    3  N3  UNL     1      25.700  -0.733  53.109  1.00  0.00    -0.221 NA
HETATM    4  C16 UNL     1      26.913  -1.099  53.196  1.00  0.00     0.237 C 
HETATM    5  N4  UNL     1      28.030  -0.197  53.391  1.00  0.00    -0.230 NA
HETATM    6  C17 UNL     1      28.323   0.163  54.625  1.00  0.00     0.252 C 
HETATM    7  O1  UNL     1      29.394   0.960  54.105  1.00  0.00    -0.343 OA
HETATM    8  C18 UNL     1      28.904   2.325  53.924  1.00  0.00     0.206 C 
HETATM    9  C19 UNL     1      27.422   2.217  53.629  1.00  0.00     0.327 C 
HETATM   10  N5  UNL     1      26.326   1.758  54.062  1.00  0.00    -0.390 NA
ENDROOT
BRANCH   2  11
HETATM   11  N2  UNL     1      23.988   0.069  52.470  1.00  0.00    -0.338 N 
HETATM   12  H13 UNL     1      24.305  -0.120  51.474  1.00  0.00     0.167 HD
BRANCH  11  13
HETATM   13  C10 UNL     1      22.629  -0.173  52.858  1.00  0.00     0.035 A 
HETATM   14  C11 UNL     1      22.398  -0.714  54.109  1.00  0.00     0.032 A 
HETATM   15  C12 UNL     1      21.068  -0.916  54.400  1.00  0.00     0.046 A 
HETATM   16  C13 UNL     1      20.034  -0.621  53.555  1.00  0.00     0.138 A 
HETATM   17  F1  UNL     1      18.725  -0.810  53.814  1.00  0.00    -0.204 F 
HETATM   18  C14 UNL     1      20.369  -0.088  52.339  1.00  0.00     0.074 A 
HETATM   19 CL1  UNL     1      19.102   0.323  51.180  1.00  0.00    -0.081 Cl
HETATM   20  C15 UNL     1      21.667   0.150  51.958  1.00  0.00     0.056 A 
ENDBRANCH  11  13
ENDBRANCH   2  11
BRANCH   1  21
HETATM   21  N1  UNL     1      23.926   2.609  53.095  1.00  0.00    -0.359 N 
HETATM   22  H12 UNL     1      22.997   2.184  53.257  1.00  0.00     0.162 HD
BRANCH  21  23
HETATM   23  C6  UNL     1      24.131   3.896  52.524  1.00  0.00     0.159 C 
HETATM   24  C7  UNL     1      22.824   4.530  52.120  1.00  0.00     0.046 C 
BRANCH  23  25
HETATM   25  C5  UNL     1      25.010   3.693  51.348  1.00  0.00    -0.082 C 
HETATM   26  C4  UNL     1      25.726   3.546  50.388  1.00  0.00    -0.104 C 
BRANCH  26  27
HETATM   27  C3  UNL     1      26.607   3.391  49.214  1.00  0.00     0.093 C 
BRANCH  27  28
HETATM   28  C2  UNL     1      27.284   4.728  48.895  1.00  0.00     0.007 C 
HETATM   29  C1  UNL     1      26.317   5.855  48.759  1.00  0.00     0.006 C 
ENDBRANCH  27  28
ENDBRANCH  26  27
ENDBRANCH  23  25
ENDBRANCH  21  23
ENDBRANCH   1  21
TORSDOF 7
ENDMDL
MODEL 3
REMARK VINA RESULT:      -7.7      4.066      6.353
REMARK  7 active torsions:
REMARK  status: ('A' for Active; 'I' for Inactive)
REMARK    1  A    between atoms: C2_2  and  C3_3 
REMARK    2  A    between atoms: C3_3  and  C4_4 
REMARK    3  A    between atoms: C5_5  and  C6_6 
REMARK    4  A    between atoms: C6_6  and  N1_8 
REMARK    5  A    between atoms: N1_8  and  C8_9 
REMARK    6  A    between atoms: C9_10  and  N2_11 
REMARK    7  A    between atoms: N2_11  and  C10_12 
ROOT
HETATM    1  C8  UNL     1      24.531   3.774  50.315  1.00  0.00     0.136 C 
HETATM    2  C9  UNL     1      25.844   3.627  50.060  1.00  0.00     0.172 C 
HETATM    3  N3  UNL     1      27.146   3.964  49.666  1.00  0.00    -0.221 NA
HETATM    4  C16 UNL     1      27.543   4.904  48.909  1.00  0.00     0.237 C 
HETATM    5  N4  UNL     1      26.669   5.869  48.274  1.00  0.00    -0.230 NA
HETATM    6  C17 UNL     1      26.314   6.930  48.970  1.00  0.00     0.252 C 
HETATM    7  O1  UNL     1      25.545   7.373  47.845  1.00  0.00    -0.343 OA
HETATM    8  C18 UNL     1      24.168   6.914  48.021  1.00  0.00     0.206 C 
HETATM    9  C19 UNL     1      24.239   5.628  48.817  1.00  0.00     0.327 C 
HETATM   10  N5  UNL     1      24.670   5.114  49.889  1.00  0.00    -0.390 NA
ENDROOT
BRANCH   2  11
HETATM   11  N2  UNL     1      26.303   2.290  50.350  1.00  0.00    -0.338 N 
HETATM   12  H13 UNL     1      26.280   1.766  49.426  1.00  0.00     0.167 HD
BRANCH  11  13
HETATM   13  C10 UNL     1      26.736   1.630  51.547  1.00  0.00     0.035 A 
HETATM   14  C11 UNL     1      27.162   2.414  52.603  1.00  0.00     0.032 A 
HETATM   15  C12 UNL     1      27.561   1.702  53.711  1.00  0.00     0.046 A 
HETATM   16  C13 UNL     1      27.553   0.337  53.802  1.00  0.00     0.138 A 
HETATM   17  F1  UNL     1      27.940  -0.384  54.873  1.00  0.00    -0.204 F 
HETATM   18  C14 UNL     1      27.112  -0.348  52.701  1.00  0.00     0.074 A 
HETATM   19 CL1  UNL     1      27.069  -2.113  52.724  1.00  0.00    -0.081 Cl
HETATM   20  C15 UNL     1      26.694   0.274  51.550  1.00  0.00     0.056 A 
ENDBRANCH  11  13
ENDBRANCH   2  11
BRANCH   1  21
HETATM   21  N1  UNL     1      23.761   2.714  50.801  1.00  0.00    -0.359 N 
HETATM   22  H12 UNL     1      23.680   1.868  50.212  1.00  0.00     0.162 HD
BRANCH  21  23
HETATM   23  C6  UNL     1      23.138   2.867  52.072  1.00  0.00     0.159 C 
HETATM   24  C7  UNL     1      23.776   3.981  52.863  1.00  0.00     0.046 C 
BRANCH  23  25
HETATM   25  C5  UNL     1      23.288   1.566  52.767  1.00  0.00    -0.082 C 
HETATM   26  C4  UNL     1      23.429   0.511  53.335  1.00  0.00    -0.104 C 
BRANCH  26  27
HETATM   27  C3  UNL     1      23.622  -0.771  54.040  1.00  0.00     0.093 C 
BRANCH  27  28
HETATM   28  C2  UNL     1      22.421  -1.047  54.951  1.00  0.00     0.007 C 
HETATM   29  C1  UNL     1      21.114  -0.952  54.239  1.00  0.00     0.006 C 
ENDBRANCH  27  28
ENDBRANCH  26  27
ENDBRANCH  23  25
ENDBRANCH  21  23
ENDBRANCH   1  21
TORSDOF 7
ENDMDL
MODEL 4
REMARK VINA RESULT:      -7.7      4.111      6.450
REMARK  7 active torsions:
REMARK  status: ('A' for Active; 'I' for Inactive)
REMARK    1  A    between atoms: C2_2  and  C3_3 
REMARK    2  A    between atoms: C3_3  and  C4_4 
REMARK    3  A    between atoms: C5_5  and  C6_6 
REMARK    4  A    between atoms: C6_6  and  N1_8 
REMARK    5  A    between atoms: N1_8  and  C8_9 
REMARK    6  A    between atoms: C9_10  and  N2_11 
REMARK    7  A    between atoms: N2_11  and  C10_12 
ROOT
HETATM    1  C8  UNL     1      22.441   0.967  51.476  1.00  0.00     0.136 C 
HETATM    2  C9  UNL     1      22.698   0.721  52.773  1.00  0.00     0.172 C 
HETATM    3  N3  UNL     1      22.521   0.220  54.070  1.00  0.00    -0.221 NA
HETATM    4  C16 UNL     1      21.455  -0.145  54.656  1.00  0.00     0.237 C 
HETATM    5  N4  UNL     1      20.137  -0.113  54.054  1.00  0.00    -0.230 NA
HETATM    6  C17 UNL     1      19.773  -1.142  53.315  1.00  0.00     0.252 C 
HETATM    7  O1  UNL     1      18.519  -0.490  53.080  1.00  0.00    -0.343 OA
HETATM    8  C18 UNL     1      18.617   0.256  51.827  1.00  0.00     0.206 C 
HETATM    9  C19 UNL     1      20.068   0.663  51.677  1.00  0.00     0.327 C 
HETATM   10  N5  UNL     1      21.253   0.222  51.642  1.00  0.00    -0.390 NA
ENDROOT
BRANCH   2  11
HETATM   11  N2  UNL     1      23.942   1.317  53.198  1.00  0.00    -0.338 N 
HETATM   12  H13 UNL     1      23.691   2.276  53.580  1.00  0.00     0.167 HD
BRANCH  11  13
HETATM   13  C10 UNL     1      25.306   0.873  53.190  1.00  0.00     0.035 A 
HETATM   14  C11 UNL     1      25.551  -0.463  52.939  1.00  0.00     0.032 A 
HETATM   15  C12 UNL     1      26.885  -0.805  52.951  1.00  0.00     0.046 A 
HETATM   16  C13 UNL     1      27.909   0.071  53.187  1.00  0.00     0.138 A 
HETATM   17  F1  UNL     1      29.221  -0.237  53.207  1.00  0.00    -0.204 F 
HETATM   18  C14 UNL     1      27.559   1.373  53.425  1.00  0.00     0.074 A 
HETATM   19 CL1  UNL     1      28.813   2.576  53.743  1.00  0.00    -0.081 Cl
HETATM   20  C15 UNL     1      26.257   1.809  53.434  1.00  0.00     0.056 A 
ENDBRANCH  11  13
ENDBRANCH   2  11
BRANCH   1  21
HETATM   21  N1  UNL     1      23.318   1.721  50.690  1.00  0.00    -0.359 N 
HETATM   22  H12 UNL     1      24.326   1.495  50.743  1.00  0.00     0.162 HD
BRANCH  21  23
HETATM   23  C6  UNL     1      22.769   2.748  49.872  1.00  0.00     0.159 C 
HETATM   24  C7  UNL     1      22.163   2.181  48.613  1.00  0.00     0.046 C 
BRANCH  23  25
HETATM   25  C5  UNL     1      23.887   3.669  49.558  1.00  0.00    -0.082 C 
HETATM   26  C4  UNL     1      24.794   4.417  49.283  1.00  0.00    -0.104 C 
BRANCH  26  27
HETATM   27  C3  UNL     1      25.893   5.334  48.924  1.00  0.00     0.093 C 
BRANCH  27  28
HETATM   28  C2  UNL     1      27.224   4.573  48.927  1.00  0.00     0.007 C 
HETATM   29  C1  UNL     1      28.366   5.393  48.430  1.00  0.00     0.006 C 
ENDBRANCH  27  28
ENDBRANCH  26  27
ENDBRANCH  23  25
ENDBRANCH  21  23
ENDBRANCH   1  21
TORSDOF 7
ENDMDL
MODEL 5
REMARK VINA RESULT:      -7.5      4.656      7.737
REMARK  7 active torsions:
REMARK  status: ('A' for Active; 'I' for Inactive)
REMARK    1  A    between atoms: C2_2  and  C3_3 
REMARK    2  A    between atoms: C3_3  and  C4_4 
REMARK    3  A    between atoms: C5_5  and  C6_6 
REMARK    4  A    between atoms: C6_6  and  N1_8 
REMARK    5  A    between atoms: N1_8  and  C8_9 
REMARK    6  A    between atoms: C9_10  and  N2_11 
REMARK    7  A    between atoms: N2_11  and  C10_12 
ROOT
HETATM    1  C8  UNL     1      25.478   2.582  51.669  1.00  0.00     0.136 C 
HETATM    2  C9  UNL     1      25.023   2.945  50.456  1.00  0.00     0.172 C 
HETATM    3  N3  UNL     1      24.115   3.168  49.413  1.00  0.00    -0.221 NA
HETATM    4  C16 UNL     1      22.974   2.648  49.211  1.00  0.00     0.237 C 
HETATM    5  N4  UNL     1      22.355   1.667  50.079  1.00  0.00    -0.230 NA
HETATM    6  C17 UNL     1      21.681   2.105  51.122  1.00  0.00     0.252 C 
HETATM    7  O1  UNL     1      21.396   0.746  51.472  1.00  0.00    -0.343 OA
HETATM    8  C18 UNL     1      22.404   0.297  52.430  1.00  0.00     0.206 C 
HETATM    9  C19 UNL     1      23.669   1.070  52.121  1.00  0.00     0.327 C 
HETATM   10  N5  UNL     1      24.148   2.233  51.988  1.00  0.00    -0.390 NA
ENDROOT
BRANCH   2  11
HETATM   11  N2  UNL     1      26.082   3.441  49.610  1.00  0.00    -0.338 N 
HETATM   12  H13 UNL     1      26.548   2.583  49.192  1.00  0.00     0.167 HD
BRANCH  11  13
HETATM   13  C10 UNL     1      26.551   4.754  49.279  1.00  0.00     0.035 A 
HETATM   14  C11 UNL     1      27.732   4.861  48.568  1.00  0.00     0.032 A 
HETATM   15  C12 UNL     1      28.111   6.156  48.294  1.00  0.00     0.046 A 
HETATM   16  C13 UNL     1      27.410   7.268  48.672  1.00  0.00     0.138 A 
HETATM   17  F1  UNL     1      27.759   8.545  48.418  1.00  0.00    -0.204 F 
HETATM   18  C14 UNL     1      26.252   7.053  49.372  1.00  0.00     0.074 A 
HETATM   19 CL1  UNL     1      25.281   8.428  49.905  1.00  0.00    -0.081 Cl
HETATM   20  C15 UNL     1      25.793   5.800  49.693  1.00  0.00     0.056 A 
ENDBRANCH  11  13
ENDBRANCH   2  11
BRANCH   1  21
HETATM   21  N1  UNL     1      26.831   2.696  52.003  1.00  0.00    -0.359 N 
HETATM   22  H12 UNL     1      27.446   3.209  51.349  1.00  0.00     0.162 HD
BRANCH  21  23
HETATM   23  C6  UNL     1      27.273   2.099  53.217  1.00  0.00     0.159 C 
HETATM   24  C7  UNL     1      28.663   2.558  53.579  1.00  0.00     0.046 C 
BRANCH  23  25
HETATM   25  C5  UNL     1      27.237   0.634  52.995  1.00  0.00    -0.082 C 
HETATM   26  C4  UNL     1      27.190  -0.560  52.823  1.00  0.00    -0.104 C 
BRANCH  26  27
HETATM   27  C3  UNL     1      27.109  -2.018  52.618  1.00  0.00     0.093 C 
BRANCH  27  28
HETATM   28  C2  UNL     1      28.471  -2.659  52.904  1.00  0.00     0.007 C 
HETATM   29  C1  UNL     1      29.474  -1.688  53.429  1.00  0.00     0.006 C 
ENDBRANCH  27  28
ENDBRANCH  26  27
ENDBRANCH  23  25
ENDBRANCH  21  23
ENDBRANCH   1  21
TORSDOF 7
ENDMDL
MODEL 6
REMARK VINA RESULT:      -7.4      2.793      3.549
REMARK  7 active torsions:
REMARK  status: ('A' for Active; 'I' for Inactive)
REMARK    1  A    between atoms: C2_2  and  C3_3 
REMARK    2  A    between atoms: C3_3  and  C4_4 
REMARK    3  A    between atoms: C5_5  and  C6_6 
REMARK    4  A    between atoms: C6_6  and  N1_8 
REMARK    5  A    between atoms: N1_8  and  C8_9 
REMARK    6  A    between atoms: C9_10  and  N2_11 
REMARK    7  A    between atoms: N2_11  and  C10_12 
ROOT
HETATM    1  C8  UNL     1      25.350   1.860  51.697  1.00  0.00     0.136 C 
HETATM    2  C9  UNL     1      24.473   1.023  52.280  1.00  0.00     0.172 C 
HETATM    3  N3  UNL     1      23.944   0.131  53.223  1.00  0.00    -0.221 NA
HETATM    4  C16 UNL     1      24.545  -0.592  54.077  1.00  0.00     0.237 C 
HETATM    5  N4  UNL     1      25.983  -0.631  54.250  1.00  0.00    -0.230 NA
HETATM    6  C17 UNL     1      26.536   0.283  55.022  1.00  0.00     0.252 C 
HETATM    7  O1  UNL     1      27.814  -0.304  54.751  1.00  0.00    -0.343 OA
HETATM    8  C18 UNL     1      28.420   0.412  53.629  1.00  0.00     0.206 C 
HETATM    9  C19 UNL     1      27.279   0.913  52.769  1.00  0.00     0.327 C 
HETATM   10  N5  UNL     1      26.215   1.598  52.782  1.00  0.00    -0.390 NA
ENDROOT
BRANCH   2  11
HETATM   11  N2  UNL     1      23.257   0.896  51.513  1.00  0.00    -0.338 N 
HETATM   12  H13 UNL     1      23.491   0.256  50.698  1.00  0.00     0.167 HD
BRANCH  11  13
HETATM   13  C10 UNL     1      21.935   1.432  51.657  1.00  0.00     0.035 A 
HETATM   14  C11 UNL     1      21.798   2.664  52.269  1.00  0.00     0.032 A 
HETATM   15  C12 UNL     1      20.498   3.104  52.368  1.00  0.00     0.046 A 
HETATM   16  C13 UNL     1      19.407   2.414  51.914  1.00  0.00     0.138 A 
HETATM   17  F1  UNL     1      18.125   2.821  52.000  1.00  0.00    -0.204 F 
HETATM   18  C14 UNL     1      19.651   1.203  51.322  1.00  0.00     0.074 A 
HETATM   19 CL1  UNL     1      18.305   0.239  50.708  1.00  0.00    -0.081 Cl
HETATM   20  C15 UNL     1      20.912   0.681  51.178  1.00  0.00     0.056 A 
ENDBRANCH  11  13
ENDBRANCH   2  11
BRANCH   1  21
HETATM   21  N1  UNL     1      25.054   2.497  50.488  1.00  0.00    -0.359 N 
HETATM   22  H12 UNL     1      24.893   1.902  49.658  1.00  0.00     0.162 HD
BRANCH  21  23
HETATM   23  C6  UNL     1      24.996   3.919  50.479  1.00  0.00     0.159 C 
HETATM   24  C7  UNL     1      23.736   4.411  49.814  1.00  0.00     0.046 C 
BRANCH  23  25
HETATM   25  C5  UNL     1      26.200   4.378  49.746  1.00  0.00    -0.082 C 
HETATM   26  C4  UNL     1      27.169   4.761  49.137  1.00  0.00    -0.104 C 
BRANCH  26  27
HETATM   27  C3  UNL     1      28.339   5.246  48.381  1.00  0.00     0.093 C 
BRANCH  27  28
HETATM   28  C2  UNL     1      28.035   6.623  47.783  1.00  0.00     0.007 C 
HETATM   29  C1  UNL     1      27.597   7.619  48.803  1.00  0.00     0.006 C 
ENDBRANCH  27  28
ENDBRANCH  26  27
ENDBRANCH  23  25
ENDBRANCH  21  23
ENDBRANCH   1  21
TORSDOF 7
ENDMDL
MODEL 7
REMARK VINA RESULT:      -7.4      1.815      2.298
REMARK  7 active torsions:
REMARK  status: ('A' for Active; 'I' for Inactive)
REMARK    1  A    between atoms: C2_2  and  C3_3 
REMARK    2  A    between atoms: C3_3  and  C4_4 
REMARK    3  A    between atoms: C5_5  and  C6_6 
REMARK    4  A    between atoms: C6_6  and  N1_8 
REMARK    5  A    between atoms: N1_8  and  C8_9 
REMARK    6  A    between atoms: C9_10  and  N2_11 
REMARK    7  A    between atoms: N2_11  and  C10_12 
ROOT
HETATM    1  C8  UNL     1      25.550   2.520  52.452  1.00  0.00     0.136 C 
HETATM    2  C9  UNL     1      24.748   1.455  52.631  1.00  0.00     0.172 C 
HETATM    3  N3  UNL     1      24.263   0.260  53.180  1.00  0.00    -0.221 NA
HETATM    4  C16 UNL     1      24.878  -0.630  53.845  1.00  0.00     0.237 C 
HETATM    5  N4  UNL     1      26.284  -0.573  54.187  1.00  0.00    -0.230 NA
HETATM    6  C17 UNL     1      26.629   0.100  55.266  1.00  0.00     0.252 C 
HETATM    7  O1  UNL     1      27.996  -0.235  55.001  1.00  0.00    -0.343 OA
HETATM    8  C18 UNL     1      28.598   0.860  54.241  1.00  0.00     0.206 C 
HETATM    9  C19 UNL     1      27.483   1.487  53.431  1.00  0.00     0.327 C 
HETATM   10  N5  UNL     1      26.338   2.018  53.510  1.00  0.00    -0.390 NA
ENDROOT
BRANCH   2  11
HETATM   11  N2  UNL     1      23.639   1.454  51.708  1.00  0.00    -0.338 N 
HETATM   12  H13 UNL     1      24.024   1.088  50.788  1.00  0.00     0.167 HD
BRANCH  11  13
HETATM   13  C10 UNL     1      22.258   1.823  51.819  1.00  0.00     0.035 A 
HETATM   14  C11 UNL     1      21.961   3.133  52.148  1.00  0.00     0.032 A 
HETATM   15  C12 UNL     1      20.614   3.402  52.235  1.00  0.00     0.046 A 
HETATM   16  C13 UNL     1      19.622   2.483  52.023  1.00  0.00     0.138 A 
HETATM   17  F1  UNL     1      18.298   2.720  52.104  1.00  0.00    -0.204 F 
HETATM   18  C14 UNL     1      20.022   1.213  51.703  1.00  0.00     0.074 A 
HETATM   19 CL1  UNL     1      18.813  -0.041  51.414  1.00  0.00    -0.081 Cl
HETATM   20  C15 UNL     1      21.341   0.849  51.592  1.00  0.00     0.056 A 
ENDBRANCH  11  13
ENDBRANCH   2  11
BRANCH   1  21
HETATM   21  N1  UNL     1      25.281   3.475  51.466  1.00  0.00    -0.359 N 
HETATM   22  H12 UNL     1      24.878   4.378  51.768  1.00  0.00     0.162 HD
BRANCH  21  23
HETATM   23  C6  UNL     1      25.578   3.142  50.115  1.00  0.00     0.159 C 
HETATM   24  C7  UNL     1      26.748   3.940  49.597  1.00  0.00     0.046 C 
BRANCH  23  25
HETATM   25  C5  UNL     1      24.349   3.433  49.337  1.00  0.00    -0.082 C 
HETATM   26  C4  UNL     1      23.353   3.654  48.694  1.00  0.00    -0.104 C 
BRANCH  26  27
HETATM   27  C3  UNL     1      22.134   3.900  47.899  1.00  0.00     0.093 C 
BRANCH  27  28
HETATM   28  C2  UNL     1      21.100   2.806  48.183  1.00  0.00     0.007 C 
HETATM   29  C1  UNL     1      21.684   1.434  48.174  1.00  0.00     0.006 C 
ENDBRANCH  27  28
ENDBRANCH  26  27
ENDBRANCH  23  25
ENDBRANCH  21  23
ENDBRANCH   1  21
TORSDOF 7
ENDMDL
MODEL 8
REMARK VINA RESULT:      -7.2      9.278     11.651
REMARK  7 active torsions:
REMARK  status: ('A' for Active; 'I' for Inactive)
REMARK    1  A    between atoms: C2_2  and  C3_3 
REMARK    2  A    between atoms: C3_3  and  C4_4 
REMARK    3  A    between atoms: C5_5  and  C6_6 
REMARK    4  A    between atoms: C6_6  and  N1_8 
REMARK    5  A    between atoms: N1_8  and  C8_9 
REMARK    6  A    between atoms: C9_10  and  N2_11 
REMARK    7  A    between atoms: N2_11  and  C10_12 
ROOT
HETATM    1  C8  UNL     1      28.095   9.157  49.460  1.00  0.00     0.136 C 
HETATM    2  C9  UNL     1      29.392   9.512  49.417  1.00  0.00     0.172 C 
HETATM    3  N3  UNL     1      30.520  10.341  49.339  1.00  0.00    -0.221 NA
HETATM    4  C16 UNL     1      30.625  11.520  48.879  1.00  0.00     0.237 C 
HETATM    5  N4  UNL     1      29.528  12.281  48.316  1.00  0.00    -0.230 NA
HETATM    6  C17 UNL     1      28.755  12.953  49.145  1.00  0.00     0.252 C 
HETATM    7  O1  UNL     1      27.988  13.399  48.021  1.00  0.00    -0.343 OA
HETATM    8  C18 UNL     1      26.854  12.491  47.849  1.00  0.00     0.206 C 
HETATM    9  C19 UNL     1      27.304  11.138  48.358  1.00  0.00     0.327 C 
HETATM   10  N5  UNL     1      27.787  10.532  49.357  1.00  0.00    -0.390 NA
ENDROOT
BRANCH   2  11
HETATM   11  N2  UNL     1      30.267   8.368  49.496  1.00  0.00    -0.338 N 
HETATM   12  H13 UNL     1      30.126   7.958  50.466  1.00  0.00     0.167 HD
BRANCH  11  13
HETATM   13  C10 UNL     1      31.191   7.763  48.581  1.00  0.00     0.035 A 
HETATM   14  C11 UNL     1      30.712   7.358  47.349  1.00  0.00     0.032 A 
HETATM   15  C12 UNL     1      31.663   6.787  46.534  1.00  0.00     0.046 A 
HETATM   16  C13 UNL     1      32.977   6.615  46.874  1.00  0.00     0.138 A 
HETATM   17  F1  UNL     1      33.926   6.058  46.096  1.00  0.00    -0.204 F 
HETATM   18  C14 UNL     1      33.350   7.050  48.118  1.00  0.00     0.074 A 
HETATM   19 CL1  UNL     1      35.025   6.868  48.646  1.00  0.00    -0.081 Cl
HETATM   20  C15 UNL     1      32.474   7.632  49.001  1.00  0.00     0.056 A 
ENDBRANCH  11  13
ENDBRANCH   2  11
BRANCH   1  21
HETATM   21  N1  UNL     1      27.711   7.817  49.569  1.00  0.00    -0.359 N 
HETATM   22  H12 UNL     1      27.699   7.396  50.514  1.00  0.00     0.162 HD
BRANCH  21  23
HETATM   23  C6  UNL     1      27.364   7.122  48.377  1.00  0.00     0.159 C 
HETATM   24  C7  UNL     1      26.165   7.747  47.708  1.00  0.00     0.046 C 
BRANCH  23  25
HETATM   25  C5  UNL     1      27.081   5.724  48.780  1.00  0.00    -0.082 C 
HETATM   26  C4  UNL     1      26.841   4.583  49.092  1.00  0.00    -0.104 C 
BRANCH  26  27
HETATM   27  C3  UNL     1      26.541   3.184  49.450  1.00  0.00     0.093 C 
BRANCH  27  28
HETATM   28  C2  UNL     1      25.212   3.117  50.211  1.00  0.00     0.007 C 
HETATM   29  C1  UNL     1      24.029   3.393  49.347  1.00  0.00     0.006 C 
ENDBRANCH  27  28
ENDBRANCH  26  27
ENDBRANCH  23  25
ENDBRANCH  21  23
ENDBRANCH   1  21
TORSDOF 7
ENDMDL
MODEL 9
REMARK VINA RESULT:      -7.2      4.468      6.876
REMARK  7 active torsions:
REMARK  status: ('A' for Active; 'I' for Inactive)
REMARK    1  A    between atoms: C2_2  and  C3_3 
REMARK    2  A    between atoms: C3_3  and  C4_4 
REMARK    3  A    between atoms: C5_5  and  C6_6 
REMARK    4  A    between atoms: C6_6  and  N1_8 
REMARK    5  A    between atoms: N1_8  and  C8_9 
REMARK    6  A    between atoms: C9_10  and  N2_11 
REMARK    7  A    between atoms: N2_11  and  C10_12 
ROOT
HETATM    1  C8  UNL     1      23.925   2.790  52.443  1.00  0.00     0.136 C 
HETATM    2  C9  UNL     1      22.870   3.601  52.243  1.00  0.00     0.172 C 
HETATM    3  N3  UNL     1      21.537   4.033  52.226  1.00  0.00    -0.221 NA
HETATM    4  C16 UNL     1      20.466   3.350  52.223  1.00  0.00     0.237 C 
HETATM    5  N4  UNL     1      20.418   1.902  52.243  1.00  0.00    -0.230 NA
HETATM    6  C17 UNL     1      20.492   1.299  53.413  1.00  0.00     0.252 C 
HETATM    7  O1  UNL     1      20.399   0.040  52.735  1.00  0.00    -0.343 OA
HETATM    8  C18 UNL     1      21.754  -0.456  52.500  1.00  0.00     0.206 C 
HETATM    9  C19 UNL     1      22.642   0.762  52.358  1.00  0.00     0.327 C 
HETATM   10  N5  UNL     1      23.008   1.831  52.927  1.00  0.00    -0.390 NA
ENDROOT
BRANCH   2  11
HETATM   11  N2  UNL     1      23.266   4.876  51.696  1.00  0.00    -0.338 N 
HETATM   12  H13 UNL     1      23.623   5.448  52.516  1.00  0.00     0.167 HD
BRANCH  11  13
HETATM   13  C10 UNL     1      23.258   5.431  50.374  1.00  0.00     0.035 A 
HETATM   14  C11 UNL     1      23.223   4.557  49.303  1.00  0.00     0.032 A 
HETATM   15  C12 UNL     1      23.219   5.172  48.072  1.00  0.00     0.046 A 
HETATM   16  C13 UNL     1      23.245   6.526  47.879  1.00  0.00     0.138 A 
HETATM   17  F1  UNL     1      23.243   7.153  46.686  1.00  0.00    -0.204 F 
HETATM   18  C14 UNL     1      23.278   7.305  49.005  1.00  0.00     0.074 A 
HETATM   19 CL1  UNL     1      23.317   9.063  48.856  1.00  0.00    -0.081 Cl
HETATM   20  C15 UNL     1      23.285   6.784  50.275  1.00  0.00     0.056 A 
ENDBRANCH  11  13
ENDBRANCH   2  11
BRANCH   1  21
HETATM   21  N1  UNL     1      25.225   3.199  52.133  1.00  0.00    -0.359 N 
HETATM   22  H12 UNL     1      25.593   4.039  52.611  1.00  0.00     0.162 HD
BRANCH  21  23
HETATM   23  C6  UNL     1      25.957   2.435  51.180  1.00  0.00     0.159 C 
HETATM   24  C7  UNL     1      27.043   1.627  51.844  1.00  0.00     0.046 C 
BRANCH  23  25
HETATM   25  C5  UNL     1      26.527   3.408  50.219  1.00  0.00    -0.082 C 
HETATM   26  C4  UNL     1      26.977   4.212  49.440  1.00  0.00    -0.104 C 
BRANCH  26  27
HETATM   27  C3  UNL     1      27.514   5.214  48.499  1.00  0.00     0.093 C 
BRANCH  27  28
HETATM   28  C2  UNL     1      26.906   6.588  48.801  1.00  0.00     0.007 C 
HETATM   29  C1  UNL     1      26.783   7.452  47.592  1.00  0.00     0.006 C 
ENDBRANCH  27  28
ENDBRANCH  26  27
ENDBRANCH  23  25
ENDBRANCH  21  23
ENDBRANCH   1  21
TORSDOF 7
ENDMDL
