MODEL 1
REMARK VINA RESULT:      -8.4      0.000      0.000
REMARK  1 active torsions:
REMARK  status: ('A' for Active; 'I' for Inactive)
REMARK    1  A    between atoms: C14_19  and  N4_20 
ROOT
HETATM    1  C1  UNL     1      26.379   0.098  51.811  1.00  0.00     0.044 C 
HETATM    2  C2  UNL     1      26.689   0.872  52.849  1.00  0.00    -0.020 C 
HETATM    3  C3  UNL     1      27.887   1.756  52.908  1.00  0.00     0.076 C 
HETATM    4  N1  UNL     1      27.706   2.497  51.886  1.00  0.00    -0.244 NA
HETATM    5  C4  UNL     1      26.567   2.341  51.037  1.00  0.00     0.229 C 
HETATM    6  N2  UNL     1      25.670   2.803  51.806  1.00  0.00    -0.263 NA
HETATM    7  C5  UNL     1      24.270   2.933  51.554  1.00  0.00     0.272 C 
HETATM    8  N3  UNL     1      23.471   2.613  52.739  1.00  0.00    -0.371 N 
HETATM    9  C6  UNL     1      23.618   1.286  53.297  1.00  0.00     0.038 A 
HETATM   10  C7  UNL     1      24.554   0.517  53.883  1.00  0.00     0.017 A 
HETATM   11  C8  UNL     1      24.031  -0.850  54.249  1.00  0.00     0.233 A 
HETATM   12  F1  UNL     1      24.049  -0.863  55.648  1.00  0.00    -0.240 F 
HETATM   13  C9  UNL     1      22.644  -0.765  53.788  1.00  0.00    -0.044 A 
HETATM   14  C10 UNL     1      21.871  -1.986  54.021  1.00  0.00     0.047 C 
HETATM   15  C11 UNL     1      22.426   0.429  53.260  1.00  0.00     0.035 A 
HETATM   16  C12 UNL     1      25.917   1.002  54.121  1.00  0.00     0.187 C 
HETATM   17  O1  UNL     1      26.619   0.286  55.054  1.00  0.00    -0.374 OA
HETATM   18  C13 UNL     1      27.919   0.102  54.689  1.00  0.00     0.210 C 
HETATM   19  C14 UNL     1      28.609   1.283  54.108  1.00  0.00     0.293 C 
HETATM   20  H6  UNL     1      22.782   3.250  53.245  1.00  0.00     0.161 HD
ENDROOT
BRANCH  19  21
HETATM   21  N4  UNL     1      29.935   0.843  53.693  1.00  0.00     0.090 N 
HETATM   22  H16 UNL     1      29.939  -0.200  53.724  1.00  0.00     0.313 HD
HETATM   23  H17 UNL     1      30.108   1.239  52.742  1.00  0.00     0.313 HD
ENDBRANCH  19  21
TORSDOF 1
ENDMDL
MODEL 2
REMARK VINA RESULT:      -8.3      2.225      3.579
REMARK  1 active torsions:
REMARK  status: ('A' for Active; 'I' for Inactive)
REMARK    1  A    between atoms: C14_19  and  N4_20 
ROOT
HETATM    1  C1  UNL     1      25.436   2.764  53.648  1.00  0.00     0.044 C 
HETATM    2  C2  UNL     1      25.652   2.261  52.434  1.00  0.00    -0.020 C 
HETATM    3  C3  UNL     1      26.765   2.683  51.538  1.00  0.00     0.076 C 
HETATM    4  N1  UNL     1      27.783   2.441  52.267  1.00  0.00    -0.244 NA
HETATM    5  C4  UNL     1      27.654   1.900  53.584  1.00  0.00     0.229 C 
HETATM    6  N2  UNL     1      27.307   0.716  53.288  1.00  0.00    -0.263 NA
HETATM    7  C5  UNL     1      27.012  -0.365  54.174  1.00  0.00     0.272 C 
HETATM    8  N3  UNL     1      25.882  -1.167  53.699  1.00  0.00    -0.371 N 
HETATM    9  C6  UNL     1      24.616  -0.485  53.523  1.00  0.00     0.038 A 
HETATM   10  C7  UNL     1      24.071   0.489  52.773  1.00  0.00     0.017 A 
HETATM   11  C8  UNL     1      22.620   0.730  53.108  1.00  0.00     0.233 A 
HETATM   12  F1  UNL     1      21.930   0.329  51.958  1.00  0.00    -0.240 F 
HETATM   13  C9  UNL     1      22.397  -0.253  54.169  1.00  0.00    -0.044 A 
HETATM   14  C10 UNL     1      21.034  -0.246  54.700  1.00  0.00     0.047 C 
HETATM   15  C11 UNL     1      23.517  -0.924  54.391  1.00  0.00     0.035 A 
HETATM   16  C12 UNL     1      24.843   1.207  51.753  1.00  0.00     0.187 C 
HETATM   17  O1  UNL     1      24.083   1.866  50.825  1.00  0.00    -0.374 OA
HETATM   18  C13 UNL     1      24.600   3.086  50.510  1.00  0.00     0.210 C 
HETATM   19  C14 UNL     1      26.073   3.142  50.316  1.00  0.00     0.293 C 
HETATM   20  H6  UNL     1      25.879  -2.207  53.465  1.00  0.00     0.161 HD
ENDROOT
BRANCH  19  21
HETATM   21  N4  UNL     1      26.422   4.540  50.097  1.00  0.00     0.090 N 
HETATM   22  H16 UNL     1      25.529   5.073  50.009  1.00  0.00     0.313 HD
HETATM   23  H17 UNL     1      27.017   4.839  50.902  1.00  0.00     0.313 HD
ENDBRANCH  19  21
TORSDOF 1
ENDMDL
MODEL 3
REMARK VINA RESULT:      -7.5      3.094      5.068
REMARK  1 active torsions:
REMARK  status: ('A' for Active; 'I' for Inactive)
REMARK    1  A    between atoms: C14_19  and  N4_20 
ROOT
HETATM    1  C1  UNL     1      24.331   3.286  52.961  1.00  0.00     0.044 C 
HETATM    2  C2  UNL     1      25.040   2.271  52.469  1.00  0.00    -0.020 C 
HETATM    3  C3  UNL     1      25.285   0.992  53.192  1.00  0.00     0.076 C 
HETATM    4  N1  UNL     1      24.095   0.591  53.410  1.00  0.00    -0.244 NA
HETATM    5  C4  UNL     1      22.957   1.342  52.978  1.00  0.00     0.229 C 
HETATM    6  N2  UNL     1      23.035   1.136  51.729  1.00  0.00    -0.263 NA
HETATM    7  C5  UNL     1      22.173   1.621  50.698  1.00  0.00     0.272 C 
HETATM    8  N3  UNL     1      22.920   2.000  49.496  1.00  0.00    -0.371 N 
HETATM    9  C6  UNL     1      23.928   3.029  49.642  1.00  0.00     0.038 A 
HETATM   10  C7  UNL     1      25.097   3.239  50.275  1.00  0.00     0.017 A 
HETATM   11  C8  UNL     1      25.669   4.606  49.990  1.00  0.00     0.233 A 
HETATM   12  F1  UNL     1      26.836   4.345  49.262  1.00  0.00    -0.240 F 
HETATM   13  C9  UNL     1      24.658   5.165  49.092  1.00  0.00    -0.044 A 
HETATM   14  C10 UNL     1      24.959   6.524  48.640  1.00  0.00     0.047 C 
HETATM   15  C11 UNL     1      23.693   4.278  48.906  1.00  0.00     0.035 A 
HETATM   16  C12 UNL     1      25.707   2.219  51.134  1.00  0.00     0.187 C 
HETATM   17  O1  UNL     1      27.041   2.408  51.380  1.00  0.00    -0.374 OA
HETATM   18  C13 UNL     1      27.370   2.128  52.672  1.00  0.00     0.210 C 
HETATM   19  C14 UNL     1      26.760   0.904  53.252  1.00  0.00     0.293 C 
HETATM   20  H6  UNL     1      22.807   1.604  48.513  1.00  0.00     0.161 HD
ENDROOT
BRANCH  19  21
HETATM   21  N4  UNL     1      27.152   0.853  54.655  1.00  0.00     0.090 N 
HETATM   22  H16 UNL     1      26.818  -0.058  55.038  1.00  0.00     0.313 HD
HETATM   23  H17 UNL     1      28.190   0.973  54.689  1.00  0.00     0.313 HD
ENDBRANCH  19  21
TORSDOF 1
ENDMDL
MODEL 4
REMARK VINA RESULT:      -7.2      2.058      4.802
REMARK  1 active torsions:
REMARK  status: ('A' for Active; 'I' for Inactive)
REMARK    1  A    between atoms: C14_19  and  N4_20 
ROOT
HETATM    1  C1  UNL     1      24.146   3.330  53.415  1.00  0.00     0.044 C 
HETATM    2  C2  UNL     1      23.610   2.462  52.558  1.00  0.00    -0.020 C 
HETATM    3  C3  UNL     1      22.372   2.719  51.770  1.00  0.00     0.076 C 
HETATM    4  N1  UNL     1      22.690   3.778  51.134  1.00  0.00    -0.244 NA
HETATM    5  C4  UNL     1      23.971   4.393  51.292  1.00  0.00     0.229 C 
HETATM    6  N2  UNL     1      24.686   3.542  50.679  1.00  0.00    -0.263 NA
HETATM    7  C5  UNL     1      26.099   3.564  50.468  1.00  0.00     0.272 C 
HETATM    8  N3  UNL     1      26.689   2.229  50.592  1.00  0.00    -0.371 N 
HETATM    9  C6  UNL     1      26.521   1.547  51.857  1.00  0.00     0.038 A 
HETATM   10  C7  UNL     1      25.540   1.041  52.628  1.00  0.00     0.017 A 
HETATM   11  C8  UNL     1      26.068   0.427  53.901  1.00  0.00     0.233 A 
HETATM   12  F1  UNL     1      25.798  -0.940  53.761  1.00  0.00    -0.240 F 
HETATM   13  C9  UNL     1      27.508   0.649  53.759  1.00  0.00    -0.044 A 
HETATM   14  C10 UNL     1      28.296   0.139  54.882  1.00  0.00     0.047 C 
HETATM   15  C11 UNL     1      27.747   1.273  52.616  1.00  0.00     0.035 A 
HETATM   16  C12 UNL     1      24.131   1.102  52.229  1.00  0.00     0.187 C 
HETATM   17  O1  UNL     1      23.315   0.224  52.891  1.00  0.00    -0.374 OA
HETATM   18  C13 UNL     1      22.115   0.782  53.216  1.00  0.00     0.210 C 
HETATM   19  C14 UNL     1      21.474   1.613  52.163  1.00  0.00     0.293 C 
HETATM   20  H6  UNL     1      27.237   1.694  49.851  1.00  0.00     0.161 HD
ENDROOT
BRANCH  19  21
HETATM   21  N4  UNL     1      20.272   2.193  52.750  1.00  0.00     0.090 N 
HETATM   22  H16 UNL     1      19.453   1.781  52.250  1.00  0.00     0.313 HD
HETATM   23  H17 UNL     1      20.294   1.980  53.772  1.00  0.00     0.313 HD
ENDBRANCH  19  21
TORSDOF 1
ENDMDL
MODEL 5
REMARK VINA RESULT:      -7.1      3.183      5.200
REMARK  1 active torsions:
REMARK  status: ('A' for Active; 'I' for Inactive)
REMARK    1  A    between atoms: C14_19  and  N4_20 
ROOT
HETATM    1  C1  UNL     1      22.979   1.732  50.728  1.00  0.00     0.044 C 
HETATM    2  C2  UNL     1      22.698   2.446  51.817  1.00  0.00    -0.020 C 
HETATM    3  C3  UNL     1      21.516   3.343  51.948  1.00  0.00     0.076 C 
HETATM    4  N1  UNL     1      20.556   2.533  51.732  1.00  0.00    -0.244 NA
HETATM    5  C4  UNL     1      20.788   1.150  51.454  1.00  0.00     0.229 C 
HETATM    6  N2  UNL     1      21.149   0.764  52.608  1.00  0.00    -0.263 NA
HETATM    7  C5  UNL     1      21.532  -0.549  53.021  1.00  0.00     0.272 C 
HETATM    8  N3  UNL     1      22.651  -0.518  53.966  1.00  0.00    -0.371 N 
HETATM    9  C6  UNL     1      23.882   0.096  53.512  1.00  0.00     0.038 A 
HETATM   10  C7  UNL     1      24.348   1.297  53.124  1.00  0.00     0.017 A 
HETATM   11  C8  UNL     1      25.811   1.255  52.757  1.00  0.00     0.233 A 
HETATM   12  F1  UNL     1      26.434   2.036  53.737  1.00  0.00    -0.240 F 
HETATM   13  C9  UNL     1      26.132  -0.153  52.990  1.00  0.00    -0.044 A 
HETATM   14  C10 UNL     1      27.527  -0.494  52.707  1.00  0.00     0.047 C 
HETATM   15  C11 UNL     1      25.049  -0.789  53.411  1.00  0.00     0.035 A 
HETATM   16  C12 UNL     1      23.489   2.484  53.082  1.00  0.00     0.187 C 
HETATM   17  O1  UNL     1      24.168   3.674  53.059  1.00  0.00    -0.374 OA
HETATM   18  C13 UNL     1      23.595   4.574  52.211  1.00  0.00     0.210 C 
HETATM   19  C14 UNL     1      22.112   4.662  52.253  1.00  0.00     0.293 C 
HETATM   20  H6  UNL     1      22.668  -0.900  54.961  1.00  0.00     0.161 HD
ENDROOT
BRANCH  19  21
HETATM   21  N4  UNL     1      21.709   5.593  51.206  1.00  0.00     0.090 N 
HETATM   22  H16 UNL     1      22.205   5.310  50.332  1.00  0.00     0.313 HD
HETATM   23  H17 UNL     1      20.668   5.546  51.136  1.00  0.00     0.313 HD
ENDBRANCH  19  21
TORSDOF 1
ENDMDL
MODEL 6
REMARK VINA RESULT:      -6.9      3.238      6.377
REMARK  1 active torsions:
REMARK  status: ('A' for Active; 'I' for Inactive)
REMARK    1  A    between atoms: C14_19  and  N4_20 
ROOT
HETATM    1  C1  UNL     1      22.531   1.471  50.517  1.00  0.00     0.044 C 
HETATM    2  C2  UNL     1      22.247   2.239  51.568  1.00  0.00    -0.020 C 
HETATM    3  C3  UNL     1      21.059   2.050  52.447  1.00  0.00     0.076 C 
HETATM    4  N1  UNL     1      21.228   0.853  52.850  1.00  0.00    -0.244 NA
HETATM    5  C4  UNL     1      22.351   0.071  52.434  1.00  0.00     0.229 C 
HETATM    6  N2  UNL     1      23.265   0.658  53.090  1.00  0.00    -0.263 NA
HETATM    7  C5  UNL     1      24.661   0.358  53.120  1.00  0.00     0.272 C 
HETATM    8  N3  UNL     1      25.479   1.573  53.153  1.00  0.00    -0.371 N 
HETATM    9  C6  UNL     1      25.329   2.501  52.052  1.00  0.00     0.038 A 
HETATM   10  C7  UNL     1      24.396   3.301  51.504  1.00  0.00     0.017 A 
HETATM   11  C8  UNL     1      24.913   4.047  50.299  1.00  0.00     0.233 A 
HETATM   12  F1  UNL     1      24.919   5.388  50.700  1.00  0.00    -0.240 F 
HETATM   13  C9  UNL     1      26.292   3.563  50.224  1.00  0.00    -0.044 A 
HETATM   14  C10 UNL     1      27.058   4.135  49.116  1.00  0.00     0.047 C 
HETATM   15  C11 UNL     1      26.512   2.702  51.206  1.00  0.00     0.035 A 
HETATM   16  C12 UNL     1      23.042   3.404  52.057  1.00  0.00     0.187 C 
HETATM   17  O1  UNL     1      22.350   4.517  51.658  1.00  0.00    -0.374 OA
HETATM   18  C13 UNL     1      21.042   4.241  51.393  1.00  0.00     0.210 C 
HETATM   19  C14 UNL     1      20.353   3.347  52.360  1.00  0.00     0.293 C 
HETATM   20  H6  UNL     1      26.182   1.859  53.902  1.00  0.00     0.161 HD
ENDROOT
BRANCH  19  21
HETATM   21  N4  UNL     1      19.016   3.099  51.835  1.00  0.00     0.090 N 
HETATM   22  H16 UNL     1      18.829   2.077  51.932  1.00  0.00     0.313 HD
HETATM   23  H17 UNL     1      18.356   3.703  52.375  1.00  0.00     0.313 HD
ENDBRANCH  19  21
TORSDOF 1
ENDMDL
MODEL 7
REMARK VINA RESULT:      -6.7      2.785      4.176
REMARK  1 active torsions:
REMARK  status: ('A' for Active; 'I' for Inactive)
REMARK    1  A    between atoms: C14_19  and  N4_20 
ROOT
HETATM    1  C1  UNL     1      24.203   3.195  52.989  1.00  0.00     0.044 C 
HETATM    2  C2  UNL     1      24.709   2.565  51.930  1.00  0.00    -0.020 C 
HETATM    3  C3  UNL     1      26.142   2.624  51.526  1.00  0.00     0.076 C 
HETATM    4  N1  UNL     1      26.720   2.187  52.575  1.00  0.00    -0.244 NA
HETATM    5  C4  UNL     1      25.979   1.795  53.733  1.00  0.00     0.229 C 
HETATM    6  N2  UNL     1      25.467   0.719  53.298  1.00  0.00    -0.263 NA
HETATM    7  C5  UNL     1      24.596  -0.184  53.980  1.00  0.00     0.272 C 
HETATM    8  N3  UNL     1      23.551  -0.706  53.096  1.00  0.00    -0.371 N 
HETATM    9  C6  UNL     1      22.664   0.259  52.480  1.00  0.00     0.038 A 
HETATM   10  C7  UNL     1      22.709   1.282  51.607  1.00  0.00     0.017 A 
HETATM   11  C8  UNL     1      21.354   1.906  51.383  1.00  0.00     0.233 A 
HETATM   12  F1  UNL     1      21.055   1.609  50.048  1.00  0.00    -0.240 F 
HETATM   13  C9  UNL     1      20.508   1.093  52.257  1.00  0.00    -0.044 A 
HETATM   14  C10 UNL     1      19.098   1.484  52.241  1.00  0.00     0.047 C 
HETATM   15  C11 UNL     1      21.249   0.178  52.863  1.00  0.00     0.035 A 
HETATM   16  C12 UNL     1      23.960   1.703  50.969  1.00  0.00     0.187 C 
HETATM   17  O1  UNL     1      23.794   2.462  49.841  1.00  0.00    -0.374 OA
HETATM   18  C13 UNL     1      24.692   3.485  49.775  1.00  0.00     0.210 C 
HETATM   19  C14 UNL     1      26.092   3.152  50.146  1.00  0.00     0.293 C 
HETATM   20  H6  UNL     1      23.361  -1.726  52.851  1.00  0.00     0.161 HD
ENDROOT
BRANCH  19  21
HETATM   21  N4  UNL     1      26.851   4.396  50.111  1.00  0.00     0.090 N 
HETATM   22  H16 UNL     1      27.456   4.414  50.961  1.00  0.00     0.313 HD
HETATM   23  H17 UNL     1      27.384   4.407  49.212  1.00  0.00     0.313 HD
ENDBRANCH  19  21
TORSDOF 1
ENDMDL
MODEL 8
REMARK VINA RESULT:      -6.6      4.321      6.227
REMARK  1 active torsions:
REMARK  status: ('A' for Active; 'I' for Inactive)
REMARK    1  A    between atoms: C14_19  and  N4_20 
ROOT
HETATM    1  C1  UNL     1      20.960   2.654  52.310  1.00  0.00     0.044 C 
HETATM    2  C2  UNL     1      21.262   1.365  52.159  1.00  0.00    -0.020 C 
HETATM    3  C3  UNL     1      20.417   0.243  52.657  1.00  0.00     0.076 C 
HETATM    4  N1  UNL     1      19.313   0.475  52.064  1.00  0.00    -0.244 NA
HETATM    5  C4  UNL     1      19.151   1.591  51.185  1.00  0.00     0.229 C 
HETATM    6  N2  UNL     1      19.848   1.185  50.205  1.00  0.00    -0.263 NA
HETATM    7  C5  UNL     1      20.103   1.851  48.967  1.00  0.00     0.272 C 
HETATM    8  N3  UNL     1      21.483   1.655  48.517  1.00  0.00    -0.371 N 
HETATM    9  C6  UNL     1      22.536   2.112  49.399  1.00  0.00     0.038 A 
HETATM   10  C7  UNL     1      23.036   1.852  50.621  1.00  0.00     0.017 A 
HETATM   11  C8  UNL     1      24.207   2.739  50.965  1.00  0.00     0.233 A 
HETATM   12  F1  UNL     1      25.297   1.863  51.026  1.00  0.00    -0.240 F 
HETATM   13  C9  UNL     1      24.318   3.559  49.757  1.00  0.00    -0.044 A 
HETATM   14  C10 UNL     1      25.403   4.539  49.809  1.00  0.00     0.047 C 
HETATM   15  C11 UNL     1      23.382   3.200  48.893  1.00  0.00     0.035 A 
HETATM   16  C12 UNL     1      22.472   0.809  51.484  1.00  0.00     0.187 C 
HETATM   17  O1  UNL     1      23.302   0.396  52.492  1.00  0.00    -0.374 OA
HETATM   18  C13 UNL     1      22.631   0.196  53.660  1.00  0.00     0.210 C 
HETATM   19  C14 UNL     1      21.325  -0.505  53.552  1.00  0.00     0.293 C 
HETATM   20  H6  UNL     1      21.809   1.213  47.604  1.00  0.00     0.161 HD
ENDROOT
BRANCH  19  21
HETATM   21  N4  UNL     1      20.735  -0.518  54.886  1.00  0.00     0.090 N 
HETATM   22  H16 UNL     1      21.317   0.104  55.488  1.00  0.00     0.313 HD
HETATM   23  H17 UNL     1      19.743  -0.204  54.787  1.00  0.00     0.313 HD
ENDBRANCH  19  21
TORSDOF 1
ENDMDL
MODEL 9
REMARK VINA RESULT:      -6.6      8.277     10.871
REMARK  1 active torsions:
REMARK  status: ('A' for Active; 'I' for Inactive)
REMARK    1  A    between atoms: C14_19  and  N4_20 
ROOT
HETATM    1  C1  UNL     1      31.480   7.258  49.583  1.00  0.00     0.044 C 
HETATM    2  C2  UNL     1      30.631   7.178  48.560  1.00  0.00    -0.020 C 
HETATM    3  C3  UNL     1      29.424   8.038  48.403  1.00  0.00     0.076 C 
HETATM    4  N1  UNL     1      29.939   9.204  48.416  1.00  0.00    -0.244 NA
HETATM    5  C4  UNL     1      31.348   9.401  48.556  1.00  0.00     0.229 C 
HETATM    6  N2  UNL     1      31.728   9.004  47.412  1.00  0.00    -0.263 NA
HETATM    7  C5  UNL     1      33.058   8.942  46.896  1.00  0.00     0.272 C 
HETATM    8  N3  UNL     1      33.275   7.738  46.090  1.00  0.00    -0.371 N 
HETATM    9  C6  UNL     1      33.079   6.462  46.745  1.00  0.00     0.038 A 
HETATM   10  C7  UNL     1      32.098   5.742  47.320  1.00  0.00     0.017 A 
HETATM   11  C8  UNL     1      32.587   4.413  47.840  1.00  0.00     0.233 A 
HETATM   12  F1  UNL     1      31.942   3.469  47.032  1.00  0.00    -0.240 F 
HETATM   13  C9  UNL     1      34.005   4.462  47.482  1.00  0.00    -0.044 A 
HETATM   14  C10 UNL     1      34.754   3.268  47.876  1.00  0.00     0.047 C 
HETATM   15  C11 UNL     1      34.267   5.608  46.873  1.00  0.00     0.035 A 
HETATM   16  C12 UNL     1      30.721   6.238  47.403  1.00  0.00     0.187 C 
HETATM   17  O1  UNL     1      29.782   5.269  47.640  1.00  0.00    -0.374 OA
HETATM   18  C13 UNL     1      28.826   5.684  48.518  1.00  0.00     0.210 C 
HETATM   19  C14 UNL     1      28.313   7.065  48.322  1.00  0.00     0.293 C 
HETATM   20  H6  UNL     1      33.565   7.688  45.066  1.00  0.00     0.161 HD
ENDROOT
BRANCH  19  21
HETATM   21  N4  UNL     1      27.392   7.339  49.418  1.00  0.00     0.090 N 
HETATM   22  H16 UNL     1      27.718   6.787  50.242  1.00  0.00     0.313 HD
HETATM   23  H17 UNL     1      27.394   8.372  49.572  1.00  0.00     0.313 HD
ENDBRANCH  19  21
TORSDOF 1
ENDMDL
