MODEL 1
REMARK VINA RESULT:      -8.4      0.000      0.000
REMARK  3 active torsions:
REMARK  status: ('A' for Active; 'I' for Inactive)
REMARK    1  A    between atoms: O1_1  and  C1_2 
REMARK    2  A    between atoms: C3_6  and  N3_7 
REMARK    3  A    between atoms: N3_7  and  C4_8 
ROOT
HETATM    1  C1  UNL     1      28.018  -0.682  53.254  1.00  0.00     0.177 A 
HETATM    2  N1  UNL     1      26.789  -1.230  53.548  1.00  0.00    -0.229 NA
HETATM    3  C2  UNL     1      25.765  -0.611  52.866  1.00  0.00     0.199 A 
HETATM    4  N2  UNL     1      25.621   0.382  51.978  1.00  0.00    -0.235 NA
HETATM    5  C3  UNL     1      26.722   1.035  51.572  1.00  0.00     0.143 A 
HETATM    6  C10 UNL     1      27.255   0.121  52.443  1.00  0.00     0.202 A 
HETATM    7  N4  UNL     1      28.285   1.121  52.644  1.00  0.00    -0.393 N 
HETATM    8  C11 UNL     1      27.890   1.969  53.767  1.00  0.00     0.152 C 
HETATM    9  C12 UNL     1      26.451   1.782  54.204  1.00  0.00    -0.037 C 
HETATM   10  C13 UNL     1      26.196   0.802  55.122  1.00  0.00     0.139 C 
HETATM   11  O2  UNL     1      25.640  -0.454  55.334  1.00  0.00    -0.362 OA
HETATM   12  C14 UNL     1      24.503  -1.171  54.891  1.00  0.00     0.187 C 
HETATM   13  C15 UNL     1      24.398  -0.896  53.366  1.00  0.00     0.088 C 
HETATM   14  C16 UNL     1      23.554   0.356  53.308  1.00  0.00    -0.019 C 
HETATM   15  C17 UNL     1      24.141   1.582  53.468  1.00  0.00    -0.026 C 
HETATM   16  C18 UNL     1      25.216   2.549  53.792  1.00  0.00     0.064 C 
HETATM   17  H7  UNL     1      29.217   1.403  52.236  1.00  0.00     0.155 HD
ENDROOT
BRANCH   5  18
HETATM   18  N3  UNL     1      26.783   2.081  50.649  1.00  0.00    -0.342 N 
HETATM   19  H2  UNL     1      27.756   1.992  50.254  1.00  0.00     0.167 HD
BRANCH  18  20
HETATM   20  C4  UNL     1      26.083   3.128  50.076  1.00  0.00     0.034 A 
HETATM   21  C5  UNL     1      24.751   3.358  49.997  1.00  0.00     0.029 A 
HETATM   22  C6  UNL     1      24.137   4.459  49.440  1.00  0.00     0.004 A 
HETATM   23  C7  UNL     1      25.019   5.384  48.928  1.00  0.00     0.019 A 
HETATM   24  C8  UNL     1      26.393   5.297  48.931  1.00  0.00     0.013 A 
HETATM   25 BR1  UNL     1      27.551   6.618  48.203  1.00  0.00    -0.051 Br
HETATM   26  C9  UNL     1      26.867   4.154  49.514  1.00  0.00     0.048 A 
ENDBRANCH  18  20
ENDBRANCH   5  18
BRANCH   1  27
HETATM   27  O1  UNL     1      29.251  -0.998  53.711  1.00  0.00    -0.346 OA
HETATM   28  H1  UNL     1      29.471  -1.807  54.252  1.00  0.00     0.219 HD
ENDBRANCH   1  27
TORSDOF 3
ENDMDL
MODEL 2
REMARK VINA RESULT:      -8.1      4.245      6.646
REMARK  3 active torsions:
REMARK  status: ('A' for Active; 'I' for Inactive)
REMARK    1  A    between atoms: O1_1  and  C1_2 
REMARK    2  A    between atoms: C3_6  and  N3_7 
REMARK    3  A    between atoms: N3_7  and  C4_8 
ROOT
HETATM    1  C1  UNL     1      22.910   6.445  51.415  1.00  0.00     0.177 A 
HETATM    2  N1  UNL     1      21.642   5.925  51.274  1.00  0.00    -0.229 NA
HETATM    3  C2  UNL     1      21.555   4.632  51.739  1.00  0.00     0.199 A 
HETATM    4  N2  UNL     1      22.360   3.724  52.306  1.00  0.00    -0.235 NA
HETATM    5  C3  UNL     1      23.642   4.060  52.524  1.00  0.00     0.143 A 
HETATM    6  C10 UNL     1      23.154   5.206  51.955  1.00  0.00     0.202 A 
HETATM    7  N4  UNL     1      24.515   5.390  51.491  1.00  0.00    -0.393 N 
HETATM    8  C11 UNL     1      24.636   4.780  50.169  1.00  0.00     0.152 C 
HETATM    9  C12 UNL     1      23.462   3.903  49.785  1.00  0.00    -0.037 C 
HETATM   10  C13 UNL     1      22.396   4.509  49.180  1.00  0.00     0.139 C 
HETATM   11  O2  UNL     1      21.078   4.923  49.327  1.00  0.00    -0.362 OA
HETATM   12  C14 UNL     1      19.901   4.434  49.941  1.00  0.00     0.187 C 
HETATM   13  C15 UNL     1      20.344   3.882  51.324  1.00  0.00     0.088 C 
HETATM   14  C16 UNL     1      20.703   2.449  51.012  1.00  0.00    -0.019 C 
HETATM   15  C17 UNL     1      21.944   2.149  50.518  1.00  0.00    -0.026 C 
HETATM   16  C18 UNL     1      23.286   2.410  49.946  1.00  0.00     0.064 C 
HETATM   17  H7  UNL     1      25.417   5.832  51.814  1.00  0.00     0.155 HD
ENDROOT
BRANCH   5  18
HETATM   18  N3  UNL     1      24.627   3.265  53.113  1.00  0.00    -0.342 N 
HETATM   19  H2  UNL     1      25.201   3.962  53.656  1.00  0.00     0.167 HD
BRANCH  18  20
HETATM   20  C4  UNL     1      25.106   1.974  53.256  1.00  0.00     0.034 A 
HETATM   21  C5  UNL     1      24.475   0.783  53.128  1.00  0.00     0.029 A 
HETATM   22  C6  UNL     1      25.044  -0.467  53.248  1.00  0.00     0.004 A 
HETATM   23  C7  UNL     1      26.393  -0.436  53.529  1.00  0.00     0.019 A 
HETATM   24  C8  UNL     1      27.172   0.687  53.689  1.00  0.00     0.013 A 
HETATM   25 BR1  UNL     1      29.033   0.653  54.076  1.00  0.00    -0.051 Br
HETATM   26  C9  UNL     1      26.480   1.858  53.542  1.00  0.00     0.048 A 
ENDBRANCH  18  20
ENDBRANCH   5  18
BRANCH   1  27
HETATM   27  O1  UNL     1      23.402   7.660  51.082  1.00  0.00    -0.346 OA
HETATM   28  H1  UNL     1      23.983   7.846  50.292  1.00  0.00     0.219 HD
ENDBRANCH   1  27
TORSDOF 3
ENDMDL
MODEL 3
REMARK VINA RESULT:      -7.7      4.119      6.955
REMARK  3 active torsions:
REMARK  status: ('A' for Active; 'I' for Inactive)
REMARK    1  A    between atoms: O1_1  and  C1_2 
REMARK    2  A    between atoms: C3_6  and  N3_7 
REMARK    3  A    between atoms: N3_7  and  C4_8 
ROOT
HETATM    1  C1  UNL     1      21.796   4.607  49.409  1.00  0.00     0.177 A 
HETATM    2  N1  UNL     1      23.135   4.664  49.088  1.00  0.00    -0.229 NA
HETATM    3  C2  UNL     1      23.823   3.552  49.522  1.00  0.00     0.199 A 
HETATM    4  N2  UNL     1      23.557   2.409  50.168  1.00  0.00    -0.235 NA
HETATM    5  C3  UNL     1      22.292   2.181  50.560  1.00  0.00     0.143 A 
HETATM    6  C10 UNL     1      22.171   3.402  49.952  1.00  0.00     0.202 A 
HETATM    7  N4  UNL     1      21.074   3.600  50.878  1.00  0.00    -0.393 N 
HETATM    8  C11 UNL     1      21.596   4.244  52.080  1.00  0.00     0.152 C 
HETATM    9  C12 UNL     1      23.110   4.260  52.163  1.00  0.00    -0.037 C 
HETATM   10  C13 UNL     1      23.761   5.305  51.569  1.00  0.00     0.139 C 
HETATM   11  O2  UNL     1      24.560   5.701  50.504  1.00  0.00    -0.362 OA
HETATM   12  C14 UNL     1      25.647   5.169  49.771  1.00  0.00     0.187 C 
HETATM   13  C15 UNL     1      25.301   3.674  49.528  1.00  0.00     0.088 C 
HETATM   14  C16 UNL     1      25.872   2.995  50.750  1.00  0.00    -0.019 C 
HETATM   15  C17 UNL     1      25.146   2.953  51.909  1.00  0.00    -0.026 C 
HETATM   16  C18 UNL     1      24.043   3.285  52.842  1.00  0.00     0.064 C 
HETATM   17  H7  UNL     1      20.034   3.428  50.934  1.00  0.00     0.155 HD
ENDROOT
BRANCH   5  18
HETATM   18  N3  UNL     1      21.814   1.053  51.229  1.00  0.00    -0.342 N 
HETATM   19  H2  UNL     1      21.162   0.618  50.524  1.00  0.00     0.167 HD
BRANCH  18  20
HETATM   20  C4  UNL     1      21.876   0.319  52.401  1.00  0.00     0.034 A 
HETATM   21  C5  UNL     1      20.896  -0.283  53.115  1.00  0.00     0.029 A 
HETATM   22  C6  UNL     1      21.054  -1.036  54.259  1.00  0.00     0.004 A 
HETATM   23  C7  UNL     1      22.364  -1.151  54.668  1.00  0.00     0.019 A 
HETATM   24  C8  UNL     1      23.467  -0.601  54.054  1.00  0.00     0.013 A 
HETATM   25 BR1  UNL     1      25.252  -0.803  54.678  1.00  0.00    -0.051 Br
HETATM   26  C9  UNL     1      23.165   0.119  52.931  1.00  0.00     0.048 A 
ENDBRANCH  18  20
ENDBRANCH   5  18
BRANCH   1  27
HETATM   27  O1  UNL     1      20.799   5.488  49.169  1.00  0.00    -0.346 OA
HETATM   28  H1  UNL     1      20.252   5.938  49.872  1.00  0.00     0.219 HD
ENDBRANCH   1  27
TORSDOF 3
ENDMDL
MODEL 4
REMARK VINA RESULT:      -7.6      3.179      4.287
REMARK  3 active torsions:
REMARK  status: ('A' for Active; 'I' for Inactive)
REMARK    1  A    between atoms: O1_1  and  C1_2 
REMARK    2  A    between atoms: C3_6  and  N3_7 
REMARK    3  A    between atoms: N3_7  and  C4_8 
ROOT
HETATM    1  C1  UNL     1      28.318   2.163  52.891  1.00  0.00     0.177 A 
HETATM    2  N1  UNL     1      28.714   0.847  52.785  1.00  0.00    -0.229 NA
HETATM    3  C2  UNL     1      27.732   0.051  52.238  1.00  0.00     0.199 A 
HETATM    4  N2  UNL     1      26.488   0.192  51.765  1.00  0.00    -0.235 NA
HETATM    5  C3  UNL     1      25.935   1.416  51.788  1.00  0.00     0.143 A 
HETATM    6  C10 UNL     1      27.167   1.665  52.330  1.00  0.00     0.202 A 
HETATM    7  N4  UNL     1      26.489   2.739  53.029  1.00  0.00    -0.393 N 
HETATM    8  C11 UNL     1      26.021   2.227  54.315  1.00  0.00     0.152 C 
HETATM    9  C12 UNL     1      26.096   0.719  54.443  1.00  0.00    -0.037 C 
HETATM   10  C13 UNL     1      27.271   0.184  54.891  1.00  0.00     0.139 C 
HETATM   11  O2  UNL     1      28.408  -0.537  54.546  1.00  0.00    -0.362 OA
HETATM   12  C14 UNL     1      28.724  -1.636  53.714  1.00  0.00     0.187 C 
HETATM   13  C15 UNL     1      27.931  -1.411  52.397  1.00  0.00     0.088 C 
HETATM   14  C16 UNL     1      26.611  -2.085  52.682  1.00  0.00    -0.019 C 
HETATM   15  C17 UNL     1      25.633  -1.411  53.362  1.00  0.00    -0.026 C 
HETATM   16  C18 UNL     1      25.034  -0.321  54.168  1.00  0.00     0.064 C 
HETATM   17  H7  UNL     1      26.249   3.757  52.891  1.00  0.00     0.155 HD
ENDROOT
BRANCH   5  18
HETATM   18  N3  UNL     1      24.663   1.769  51.331  1.00  0.00    -0.342 N 
HETATM   19  H2  UNL     1      24.835   2.685  50.838  1.00  0.00     0.167 HD
BRANCH  18  20
HETATM   20  C4  UNL     1      23.334   1.388  51.271  1.00  0.00     0.034 A 
HETATM   21  C5  UNL     1      22.422   1.528  50.281  1.00  0.00     0.029 A 
HETATM   22  C6  UNL     1      21.120   1.077  50.291  1.00  0.00     0.004 A 
HETATM   23  C7  UNL     1      20.769   0.426  51.453  1.00  0.00     0.019 A 
HETATM   24  C8  UNL     1      21.577   0.204  52.544  1.00  0.00     0.013 A 
HETATM   25 BR1  UNL     1      21.023  -0.706  54.120  1.00  0.00    -0.051 Br
HETATM   26  C9  UNL     1      22.842   0.704  52.399  1.00  0.00     0.048 A 
ENDBRANCH  18  20
ENDBRANCH   5  18
BRANCH   1  27
HETATM   27  O1  UNL     1      28.977   3.241  53.373  1.00  0.00    -0.346 OA
HETATM   28  H1  UNL     1      29.966   3.370  53.336  1.00  0.00     0.219 HD
ENDBRANCH   1  27
TORSDOF 3
ENDMDL
MODEL 5
REMARK VINA RESULT:      -7.6      4.481      7.357
REMARK  3 active torsions:
REMARK  status: ('A' for Active; 'I' for Inactive)
REMARK    1  A    between atoms: O1_1  and  C1_2 
REMARK    2  A    between atoms: C3_6  and  N3_7 
REMARK    3  A    between atoms: N3_7  and  C4_8 
ROOT
HETATM    1  C1  UNL     1      24.238   7.814  50.630  1.00  0.00     0.177 A 
HETATM    2  N1  UNL     1      22.934   7.842  50.185  1.00  0.00    -0.229 NA
HETATM    3  C2  UNL     1      22.226   6.728  50.577  1.00  0.00     0.199 A 
HETATM    4  N2  UNL     1      22.442   5.612  51.285  1.00  0.00    -0.235 NA
HETATM    5  C3  UNL     1      23.666   5.415  51.802  1.00  0.00     0.143 A 
HETATM    6  C10 UNL     1      23.828   6.621  51.173  1.00  0.00     0.202 A 
HETATM    7  N4  UNL     1      25.211   6.208  51.039  1.00  0.00    -0.393 N 
HETATM    8  C11 UNL     1      25.364   5.515  49.762  1.00  0.00     0.152 C 
HETATM    9  C12 UNL     1      24.051   5.164  49.091  1.00  0.00    -0.037 C 
HETATM   10  C13 UNL     1      23.489   6.107  48.277  1.00  0.00     0.139 C 
HETATM   11  O2  UNL     1      22.458   7.027  48.130  1.00  0.00    -0.362 OA
HETATM   12  C14 UNL     1      21.080   7.097  48.442  1.00  0.00     0.187 C 
HETATM   13  C15 UNL     1      20.940   6.505  49.872  1.00  0.00     0.088 C 
HETATM   14  C16 UNL     1      20.742   5.032  49.606  1.00  0.00    -0.019 C 
HETATM   15  C17 UNL     1      21.828   4.224  49.401  1.00  0.00    -0.026 C 
HETATM   16  C18 UNL     1      23.250   3.883  49.161  1.00  0.00     0.064 C 
HETATM   17  H7  UNL     1      26.119   6.268  51.574  1.00  0.00     0.155 HD
ENDROOT
BRANCH   5  18
HETATM   18  N3  UNL     1      24.084   4.330  52.576  1.00  0.00    -0.342 N 
HETATM   19  H2  UNL     1      24.599   4.791  53.371  1.00  0.00     0.167 HD
BRANCH  18  20
HETATM   20  C4  UNL     1      24.069   2.952  52.696  1.00  0.00     0.034 A 
HETATM   21  C5  UNL     1      23.030   2.086  52.766  1.00  0.00     0.029 A 
HETATM   22  C6  UNL     1      23.108   0.711  52.843  1.00  0.00     0.004 A 
HETATM   23  C7  UNL     1      24.398   0.230  52.847  1.00  0.00     0.019 A 
HETATM   24  C8  UNL     1      25.552   0.976  52.782  1.00  0.00     0.013 A 
HETATM   25 BR1  UNL     1      27.306   0.240  52.792  1.00  0.00    -0.051 Br
HETATM   26  C9  UNL     1      25.329   2.324  52.709  1.00  0.00     0.048 A 
ENDBRANCH  18  20
ENDBRANCH   5  18
BRANCH   1  27
HETATM   27  O1  UNL     1      25.243   8.702  50.457  1.00  0.00    -0.346 OA
HETATM   28  H1  UNL     1      25.455   9.454  51.077  1.00  0.00     0.219 HD
ENDBRANCH   1  27
TORSDOF 3
ENDMDL
MODEL 6
REMARK VINA RESULT:      -7.5      8.535     10.363
REMARK  3 active torsions:
REMARK  status: ('A' for Active; 'I' for Inactive)
REMARK    1  A    between atoms: O1_1  and  C1_2 
REMARK    2  A    between atoms: C3_6  and  N3_7 
REMARK    3  A    between atoms: N3_7  and  C4_8 
ROOT
HETATM    1  C1  UNL     1      27.744   9.252  49.788  1.00  0.00     0.177 A 
HETATM    2  N1  UNL     1      27.040   9.170  48.606  1.00  0.00    -0.229 NA
HETATM    3  C2  UNL     1      27.659   8.351  47.687  1.00  0.00     0.199 A 
HETATM    4  N2  UNL     1      28.762   7.595  47.614  1.00  0.00    -0.235 NA
HETATM    5  C3  UNL     1      29.575   7.554  48.683  1.00  0.00     0.143 A 
HETATM    6  C10 UNL     1      28.589   8.397  49.124  1.00  0.00     0.202 A 
HETATM    7  N4  UNL     1      29.639   8.969  49.945  1.00  0.00    -0.393 N 
HETATM    8  C11 UNL     1      30.255  10.067  49.204  1.00  0.00     0.152 C 
HETATM    9  C12 UNL     1      29.862  10.121  47.741  1.00  0.00    -0.037 C 
HETATM   10  C13 UNL     1      28.728  10.813  47.419  1.00  0.00     0.139 C 
HETATM   11  O2  UNL     1      27.407  10.717  46.999  1.00  0.00    -0.362 OA
HETATM   12  C14 UNL     1      26.664   9.925  46.093  1.00  0.00     0.187 C 
HETATM   13  C15 UNL     1      27.167   8.469  46.292  1.00  0.00     0.088 C 
HETATM   14  C16 UNL     1      28.325   8.379  45.326  1.00  0.00    -0.019 C 
HETATM   15  C17 UNL     1      29.560   8.836  45.697  1.00  0.00    -0.026 C 
HETATM   16  C18 UNL     1      30.563   9.532  46.538  1.00  0.00     0.064 C 
HETATM   17  H7  UNL     1      30.071   8.835  50.898  1.00  0.00     0.155 HD
ENDROOT
BRANCH   5  18
HETATM   18  N3  UNL     1      30.755   6.819  48.809  1.00  0.00    -0.342 N 
HETATM   19  H2  UNL     1      30.423   5.904  49.213  1.00  0.00     0.167 HD
BRANCH  18  20
HETATM   20  C4  UNL     1      32.124   6.830  48.604  1.00  0.00     0.034 A 
HETATM   21  C5  UNL     1      33.018   7.843  48.689  1.00  0.00     0.029 A 
HETATM   22  C6  UNL     1      34.382   7.755  48.509  1.00  0.00     0.004 A 
HETATM   23  C7  UNL     1      34.820   6.483  48.213  1.00  0.00     0.019 A 
HETATM   24  C8  UNL     1      34.041   5.355  48.091  1.00  0.00     0.013 A 
HETATM   25 BR1  UNL     1      34.716   3.626  47.679  1.00  0.00    -0.051 Br
HETATM   26  C9  UNL     1      32.708   5.586  48.296  1.00  0.00     0.048 A 
ENDBRANCH  18  20
ENDBRANCH   5  18
BRANCH   1  27
HETATM   27  O1  UNL     1      27.480   9.944  50.920  1.00  0.00    -0.346 OA
HETATM   28  H1  UNL     1      28.163  10.411  51.477  1.00  0.00     0.219 HD
ENDBRANCH   1  27
TORSDOF 3
ENDMDL
MODEL 7
REMARK VINA RESULT:      -7.5      4.143      5.227
REMARK  3 active torsions:
REMARK  status: ('A' for Active; 'I' for Inactive)
REMARK    1  A    between atoms: O1_1  and  C1_2 
REMARK    2  A    between atoms: C3_6  and  N3_7 
REMARK    3  A    between atoms: N3_7  and  C4_8 
ROOT
HETATM    1  C1  UNL     1      23.792   4.582  52.833  1.00  0.00     0.177 A 
HETATM    2  N1  UNL     1      23.201   3.345  52.697  1.00  0.00    -0.229 NA
HETATM    3  C2  UNL     1      23.448   2.782  51.464  1.00  0.00     0.199 A 
HETATM    4  N2  UNL     1      24.115   3.094  50.346  1.00  0.00    -0.235 NA
HETATM    5  C3  UNL     1      24.758   4.272  50.298  1.00  0.00     0.143 A 
HETATM    6  C10 UNL     1      24.218   4.309  51.556  1.00  0.00     0.202 A 
HETATM    7  N4  UNL     1      24.223   5.746  51.365  1.00  0.00    -0.393 N 
HETATM    8  C11 UNL     1      22.936   6.140  50.796  1.00  0.00     0.152 C 
HETATM    9  C12 UNL     1      22.100   4.976  50.301  1.00  0.00    -0.037 C 
HETATM   10  C13 UNL     1      21.279   4.363  51.206  1.00  0.00     0.139 C 
HETATM   11  O2  UNL     1      21.065   3.222  51.969  1.00  0.00    -0.362 OA
HETATM   12  C14 UNL     1      21.218   1.825  51.809  1.00  0.00     0.187 C 
HETATM   13  C15 UNL     1      22.588   1.628  51.103  1.00  0.00     0.088 C 
HETATM   14  C16 UNL     1      22.222   1.694  49.639  1.00  0.00    -0.019 C 
HETATM   15  C17 UNL     1      22.100   2.908  49.020  1.00  0.00    -0.026 C 
HETATM   16  C18 UNL     1      22.007   4.383  48.914  1.00  0.00     0.064 C 
HETATM   17  H7  UNL     1      24.862   6.572  51.522  1.00  0.00     0.155 HD
ENDROOT
BRANCH   5  18
HETATM   18  N3  UNL     1      25.515   4.771  49.235  1.00  0.00    -0.342 N 
HETATM   19  H2  UNL     1      24.902   4.582  48.399  1.00  0.00     0.167 HD
BRANCH  18  20
HETATM   20  C4  UNL     1      26.697   5.397  48.883  1.00  0.00     0.034 A 
HETATM   21  C5  UNL     1      27.905   4.879  48.556  1.00  0.00     0.029 A 
HETATM   22  C6  UNL     1      29.027   5.582  48.173  1.00  0.00     0.004 A 
HETATM   23  C7  UNL     1      28.840   6.946  48.140  1.00  0.00     0.019 A 
HETATM   24  C8  UNL     1      27.680   7.623  48.442  1.00  0.00     0.013 A 
HETATM   25 BR1  UNL     1      27.495   9.514  48.374  1.00  0.00    -0.051 Br
HETATM   26  C9  UNL     1      26.647   6.802  48.806  1.00  0.00     0.048 A 
ENDBRANCH  18  20
ENDBRANCH   5  18
BRANCH   1  27
HETATM   27  O1  UNL     1      23.785   5.448  53.872  1.00  0.00    -0.346 OA
HETATM   28  H1  UNL     1      23.351   5.279  54.754  1.00  0.00     0.219 HD
ENDBRANCH   1  27
TORSDOF 3
ENDMDL
MODEL 8
REMARK VINA RESULT:      -7.5      4.834      7.725
REMARK  3 active torsions:
REMARK  status: ('A' for Active; 'I' for Inactive)
REMARK    1  A    between atoms: O1_1  and  C1_2 
REMARK    2  A    between atoms: C3_6  and  N3_7 
REMARK    3  A    between atoms: N3_7  and  C4_8 
ROOT
HETATM    1  C1  UNL     1      21.514   6.497  50.652  1.00  0.00     0.177 A 
HETATM    2  N1  UNL     1      21.249   6.114  49.356  1.00  0.00    -0.229 NA
HETATM    3  C2  UNL     1      21.232   4.744  49.211  1.00  0.00     0.199 A 
HETATM    4  N2  UNL     1      21.394   3.662  49.983  1.00  0.00    -0.235 NA
HETATM    5  C3  UNL     1      21.661   3.846  51.286  1.00  0.00     0.143 A 
HETATM    6  C10 UNL     1      21.561   5.138  50.845  1.00  0.00     0.202 A 
HETATM    7  N4  UNL     1      22.486   5.431  51.923  1.00  0.00    -0.393 N 
HETATM    8  C11 UNL     1      23.846   5.351  51.397  1.00  0.00     0.152 C 
HETATM    9  C12 UNL     1      23.939   4.722  50.021  1.00  0.00    -0.037 C 
HETATM   10  C13 UNL     1      23.791   5.548  48.941  1.00  0.00     0.139 C 
HETATM   11  O2  UNL     1      22.962   5.927  47.893  1.00  0.00    -0.362 OA
HETATM   12  C14 UNL     1      22.089   5.288  46.980  1.00  0.00     0.187 C 
HETATM   13  C15 UNL     1      21.294   4.247  47.815  1.00  0.00     0.088 C 
HETATM   14  C16 UNL     1      22.170   3.019  47.740  1.00  0.00    -0.019 C 
HETATM   15  C17 UNL     1      23.221   2.878  48.605  1.00  0.00    -0.026 C 
HETATM   16  C18 UNL     1      24.203   3.284  49.639  1.00  0.00     0.064 C 
HETATM   17  H7  UNL     1      22.465   5.688  52.946  1.00  0.00     0.155 HD
ENDROOT
BRANCH   5  18
HETATM   18  N3  UNL     1      21.848   2.853  52.251  1.00  0.00    -0.342 N 
HETATM   19  H2  UNL     1      21.010   2.973  52.879  1.00  0.00     0.167 HD
BRANCH  18  20
HETATM   20  C4  UNL     1      22.666   1.818  52.668  1.00  0.00     0.034 A 
HETATM   21  C5  UNL     1      24.015   1.699  52.646  1.00  0.00     0.029 A 
HETATM   22  C6  UNL     1      24.756   0.640  53.125  1.00  0.00     0.004 A 
HETATM   23  C7  UNL     1      23.991  -0.369  53.668  1.00  0.00     0.019 A 
HETATM   24  C8  UNL     1      22.619  -0.397  53.764  1.00  0.00     0.013 A 
HETATM   25 BR1  UNL     1      21.628  -1.829  54.529  1.00  0.00    -0.051 Br
HETATM   26  C9  UNL     1      22.012   0.716  53.250  1.00  0.00     0.048 A 
ENDBRANCH  18  20
ENDBRANCH   5  18
BRANCH   1  27
HETATM   27  O1  UNL     1      21.621   7.731  51.197  1.00  0.00    -0.346 OA
HETATM   28  H1  UNL     1      22.458   8.273  51.226  1.00  0.00     0.219 HD
ENDBRANCH   1  27
TORSDOF 3
ENDMDL
MODEL 9
REMARK VINA RESULT:      -7.4      3.370      5.269
REMARK  3 active torsions:
REMARK  status: ('A' for Active; 'I' for Inactive)
REMARK    1  A    between atoms: O1_1  and  C1_2 
REMARK    2  A    between atoms: C3_6  and  N3_7 
REMARK    3  A    between atoms: N3_7  and  C4_8 
ROOT
HETATM    1  C1  UNL     1      21.101   3.545  52.319  1.00  0.00     0.177 A 
HETATM    2  N1  UNL     1      21.898   2.506  52.749  1.00  0.00    -0.229 NA
HETATM    3  C2  UNL     1      23.233   2.845  52.763  1.00  0.00     0.199 A 
HETATM    4  N2  UNL     1      23.990   3.913  52.481  1.00  0.00    -0.235 NA
HETATM    5  C3  UNL     1      23.378   5.026  52.045  1.00  0.00     0.143 A 
HETATM    6  C10 UNL     1      22.313   4.185  52.224  1.00  0.00     0.202 A 
HETATM    7  N4  UNL     1      21.697   4.965  51.169  1.00  0.00    -0.393 N 
HETATM    8  C11 UNL     1      21.994   4.325  49.890  1.00  0.00     0.152 C 
HETATM    9  C12 UNL     1      23.059   3.249  49.972  1.00  0.00    -0.037 C 
HETATM   10  C13 UNL     1      22.649   1.981  50.276  1.00  0.00     0.139 C 
HETATM   11  O2  UNL     1      22.628   0.985  51.244  1.00  0.00    -0.362 OA
HETATM   12  C14 UNL     1      23.513   0.471  52.220  1.00  0.00     0.187 C 
HETATM   13  C15 UNL     1      24.180   1.709  52.880  1.00  0.00     0.088 C 
HETATM   14  C16 UNL     1      25.386   1.947  52.002  1.00  0.00    -0.019 C 
HETATM   15  C17 UNL     1      25.254   2.662  50.842  1.00  0.00    -0.026 C 
HETATM   16  C18 UNL     1      24.549   3.354  49.737  1.00  0.00     0.064 C 
HETATM   17  H7  UNL     1      21.104   5.831  51.056  1.00  0.00     0.155 HD
ENDROOT
BRANCH   5  18
HETATM   18  N3  UNL     1      23.985   6.240  51.715  1.00  0.00    -0.342 N 
HETATM   19  H2  UNL     1      24.066   6.726  52.646  1.00  0.00     0.167 HD
BRANCH  18  20
HETATM   20  C4  UNL     1      24.505   7.003  50.683  1.00  0.00     0.034 A 
HETATM   21  C5  UNL     1      24.107   8.198  50.186  1.00  0.00     0.029 A 
HETATM   22  C6  UNL     1      24.715   8.913  49.176  1.00  0.00     0.004 A 
HETATM   23  C7  UNL     1      25.833   8.298  48.659  1.00  0.00     0.019 A 
HETATM   24  C8  UNL     1      26.362   7.090  49.054  1.00  0.00     0.013 A 
HETATM   25 BR1  UNL     1      27.915   6.300  48.292  1.00  0.00    -0.051 Br
HETATM   26  C9  UNL     1      25.660   6.490  50.064  1.00  0.00     0.048 A 
ENDBRANCH  18  20
ENDBRANCH   5  18
BRANCH   1  27
HETATM   27  O1  UNL     1      19.760   3.613  52.160  1.00  0.00    -0.346 OA
HETATM   28  H1  UNL     1      19.096   3.629  52.905  1.00  0.00     0.219 HD
ENDBRANCH   1  27
TORSDOF 3
ENDMDL
