MODEL 1
REMARK VINA RESULT:      -7.8      0.000      0.000
REMARK  4 active torsions:
REMARK  status: ('A' for Active; 'I' for Inactive)
REMARK    1  A    between atoms: S1_2  and  C2_3 
REMARK    2  A    between atoms: C3_4  and  O1_5 
REMARK    3  A    between atoms: C3_4  and  N1_6 
REMARK    4  A    between atoms: C4_8  and  C5_9 
ROOT
HETATM    1  N1  UNL     1      24.334   2.310  52.670  1.00  0.00    -0.213 N 
HETATM    2  N2  UNL     1      25.643   1.833  52.812  1.00  0.00    -0.169 NA
HETATM    3  C4  UNL     1      25.865   0.572  53.097  1.00  0.00     0.069 A 
HETATM    4  C11 UNL     1      24.802  -0.442  53.291  1.00  0.00     0.098 A 
HETATM    5  C12 UNL     1      23.428   0.095  53.135  1.00  0.00    -0.044 A 
HETATM    6  C13 UNL     1      23.264   1.394  52.843  1.00  0.00     0.057 A 
HETATM    7  C14 UNL     1      21.858   1.769  52.742  1.00  0.00     0.054 A 
HETATM    8  C15 UNL     1      20.363   1.455  52.442  1.00  0.00     0.024 A 
HETATM    9  P1  UNL     1      21.162   0.198  52.092  1.00  0.00    -0.115 P 
HETATM   10  C16 UNL     1      22.183  -0.754  53.304  1.00  0.00     0.066 C 
HETATM   11  H13 UNL     1      21.587  -0.005  50.734  1.00  0.00     0.055 HD
ENDROOT
BRANCH   1  12
HETATM   12  C3  UNL     1      24.135   3.682  52.369  1.00  0.00     0.169 C 
HETATM   13  C2  UNL     1      24.025   4.169  51.150  1.00  0.00     0.102 C 
BRANCH  13  14
HETATM   14  S1  UNL     1      23.779   5.918  50.949  1.00  0.00    -0.142 SA
HETATM   15  C1  UNL     1      25.261   6.783  50.393  1.00  0.00     0.095 C 
ENDBRANCH  13  14
BRANCH  12  16
HETATM   16  O1  UNL     1      24.046   4.604  53.402  1.00  0.00    -0.344 OA
HETATM   17  H5  UNL     1      24.843   4.924  53.915  1.00  0.00     0.219 HD
ENDBRANCH  12  16
ENDBRANCH   1  12
BRANCH   3  18
HETATM   18  C5  UNL     1      27.227   0.094  53.240  1.00  0.00    -0.009 A 
HETATM   19  C6  UNL     1      28.308   0.885  53.584  1.00  0.00     0.013 A 
HETATM   20  C7  UNL     1      29.595   0.407  53.714  1.00  0.00     0.001 A 
HETATM   21  C8  UNL     1      29.854  -0.933  53.495  1.00  0.00     0.000 A 
HETATM   22  C9  UNL     1      28.794  -1.752  53.149  1.00  0.00     0.001 A 
HETATM   23  C10 UNL     1      27.512  -1.255  53.023  1.00  0.00     0.013 A 
ENDBRANCH   3  18
TORSDOF 4
ENDMDL
MODEL 2
REMARK VINA RESULT:      -7.8      1.655      2.037
REMARK  4 active torsions:
REMARK  status: ('A' for Active; 'I' for Inactive)
REMARK    1  A    between atoms: S1_2  and  C2_3 
REMARK    2  A    between atoms: C3_4  and  O1_5 
REMARK    3  A    between atoms: C3_4  and  N1_6 
REMARK    4  A    between atoms: C4_8  and  C5_9 
ROOT
HETATM    1  N1  UNL     1      23.915   0.961  52.471  1.00  0.00    -0.213 N 
HETATM    2  N2  UNL     1      25.296   0.734  52.517  1.00  0.00    -0.169 NA
HETATM    3  C4  UNL     1      25.803  -0.112  53.382  1.00  0.00     0.069 A 
HETATM    4  C11 UNL     1      25.006  -0.885  54.363  1.00  0.00     0.098 A 
HETATM    5  C12 UNL     1      23.548  -0.620  54.290  1.00  0.00    -0.044 A 
HETATM    6  C13 UNL     1      23.089   0.255  53.384  1.00  0.00     0.057 A 
HETATM    7  C14 UNL     1      21.640   0.419  53.453  1.00  0.00     0.054 A 
HETATM    8  C15 UNL     1      20.205  -0.099  53.765  1.00  0.00     0.024 A 
HETATM    9  P1  UNL     1      21.160  -1.276  53.977  1.00  0.00    -0.115 P 
HETATM   10  C16 UNL     1      22.539  -1.285  55.207  1.00  0.00     0.066 C 
HETATM   11  H13 UNL     1      21.375  -2.204  52.901  1.00  0.00     0.055 HD
ENDROOT
BRANCH   1  12
HETATM   12  C3  UNL     1      23.405   1.888  51.526  1.00  0.00     0.169 C 
HETATM   13  C2  UNL     1      23.479   3.197  51.654  1.00  0.00     0.102 C 
BRANCH  13  14
HETATM   14  S1  UNL     1      22.787   4.219  50.373  1.00  0.00    -0.142 SA
HETATM   15  C1  UNL     1      23.952   4.570  49.040  1.00  0.00     0.095 C 
ENDBRANCH  13  14
BRANCH  12  16
HETATM   16  O1  UNL     1      22.781   1.424  50.378  1.00  0.00    -0.344 OA
HETATM   17  H5  UNL     1      23.210   0.772  49.752  1.00  0.00     0.219 HD
ENDBRANCH  12  16
ENDBRANCH   1  12
BRANCH   3  18
HETATM   18  C5  UNL     1      27.236  -0.336  53.415  1.00  0.00    -0.009 A 
HETATM   19  C6  UNL     1      27.855  -1.531  53.096  1.00  0.00     0.013 A 
HETATM   20  C7  UNL     1      29.221  -1.719  53.135  1.00  0.00     0.001 A 
HETATM   21  C8  UNL     1      30.046  -0.676  53.510  1.00  0.00     0.000 A 
HETATM   22  C9  UNL     1      29.458   0.534  53.836  1.00  0.00     0.001 A 
HETATM   23  C10 UNL     1      28.089   0.702  53.791  1.00  0.00     0.013 A 
ENDBRANCH   3  18
TORSDOF 4
ENDMDL
MODEL 3
REMARK VINA RESULT:      -7.6      2.792      5.899
REMARK  4 active torsions:
REMARK  status: ('A' for Active; 'I' for Inactive)
REMARK    1  A    between atoms: S1_2  and  C2_3 
REMARK    2  A    between atoms: C3_4  and  O1_5 
REMARK    3  A    between atoms: C3_4  and  N1_6 
REMARK    4  A    between atoms: C4_8  and  C5_9 
ROOT
HETATM    1  N1  UNL     1      25.980   2.256  51.944  1.00  0.00    -0.213 N 
HETATM    2  N2  UNL     1      26.458   3.291  51.132  1.00  0.00    -0.169 NA
HETATM    3  C4  UNL     1      25.709   3.788  50.176  1.00  0.00     0.069 A 
HETATM    4  C11 UNL     1      24.336   3.326  49.863  1.00  0.00     0.098 A 
HETATM    5  C12 UNL     1      23.860   2.228  50.740  1.00  0.00    -0.044 A 
HETATM    6  C13 UNL     1      24.671   1.762  51.701  1.00  0.00     0.057 A 
HETATM    7  C14 UNL     1      24.067   0.673  52.461  1.00  0.00     0.054 A 
HETATM    8  C15 UNL     1      22.841  -0.087  53.048  1.00  0.00     0.024 A 
HETATM    9  P1  UNL     1      22.304   1.186  52.390  1.00  0.00    -0.115 P 
HETATM   10  C16 UNL     1      22.493   1.587  50.596  1.00  0.00     0.066 C 
HETATM   11  H13 UNL     1      22.097   2.357  53.197  1.00  0.00     0.055 HD
ENDROOT
BRANCH   1  12
HETATM   12  C3  UNL     1      26.823   1.741  52.963  1.00  0.00     0.169 C 
HETATM   13  C2  UNL     1      27.562   0.657  52.841  1.00  0.00     0.102 C 
BRANCH  13  14
HETATM   14  S1  UNL     1      28.564   0.149  54.218  1.00  0.00    -0.142 SA
HETATM   15  C1  UNL     1      29.880  -0.995  53.754  1.00  0.00     0.095 C 
ENDBRANCH  13  14
BRANCH  12  16
HETATM   16  O1  UNL     1      26.901   2.395  54.183  1.00  0.00    -0.344 OA
HETATM   17  H5  UNL     1      27.293   3.310  54.286  1.00  0.00     0.219 HD
ENDBRANCH  12  16
ENDBRANCH   1  12
BRANCH   3  18
HETATM   18  C5  UNL     1      26.219   4.861  49.345  1.00  0.00    -0.009 A 
HETATM   19  C6  UNL     1      25.476   5.943  48.909  1.00  0.00     0.013 A 
HETATM   20  C7  UNL     1      25.986   6.952  48.118  1.00  0.00     0.001 A 
HETATM   21  C8  UNL     1      27.308   6.910  47.721  1.00  0.00     0.000 A 
HETATM   22  C9  UNL     1      28.079   5.839  48.139  1.00  0.00     0.001 A 
HETATM   23  C10 UNL     1      27.552   4.839  48.930  1.00  0.00     0.013 A 
ENDBRANCH   3  18
TORSDOF 4
ENDMDL
MODEL 4
REMARK VINA RESULT:      -7.4      1.739      2.072
REMARK  4 active torsions:
REMARK  status: ('A' for Active; 'I' for Inactive)
REMARK    1  A    between atoms: S1_2  and  C2_3 
REMARK    2  A    between atoms: C3_4  and  O1_5 
REMARK    3  A    between atoms: C3_4  and  N1_6 
REMARK    4  A    between atoms: C4_8  and  C5_9 
ROOT
HETATM    1  N1  UNL     1      25.400   2.573  51.365  1.00  0.00    -0.213 N 
HETATM    2  N2  UNL     1      26.531   1.862  51.786  1.00  0.00    -0.169 NA
HETATM    3  C4  UNL     1      26.401   0.724  52.427  1.00  0.00     0.069 A 
HETATM    4  C11 UNL     1      25.102   0.096  52.762  1.00  0.00     0.098 A 
HETATM    5  C12 UNL     1      23.925   0.874  52.303  1.00  0.00    -0.044 A 
HETATM    6  C13 UNL     1      24.121   2.030  51.652  1.00  0.00     0.057 A 
HETATM    7  C14 UNL     1      22.868   2.682  51.286  1.00  0.00     0.054 A 
HETATM    8  C15 UNL     1      21.358   2.658  50.907  1.00  0.00     0.024 A 
HETATM    9  P1  UNL     1      21.815   1.202  51.010  1.00  0.00    -0.115 P 
HETATM   10  C16 UNL     1      22.495   0.433  52.547  1.00  0.00     0.066 C 
HETATM   11  H13 UNL     1      22.233   0.515  49.819  1.00  0.00     0.055 HD
ENDROOT
BRANCH   1  12
HETATM   12  C3  UNL     1      25.582   3.802  50.681  1.00  0.00     0.169 C 
HETATM   13  C2  UNL     1      26.293   3.945  49.581  1.00  0.00     0.102 C 
BRANCH  13  14
HETATM   14  S1  UNL     1      26.418   5.561  48.850  1.00  0.00    -0.142 SA
HETATM   15  C1  UNL     1      28.089   5.962  48.300  1.00  0.00     0.095 C 
ENDBRANCH  13  14
BRANCH  12  16
HETATM   16  O1  UNL     1      24.986   4.955  51.173  1.00  0.00    -0.344 OA
HETATM   17  H5  UNL     1      25.398   5.862  51.080  1.00  0.00     0.219 HD
ENDBRANCH  12  16
ENDBRANCH   1  12
BRANCH   3  18
HETATM   18  C5  UNL     1      27.583   0.001  52.856  1.00  0.00    -0.009 A 
HETATM   19  C6  UNL     1      27.712  -1.376  52.843  1.00  0.00     0.013 A 
HETATM   20  C7  UNL     1      28.848  -2.041  53.257  1.00  0.00     0.001 A 
HETATM   21  C8  UNL     1      29.935  -1.322  53.716  1.00  0.00     0.000 A 
HETATM   22  C9  UNL     1      29.837   0.059  53.742  1.00  0.00     0.001 A 
HETATM   23  C10 UNL     1      28.692   0.706  53.324  1.00  0.00     0.013 A 
ENDBRANCH   3  18
TORSDOF 4
ENDMDL
MODEL 5
REMARK VINA RESULT:      -7.3      2.169      5.804
REMARK  4 active torsions:
REMARK  status: ('A' for Active; 'I' for Inactive)
REMARK    1  A    between atoms: S1_2  and  C2_3 
REMARK    2  A    between atoms: C3_4  and  O1_5 
REMARK    3  A    between atoms: C3_4  and  N1_6 
REMARK    4  A    between atoms: C4_8  and  C5_9 
ROOT
HETATM    1  N1  UNL     1      23.990   2.040  51.844  1.00  0.00    -0.213 N 
HETATM    2  N2  UNL     1      22.641   1.669  51.795  1.00  0.00    -0.169 NA
HETATM    3  C4  UNL     1      22.234   0.560  52.369  1.00  0.00     0.069 A 
HETATM    4  C11 UNL     1      23.119  -0.379  53.097  1.00  0.00     0.098 A 
HETATM    5  C12 UNL     1      24.541   0.044  53.129  1.00  0.00    -0.044 A 
HETATM    6  C13 UNL     1      24.896   1.187  52.526  1.00  0.00     0.057 A 
HETATM    7  C14 UNL     1      26.327   1.450  52.629  1.00  0.00     0.054 A 
HETATM    8  C15 UNL     1      27.704   1.334  53.347  1.00  0.00     0.024 A 
HETATM    9  P1  UNL     1      26.666   0.691  54.268  1.00  0.00    -0.115 P 
HETATM   10  C16 UNL     1      25.630  -0.768  53.805  1.00  0.00     0.066 C 
HETATM   11  H13 UNL     1      26.070   1.481  55.310  1.00  0.00     0.055 HD
ENDROOT
BRANCH   1  12
HETATM   12  C3  UNL     1      24.391   3.242  51.206  1.00  0.00     0.169 C 
HETATM   13  C2  UNL     1      24.648   3.352  49.919  1.00  0.00     0.102 C 
BRANCH  13  14
HETATM   14  S1  UNL     1      25.141   4.936  49.280  1.00  0.00    -0.142 SA
HETATM   15  C1  UNL     1      26.902   5.029  48.897  1.00  0.00     0.095 C 
ENDBRANCH  13  14
BRANCH  12  16
HETATM   16  O1  UNL     1      24.533   4.401  51.955  1.00  0.00    -0.344 OA
HETATM   17  H5  UNL     1      25.306   4.559  52.570  1.00  0.00     0.219 HD
ENDBRANCH  12  16
ENDBRANCH   1  12
BRANCH   3  18
HETATM   18  C5  UNL     1      20.833   0.191  52.309  1.00  0.00    -0.009 A 
HETATM   19  C6  UNL     1      19.980   0.497  51.265  1.00  0.00     0.013 A 
HETATM   20  C7  UNL     1      18.649   0.134  51.232  1.00  0.00     0.001 A 
HETATM   21  C8  UNL     1      18.106  -0.577  52.285  1.00  0.00     0.000 A 
HETATM   22  C9  UNL     1      18.934  -0.899  53.347  1.00  0.00     0.001 A 
HETATM   23  C10 UNL     1      20.262  -0.526  53.362  1.00  0.00     0.013 A 
ENDBRANCH   3  18
TORSDOF 4
ENDMDL
MODEL 6
REMARK VINA RESULT:      -7.1      7.020     10.135
REMARK  4 active torsions:
REMARK  status: ('A' for Active; 'I' for Inactive)
REMARK    1  A    between atoms: S1_2  and  C2_3 
REMARK    2  A    between atoms: C3_4  and  O1_5 
REMARK    3  A    between atoms: C3_4  and  N1_6 
REMARK    4  A    between atoms: C4_8  and  C5_9 
ROOT
HETATM    1  N1  UNL     1      30.519   5.506  47.821  1.00  0.00    -0.213 N 
HETATM    2  N2  UNL     1      29.308   4.997  48.307  1.00  0.00    -0.169 NA
HETATM    3  C4  UNL     1      28.216   5.724  48.266  1.00  0.00     0.069 A 
HETATM    4  C11 UNL     1      28.149   7.103  47.727  1.00  0.00     0.098 A 
HETATM    5  C12 UNL     1      29.448   7.611  47.222  1.00  0.00    -0.044 A 
HETATM    6  C13 UNL     1      30.529   6.822  47.290  1.00  0.00     0.057 A 
HETATM    7  C14 UNL     1      31.728   7.473  46.773  1.00  0.00     0.054 A 
HETATM    8  C15 UNL     1      32.457   8.487  45.843  1.00  0.00     0.024 A 
HETATM    9  P1  UNL     1      30.973   8.527  45.471  1.00  0.00    -0.115 P 
HETATM   10  C16 UNL     1      29.622   9.001  46.639  1.00  0.00     0.066 C 
HETATM   11  H13 UNL     1      30.502   7.710  44.387  1.00  0.00     0.055 HD
ENDROOT
BRANCH   1  12
HETATM   12  C3  UNL     1      31.679   4.691  47.889  1.00  0.00     0.169 C 
HETATM   13  C2  UNL     1      32.097   3.908  46.916  1.00  0.00     0.102 C 
BRANCH  13  14
HETATM   14  S1  UNL     1      33.574   2.951  47.166  1.00  0.00    -0.142 SA
HETATM   15  C1  UNL     1      34.935   3.453  46.093  1.00  0.00     0.095 C 
ENDBRANCH  13  14
BRANCH  12  16
HETATM   16  O1  UNL     1      32.451   4.692  49.042  1.00  0.00    -0.344 OA
HETATM   17  H5  UNL     1      32.709   5.531  49.522  1.00  0.00     0.219 HD
ENDBRANCH  12  16
ENDBRANCH   1  12
BRANCH   3  18
HETATM   18  C5  UNL     1      26.971   5.182  48.773  1.00  0.00    -0.009 A 
HETATM   19  C6  UNL     1      26.827   3.924  49.330  1.00  0.00     0.013 A 
HETATM   20  C7  UNL     1      25.629   3.431  49.806  1.00  0.00     0.001 A 
HETATM   21  C8  UNL     1      24.490   4.211  49.736  1.00  0.00     0.000 A 
HETATM   22  C9  UNL     1      24.600   5.475  49.183  1.00  0.00     0.001 A 
HETATM   23  C10 UNL     1      25.807   5.951  48.712  1.00  0.00     0.013 A 
ENDBRANCH   3  18
TORSDOF 4
ENDMDL
MODEL 7
REMARK VINA RESULT:      -7.0      2.749      4.298
REMARK  4 active torsions:
REMARK  status: ('A' for Active; 'I' for Inactive)
REMARK    1  A    between atoms: S1_2  and  C2_3 
REMARK    2  A    between atoms: C3_4  and  O1_5 
REMARK    3  A    between atoms: C3_4  and  N1_6 
REMARK    4  A    between atoms: C4_8  and  C5_9 
ROOT
HETATM    1  N1  UNL     1      23.950   2.145  51.143  1.00  0.00    -0.213 N 
HETATM    2  N2  UNL     1      24.919   1.419  51.846  1.00  0.00    -0.169 NA
HETATM    3  C4  UNL     1      26.192   1.717  51.727  1.00  0.00     0.069 A 
HETATM    4  C11 UNL     1      26.720   2.805  50.872  1.00  0.00     0.098 A 
HETATM    5  C12 UNL     1      25.668   3.553  50.140  1.00  0.00    -0.044 A 
HETATM    6  C13 UNL     1      24.384   3.203  50.303  1.00  0.00     0.057 A 
HETATM    7  C14 UNL     1      23.478   4.019  49.502  1.00  0.00     0.054 A 
HETATM    8  C15 UNL     1      23.085   5.340  48.778  1.00  0.00     0.024 A 
HETATM    9  P1  UNL     1      24.398   5.609  49.515  1.00  0.00    -0.115 P 
HETATM   10  C16 UNL     1      25.974   4.699  49.194  1.00  0.00     0.066 C 
HETATM   11  H13 UNL     1      24.356   6.193  50.827  1.00  0.00     0.055 HD
ENDROOT
BRANCH   1  12
HETATM   12  C3  UNL     1      22.586   1.787  51.293  1.00  0.00     0.169 C 
HETATM   13  C2  UNL     1      21.829   2.147  52.310  1.00  0.00     0.102 C 
BRANCH  13  14
HETATM   14  S1  UNL     1      20.135   1.611  52.344  1.00  0.00    -0.142 SA
HETATM   15  C1  UNL     1      19.000   2.800  51.599  1.00  0.00     0.095 C 
ENDBRANCH  13  14
BRANCH  12  16
HETATM   16  O1  UNL     1      21.971   1.007  50.325  1.00  0.00    -0.344 OA
HETATM   17  H5  UNL     1      22.217   0.052  50.159  1.00  0.00     0.219 HD
ENDBRANCH  12  16
ENDBRANCH   1  12
BRANCH   3  18
HETATM   18  C5  UNL     1      27.182   0.955  52.463  1.00  0.00    -0.009 A 
HETATM   19  C6  UNL     1      27.218  -0.425  52.540  1.00  0.00     0.013 A 
HETATM   20  C7  UNL     1      28.172  -1.127  53.248  1.00  0.00     0.001 A 
HETATM   21  C8  UNL     1      29.161  -0.444  53.930  1.00  0.00     0.000 A 
HETATM   22  C9  UNL     1      29.152   0.939  53.874  1.00  0.00     0.001 A 
HETATM   23  C10 UNL     1      28.189   1.624  53.161  1.00  0.00     0.013 A 
ENDBRANCH   3  18
TORSDOF 4
ENDMDL
MODEL 8
REMARK VINA RESULT:      -6.9      2.663      5.990
REMARK  4 active torsions:
REMARK  status: ('A' for Active; 'I' for Inactive)
REMARK    1  A    between atoms: S1_2  and  C2_3 
REMARK    2  A    between atoms: C3_4  and  O1_5 
REMARK    3  A    between atoms: C3_4  and  N1_6 
REMARK    4  A    between atoms: C4_8  and  C5_9 
ROOT
HETATM    1  N1  UNL     1      25.203   1.835  52.540  1.00  0.00    -0.213 N 
HETATM    2  N2  UNL     1      24.210   0.984  53.039  1.00  0.00    -0.169 NA
HETATM    3  C4  UNL     1      22.990   1.031  52.560  1.00  0.00     0.069 A 
HETATM    4  C11 UNL     1      22.547   1.950  51.485  1.00  0.00     0.098 A 
HETATM    5  C12 UNL     1      23.622   2.839  50.980  1.00  0.00    -0.044 A 
HETATM    6  C13 UNL     1      24.851   2.745  51.509  1.00  0.00     0.057 A 
HETATM    7  C14 UNL     1      25.786   3.697  50.920  1.00  0.00     0.054 A 
HETATM    8  C15 UNL     1      26.297   4.586  49.748  1.00  0.00     0.024 A 
HETATM    9  P1  UNL     1      25.114   3.778  49.212  1.00  0.00    -0.115 P 
HETATM   10  C16 UNL     1      23.398   3.873  49.892  1.00  0.00     0.066 C 
HETATM   11  H13 UNL     1      25.366   2.542  48.524  1.00  0.00     0.055 HD
ENDROOT
BRANCH   1  12
HETATM   12  C3  UNL     1      26.509   1.759  53.090  1.00  0.00     0.169 C 
HETATM   13  C2  UNL     1      27.392   0.830  52.786  1.00  0.00     0.102 C 
BRANCH  13  14
HETATM   14  S1  UNL     1      28.987   0.880  53.569  1.00  0.00    -0.142 SA
HETATM   15  C1  UNL     1      29.727  -0.752  53.776  1.00  0.00     0.095 C 
ENDBRANCH  13  14
BRANCH  12  16
HETATM   16  O1  UNL     1      26.921   2.710  54.013  1.00  0.00    -0.344 OA
HETATM   17  H5  UNL     1      26.963   2.530  54.996  1.00  0.00     0.219 HD
ENDBRANCH  12  16
ENDBRANCH   1  12
BRANCH   3  18
HETATM   18  C5  UNL     1      21.974   0.141  53.088  1.00  0.00    -0.009 A 
HETATM   19  C6  UNL     1      20.616   0.269  52.858  1.00  0.00     0.013 A 
HETATM   20  C7  UNL     1      19.669  -0.592  53.372  1.00  0.00     0.001 A 
HETATM   21  C8  UNL     1      20.064  -1.652  54.166  1.00  0.00     0.000 A 
HETATM   22  C9  UNL     1      21.416  -1.808  54.416  1.00  0.00     0.001 A 
HETATM   23  C10 UNL     1      22.349  -0.936  53.893  1.00  0.00     0.013 A 
ENDBRANCH   3  18
TORSDOF 4
ENDMDL
MODEL 9
REMARK VINA RESULT:      -6.9      6.913      9.729
REMARK  4 active torsions:
REMARK  status: ('A' for Active; 'I' for Inactive)
REMARK    1  A    between atoms: S1_2  and  C2_3 
REMARK    2  A    between atoms: C3_4  and  O1_5 
REMARK    3  A    between atoms: C3_4  and  N1_6 
REMARK    4  A    between atoms: C4_8  and  C5_9 
ROOT
HETATM    1  N1  UNL     1      29.544   8.144  48.719  1.00  0.00    -0.213 N 
HETATM    2  N2  UNL     1      28.234   7.662  48.819  1.00  0.00    -0.169 NA
HETATM    3  C4  UNL     1      27.968   6.399  48.576  1.00  0.00     0.069 A 
HETATM    4  C11 UNL     1      28.982   5.392  48.185  1.00  0.00     0.098 A 
HETATM    5  C12 UNL     1      30.359   5.936  48.087  1.00  0.00    -0.044 A 
HETATM    6  C13 UNL     1      30.568   7.234  48.347  1.00  0.00     0.057 A 
HETATM    7  C14 UNL     1      31.967   7.617  48.187  1.00  0.00     0.054 A 
HETATM    8  C15 UNL     1      33.493   7.309  48.205  1.00  0.00     0.024 A 
HETATM    9  P1  UNL     1      32.778   6.047  48.692  1.00  0.00    -0.115 P 
HETATM   10  C16 UNL     1      31.555   5.093  47.687  1.00  0.00     0.066 C 
HETATM   11  H13 UNL     1      32.613   5.839  50.105  1.00  0.00     0.055 HD
ENDROOT
BRANCH   1  12
HETATM   12  C3  UNL     1      29.789   9.517  48.982  1.00  0.00     0.169 C 
HETATM   13  C2  UNL     1      29.607  10.487  48.110  1.00  0.00     0.102 C 
BRANCH  13  14
HETATM   14  S1  UNL     1      29.963  12.157  48.604  1.00  0.00    -0.142 SA
HETATM   15  C1  UNL     1      28.481  13.122  48.961  1.00  0.00     0.095 C 
ENDBRANCH  13  14
BRANCH  12  16
HETATM   16  O1  UNL     1      30.251   9.903  50.232  1.00  0.00    -0.344 OA
HETATM   17  H5  UNL     1      30.739  10.762  50.390  1.00  0.00     0.219 HD
ENDBRANCH  12  16
ENDBRANCH   1  12
BRANCH   3  18
HETATM   18  C5  UNL     1      26.606   5.916  48.686  1.00  0.00    -0.009 A 
HETATM   19  C6  UNL     1      25.483   6.629  48.308  1.00  0.00     0.013 A 
HETATM   20  C7  UNL     1      24.196   6.146  48.423  1.00  0.00     0.001 A 
HETATM   21  C8  UNL     1      23.981   4.883  48.939  1.00  0.00     0.000 A 
HETATM   22  C9  UNL     1      25.084   4.142  49.327  1.00  0.00     0.001 A 
HETATM   23  C10 UNL     1      26.364   4.643  49.206  1.00  0.00     0.013 A 
ENDBRANCH   3  18
TORSDOF 4
ENDMDL
