MODEL 1
REMARK VINA RESULT:      -7.4      0.000      0.000
REMARK  7 active torsions:
REMARK  status: ('A' for Active; 'I' for Inactive)
REMARK    1  A    between atoms: N1_1  and  C1_2 
REMARK    2  A    between atoms: C1_2  and  C10_16 
REMARK    3  A    between atoms: C4_5  and  S1_6 
REMARK    4  A    between atoms: S1_6  and  C5_8 
REMARK    5  A    between atoms: S1_6  and  C6_10 
REMARK    6  A    between atoms: C6_10  and  C7_11 
REMARK    7  A    between atoms: C7_11  and  O3_12 
ROOT
HETATM    1  C1  UNL     1      25.903   0.145  53.572  1.00  0.00     0.024 C 
HETATM    2  C2  UNL     1      25.052   0.773  52.804  1.00  0.00    -0.029 A 
HETATM    3  C3  UNL     1      23.643   0.555  53.114  1.00  0.00     0.050 A 
HETATM    4  C4  UNL     1      22.661   1.118  52.418  1.00  0.00     0.119 A 
HETATM    5  N2  UNL     1      22.994   1.981  51.309  1.00  0.00    -0.256 NA
HETATM    6  C8  UNL     1      24.261   2.180  51.027  1.00  0.00     0.095 A 
HETATM    7  C9  UNL     1      25.492   1.638  51.689  1.00  0.00     0.087 A 
ENDROOT
BRANCH   1   8
HETATM    8  N1  UNL     1      25.374  -0.674  54.611  1.00  0.00    -0.302 NA
HETATM    9  H1  UNL     1      25.218  -1.711  54.651  1.00  0.00     0.124 HD
HETATM   10  H2  UNL     1      25.012  -1.382  55.274  1.00  0.00     0.124 HD
ENDBRANCH   1   8
BRANCH   1  11
HETATM   11  C10 UNL     1      27.338   0.071  53.687  1.00  0.00     0.003 A 
HETATM   12  C11 UNL     1      28.152   1.016  54.290  1.00  0.00     0.014 A 
HETATM   13  C12 UNL     1      29.519   0.954  54.379  1.00  0.00     0.001 A 
HETATM   14  C13 UNL     1      30.142  -0.139  53.827  1.00  0.00     0.001 A 
HETATM   15  C14 UNL     1      29.444  -1.147  53.202  1.00  0.00     0.020 A 
HETATM   16  C15 UNL     1      28.079  -0.995  53.162  1.00  0.00     0.023 A 
HETATM   17 BR1  UNL     1      27.058  -2.371  52.297  1.00  0.00    -0.050 Br
ENDBRANCH   1  11
BRANCH   4  18
HETATM   18  S1  UNL     1      20.978   0.909  52.725  1.00  0.00     0.067 S 
HETATM   19  O1  UNL     1      20.395  -0.019  51.722  1.00  0.00    -0.256 OA
BRANCH  18  20
HETATM   20  C5  UNL     1      20.195   2.283  52.636  1.00  0.00     0.291 C 
HETATM   21  O2  UNL     1      19.750   3.435  52.456  1.00  0.00    -0.274 OA
ENDBRANCH  18  20
BRANCH  18  22
HETATM   22  C6  UNL     1      20.663   0.227  54.345  1.00  0.00     0.137 C 
BRANCH  22  23
HETATM   23  C7  UNL     1      20.722  -1.289  54.227  1.00  0.00     0.176 C 
BRANCH  23  24
HETATM   24  O3  UNL     1      21.724  -1.803  55.042  1.00  0.00    -0.400 OA
HETATM   25  H8  UNL     1      22.573  -1.330  55.008  1.00  0.00     0.209 HD
ENDBRANCH  23  24
ENDBRANCH  22  23
ENDBRANCH  18  22
ENDBRANCH   4  18
TORSDOF 7
ENDMDL
MODEL 2
REMARK VINA RESULT:      -7.2      1.685      2.426
REMARK  7 active torsions:
REMARK  status: ('A' for Active; 'I' for Inactive)
REMARK    1  A    between atoms: N1_1  and  C1_2 
REMARK    2  A    between atoms: C1_2  and  C10_16 
REMARK    3  A    between atoms: C4_5  and  S1_6 
REMARK    4  A    between atoms: S1_6  and  C5_8 
REMARK    5  A    between atoms: S1_6  and  C6_10 
REMARK    6  A    between atoms: C6_10  and  C7_11 
REMARK    7  A    between atoms: C7_11  and  O3_12 
ROOT
HETATM    1  C1  UNL     1      25.711   0.408  53.081  1.00  0.00     0.024 C 
HETATM    2  C2  UNL     1      24.595  -0.027  53.601  1.00  0.00    -0.029 A 
HETATM    3  C3  UNL     1      23.378   0.352  52.892  1.00  0.00     0.050 A 
HETATM    4  C4  UNL     1      22.167  -0.008  53.304  1.00  0.00     0.119 A 
HETATM    5  N2  UNL     1      22.043  -0.806  54.501  1.00  0.00    -0.256 NA
HETATM    6  C8  UNL     1      23.136  -1.150  55.142  1.00  0.00     0.095 A 
HETATM    7  C9  UNL     1      24.570  -0.842  54.835  1.00  0.00     0.087 A 
ENDROOT
BRANCH   1   8
HETATM    8  N1  UNL     1      25.625   1.196  51.897  1.00  0.00    -0.302 NA
HETATM    9  H1  UNL     1      26.306   1.875  51.477  1.00  0.00     0.124 HD
HETATM   10  H2  UNL     1      25.695   1.819  51.073  1.00  0.00     0.124 HD
ENDBRANCH   1   8
BRANCH   1  11
HETATM   11  C10 UNL     1      27.116   0.275  53.377  1.00  0.00     0.003 A 
HETATM   12  C11 UNL     1      27.916   1.245  53.961  1.00  0.00     0.014 A 
HETATM   13  C12 UNL     1      29.256   1.124  54.222  1.00  0.00     0.001 A 
HETATM   14  C13 UNL     1      29.866  -0.059  53.881  1.00  0.00     0.001 A 
HETATM   15  C14 UNL     1      29.180  -1.098  53.296  1.00  0.00     0.020 A 
HETATM   16  C15 UNL     1      27.841  -0.883  53.073  1.00  0.00     0.023 A 
HETATM   17 BR1  UNL     1      26.839  -2.301  52.256  1.00  0.00    -0.050 Br
ENDBRANCH   1  11
BRANCH   4  18
HETATM   18  S1  UNL     1      20.688   0.401  52.519  1.00  0.00     0.067 S 
HETATM   19  O1  UNL     1      20.818   0.185  51.055  1.00  0.00    -0.256 OA
BRANCH  18  20
HETATM   20  C5  UNL     1      20.302   1.918  52.759  1.00  0.00     0.291 C 
HETATM   21  O2  UNL     1      19.947   3.114  52.738  1.00  0.00    -0.274 OA
ENDBRANCH  18  20
BRANCH  18  22
HETATM   22  C6  UNL     1      19.318  -0.589  53.094  1.00  0.00     0.137 C 
BRANCH  22  23
HETATM   23  C7  UNL     1      18.063  -0.092  52.393  1.00  0.00     0.176 C 
BRANCH  23  24
HETATM   24  O3  UNL     1      18.110  -0.394  51.037  1.00  0.00    -0.400 OA
HETATM   25  H8  UNL     1      18.858  -0.007  50.550  1.00  0.00     0.209 HD
ENDBRANCH  23  24
ENDBRANCH  22  23
ENDBRANCH  18  22
ENDBRANCH   4  18
TORSDOF 7
ENDMDL
MODEL 3
REMARK VINA RESULT:      -7.2      4.256      7.150
REMARK  7 active torsions:
REMARK  status: ('A' for Active; 'I' for Inactive)
REMARK    1  A    between atoms: N1_1  and  C1_2 
REMARK    2  A    between atoms: C1_2  and  C10_16 
REMARK    3  A    between atoms: C4_5  and  S1_6 
REMARK    4  A    between atoms: S1_6  and  C5_8 
REMARK    5  A    between atoms: S1_6  and  C6_10 
REMARK    6  A    between atoms: C6_10  and  C7_11 
REMARK    7  A    between atoms: C7_11  and  O3_12 
ROOT
HETATM    1  C1  UNL     1      25.149   2.787  51.106  1.00  0.00     0.024 C 
HETATM    2  C2  UNL     1      25.232   1.755  51.904  1.00  0.00    -0.029 A 
HETATM    3  C3  UNL     1      26.549   1.509  52.481  1.00  0.00     0.050 A 
HETATM    4  C4  UNL     1      26.793   0.494  53.303  1.00  0.00     0.119 A 
HETATM    5  N2  UNL     1      25.715  -0.405  53.643  1.00  0.00    -0.256 NA
HETATM    6  C8  UNL     1      24.528  -0.187  53.126  1.00  0.00     0.095 A 
HETATM    7  C9  UNL     1      24.068   0.890  52.191  1.00  0.00     0.087 A 
ENDROOT
BRANCH   1   8
HETATM    8  N1  UNL     1      26.333   3.548  50.885  1.00  0.00    -0.302 NA
HETATM    9  H1  UNL     1      26.688   4.413  51.362  1.00  0.00     0.124 HD
HETATM   10  H2  UNL     1      27.145   4.187  50.833  1.00  0.00     0.124 HD
ENDBRANCH   1   8
BRANCH   1  11
HETATM   11  C10 UNL     1      24.103   3.436  50.355  1.00  0.00     0.003 A 
HETATM   12  C11 UNL     1      23.839   3.250  49.007  1.00  0.00     0.014 A 
HETATM   13  C12 UNL     1      22.858   3.885  48.290  1.00  0.00     0.001 A 
HETATM   14  C13 UNL     1      22.062   4.783  48.959  1.00  0.00     0.001 A 
HETATM   15  C14 UNL     1      22.224   5.054  50.298  1.00  0.00     0.020 A 
HETATM   16  C15 UNL     1      23.233   4.370  50.931  1.00  0.00     0.023 A 
HETATM   17 BR1  UNL     1      23.504   4.714  52.799  1.00  0.00    -0.050 Br
ENDBRANCH   1  11
BRANCH   4  18
HETATM   18  S1  UNL     1      28.319   0.142  54.023  1.00  0.00     0.067 S 
HETATM   19  O1  UNL     1      28.115  -0.578  55.306  1.00  0.00    -0.256 OA
BRANCH  18  20
HETATM   20  C5  UNL     1      29.138   1.463  54.325  1.00  0.00     0.291 C 
HETATM   21  O2  UNL     1      29.673   2.507  54.749  1.00  0.00    -0.274 OA
ENDBRANCH  18  20
BRANCH  18  22
HETATM   22  C6  UNL     1      29.340  -0.886  52.979  1.00  0.00     0.137 C 
BRANCH  22  23
HETATM   23  C7  UNL     1      29.135  -2.330  53.410  1.00  0.00     0.176 C 
BRANCH  23  24
HETATM   24  O3  UNL     1      27.855  -2.761  53.078  1.00  0.00    -0.400 OA
HETATM   25  H8  UNL     1      27.467  -2.345  52.290  1.00  0.00     0.209 HD
ENDBRANCH  23  24
ENDBRANCH  22  23
ENDBRANCH  18  22
ENDBRANCH   4  18
TORSDOF 7
ENDMDL
MODEL 4
REMARK VINA RESULT:      -7.1      2.288      3.539
REMARK  7 active torsions:
REMARK  status: ('A' for Active; 'I' for Inactive)
REMARK    1  A    between atoms: N1_1  and  C1_2 
REMARK    2  A    between atoms: C1_2  and  C10_16 
REMARK    3  A    between atoms: C4_5  and  S1_6 
REMARK    4  A    between atoms: S1_6  and  C5_8 
REMARK    5  A    between atoms: S1_6  and  C6_10 
REMARK    6  A    between atoms: C6_10  and  C7_11 
REMARK    7  A    between atoms: C7_11  and  O3_12 
ROOT
HETATM    1  C1  UNL     1      25.830   0.398  52.431  1.00  0.00     0.024 C 
HETATM    2  C2  UNL     1      24.587   0.400  52.834  1.00  0.00    -0.029 A 
HETATM    3  C3  UNL     1      23.708   1.353  52.165  1.00  0.00     0.050 A 
HETATM    4  C4  UNL     1      22.421   1.478  52.471  1.00  0.00     0.119 A 
HETATM    5  N2  UNL     1      21.863   0.642  53.508  1.00  0.00    -0.256 NA
HETATM    6  C8  UNL     1      22.651  -0.217  54.113  1.00  0.00     0.095 A 
HETATM    7  C9  UNL     1      24.109  -0.498  53.907  1.00  0.00     0.087 A 
ENDROOT
BRANCH   1   8
HETATM    8  N1  UNL     1      26.191   1.312  51.399  1.00  0.00    -0.302 NA
HETATM    9  H1  UNL     1      25.755   1.489  50.461  1.00  0.00     0.124 HD
HETATM   10  H2  UNL     1      26.338   1.921  50.576  1.00  0.00     0.124 HD
ENDBRANCH   1   8
BRANCH   1  11
HETATM   11  C10 UNL     1      27.021  -0.353  52.743  1.00  0.00     0.003 A 
HETATM   12  C11 UNL     1      27.191  -1.715  52.556  1.00  0.00     0.014 A 
HETATM   13  C12 UNL     1      28.317  -2.431  52.874  1.00  0.00     0.001 A 
HETATM   14  C13 UNL     1      29.373  -1.743  53.422  1.00  0.00     0.001 A 
HETATM   15  C14 UNL     1      29.326  -0.388  53.656  1.00  0.00     0.020 A 
HETATM   16  C15 UNL     1      28.156   0.242  53.306  1.00  0.00     0.023 A 
HETATM   17 BR1  UNL     1      28.039   2.132  53.615  1.00  0.00    -0.050 Br
ENDBRANCH   1  11
BRANCH   4  18
HETATM   18  S1  UNL     1      21.324   2.578  51.725  1.00  0.00     0.067 S 
HETATM   19  O1  UNL     1      20.435   3.178  52.752  1.00  0.00    -0.256 OA
BRANCH  18  20
HETATM   20  C5  UNL     1      20.413   1.852  50.651  1.00  0.00     0.291 C 
HETATM   21  O2  UNL     1      19.786   1.100  49.879  1.00  0.00    -0.274 OA
ENDBRANCH  18  20
BRANCH  18  22
HETATM   22  C6  UNL     1      22.164   3.912  50.888  1.00  0.00     0.137 C 
BRANCH  22  23
HETATM   23  C7  UNL     1      21.900   5.189  51.672  1.00  0.00     0.176 C 
BRANCH  23  24
HETATM   24  O3  UNL     1      22.618   5.189  52.862  1.00  0.00    -0.400 OA
HETATM   25  H8  UNL     1      22.447   5.942  53.452  1.00  0.00     0.209 HD
ENDBRANCH  23  24
ENDBRANCH  22  23
ENDBRANCH  18  22
ENDBRANCH   4  18
TORSDOF 7
ENDMDL
MODEL 5
REMARK VINA RESULT:      -7.0      3.870      6.900
REMARK  7 active torsions:
REMARK  status: ('A' for Active; 'I' for Inactive)
REMARK    1  A    between atoms: N1_1  and  C1_2 
REMARK    2  A    between atoms: C1_2  and  C10_16 
REMARK    3  A    between atoms: C4_5  and  S1_6 
REMARK    4  A    between atoms: S1_6  and  C5_8 
REMARK    5  A    between atoms: S1_6  and  C6_10 
REMARK    6  A    between atoms: C6_10  and  C7_11 
REMARK    7  A    between atoms: C7_11  and  O3_12 
ROOT
HETATM    1  C1  UNL     1      23.744   3.419  51.512  1.00  0.00     0.024 C 
HETATM    2  C2  UNL     1      23.543   2.277  52.114  1.00  0.00    -0.029 A 
HETATM    3  C3  UNL     1      24.741   1.596  52.592  1.00  0.00     0.050 A 
HETATM    4  C4  UNL     1      24.699   0.424  53.215  1.00  0.00     0.119 A 
HETATM    5  N2  UNL     1      23.418  -0.207  53.433  1.00  0.00    -0.256 NA
HETATM    6  C8  UNL     1      22.336   0.403  53.005  1.00  0.00     0.095 A 
HETATM    7  C9  UNL     1      22.188   1.711  52.289  1.00  0.00     0.087 A 
ENDROOT
BRANCH   1   8
HETATM    8  N1  UNL     1      25.089   3.870  51.384  1.00  0.00    -0.302 NA
HETATM    9  H1  UNL     1      25.511   4.591  50.748  1.00  0.00     0.124 HD
HETATM   10  H2  UNL     1      26.016   4.287  51.186  1.00  0.00     0.124 HD
ENDBRANCH   1   8
BRANCH   1  11
HETATM   11  C10 UNL     1      22.915   4.442  50.923  1.00  0.00     0.003 A 
HETATM   12  C11 UNL     1      22.497   5.605  51.550  1.00  0.00     0.014 A 
HETATM   13  C12 UNL     1      21.691   6.566  50.996  1.00  0.00     0.001 A 
HETATM   14  C13 UNL     1      21.260   6.367  49.706  1.00  0.00     0.001 A 
HETATM   15  C14 UNL     1      21.608   5.253  48.978  1.00  0.00     0.020 A 
HETATM   16  C15 UNL     1      22.417   4.346  49.618  1.00  0.00     0.023 A 
HETATM   17 BR1  UNL     1      22.929   2.773  48.647  1.00  0.00    -0.050 Br
ENDBRANCH   1  11
BRANCH   4  18
HETATM   18  S1  UNL     1      26.069  -0.438  53.807  1.00  0.00     0.067 S 
HETATM   19  O1  UNL     1      25.691  -1.215  55.015  1.00  0.00    -0.256 OA
BRANCH  18  20
HETATM   20  C5  UNL     1      27.247   0.544  54.204  1.00  0.00     0.291 C 
HETATM   21  O2  UNL     1      28.024   1.422  54.629  1.00  0.00    -0.274 OA
ENDBRANCH  18  20
BRANCH  18  22
HETATM   22  C6  UNL     1      26.720  -1.585  52.604  1.00  0.00     0.137 C 
BRANCH  22  23
HETATM   23  C7  UNL     1      28.143  -1.930  53.018  1.00  0.00     0.176 C 
BRANCH  23  24
HETATM   24  O3  UNL     1      28.372  -3.296  52.887  1.00  0.00    -0.400 OA
HETATM   25  H8  UNL     1      28.926  -3.554  52.131  1.00  0.00     0.209 HD
ENDBRANCH  23  24
ENDBRANCH  22  23
ENDBRANCH  18  22
ENDBRANCH   4  18
TORSDOF 7
ENDMDL
MODEL 6
REMARK VINA RESULT:      -6.9      2.181      2.902
REMARK  7 active torsions:
REMARK  status: ('A' for Active; 'I' for Inactive)
REMARK    1  A    between atoms: N1_1  and  C1_2 
REMARK    2  A    between atoms: C1_2  and  C10_16 
REMARK    3  A    between atoms: C4_5  and  S1_6 
REMARK    4  A    between atoms: S1_6  and  C5_8 
REMARK    5  A    between atoms: S1_6  and  C6_10 
REMARK    6  A    between atoms: C6_10  and  C7_11 
REMARK    7  A    between atoms: C7_11  and  O3_12 
ROOT
HETATM    1  C1  UNL     1      26.143   0.387  52.483  1.00  0.00     0.024 C 
HETATM    2  C2  UNL     1      24.893   0.360  52.860  1.00  0.00    -0.029 A 
HETATM    3  C3  UNL     1      24.006   1.293  52.175  1.00  0.00     0.050 A 
HETATM    4  C4  UNL     1      22.711   1.388  52.455  1.00  0.00     0.119 A 
HETATM    5  N2  UNL     1      22.151   0.535  53.478  1.00  0.00    -0.256 NA
HETATM    6  C8  UNL     1      22.946  -0.307  54.097  1.00  0.00     0.095 A 
HETATM    7  C9  UNL     1      24.414  -0.553  53.921  1.00  0.00     0.087 A 
ENDROOT
BRANCH   1   8
HETATM    8  N1  UNL     1      26.504   1.313  51.461  1.00  0.00    -0.302 NA
HETATM    9  H1  UNL     1      26.208   1.370  50.456  1.00  0.00     0.124 HD
HETATM   10  H2  UNL     1      26.677   1.907  50.632  1.00  0.00     0.124 HD
ENDBRANCH   1   8
BRANCH   1  11
HETATM   11  C10 UNL     1      27.345  -0.336  52.817  1.00  0.00     0.003 A 
HETATM   12  C11 UNL     1      27.540  -1.699  52.660  1.00  0.00     0.014 A 
HETATM   13  C12 UNL     1      28.676  -2.388  52.999  1.00  0.00     0.001 A 
HETATM   14  C13 UNL     1      29.716  -1.671  53.539  1.00  0.00     0.001 A 
HETATM   15  C14 UNL     1      29.646  -0.313  53.745  1.00  0.00     0.020 A 
HETATM   16  C15 UNL     1      28.467   0.289  53.375  1.00  0.00     0.023 A 
HETATM   17 BR1  UNL     1      28.316   2.183  53.643  1.00  0.00    -0.050 Br
ENDBRANCH   1  11
BRANCH   4  18
HETATM   18  S1  UNL     1      21.604   2.464  51.689  1.00  0.00     0.067 S 
HETATM   19  O1  UNL     1      21.520   2.152  50.239  1.00  0.00    -0.256 OA
BRANCH  18  20
HETATM   20  C5  UNL     1      22.060   3.973  51.840  1.00  0.00     0.291 C 
HETATM   21  O2  UNL     1      22.620   5.083  51.950  1.00  0.00    -0.274 OA
ENDBRANCH  18  20
BRANCH  18  22
HETATM   22  C6  UNL     1      19.957   2.340  52.367  1.00  0.00     0.137 C 
BRANCH  22  23
HETATM   23  C7  UNL     1      19.157   1.408  51.470  1.00  0.00     0.176 C 
BRANCH  23  24
HETATM   24  O3  UNL     1      19.627   0.104  51.578  1.00  0.00    -0.400 OA
HETATM   25  H8  UNL     1      19.547  -0.436  50.773  1.00  0.00     0.209 HD
ENDBRANCH  23  24
ENDBRANCH  22  23
ENDBRANCH  18  22
ENDBRANCH   4  18
TORSDOF 7
ENDMDL
MODEL 7
REMARK VINA RESULT:      -6.7      4.895      6.814
REMARK  7 active torsions:
REMARK  status: ('A' for Active; 'I' for Inactive)
REMARK    1  A    between atoms: N1_1  and  C1_2 
REMARK    2  A    between atoms: C1_2  and  C10_16 
REMARK    3  A    between atoms: C4_5  and  S1_6 
REMARK    4  A    between atoms: S1_6  and  C5_8 
REMARK    5  A    between atoms: S1_6  and  C6_10 
REMARK    6  A    between atoms: C6_10  and  C7_11 
REMARK    7  A    between atoms: C7_11  and  O3_12 
ROOT
HETATM    1  C1  UNL     1      23.342   2.112  52.392  1.00  0.00     0.024 C 
HETATM    2  C2  UNL     1      23.332   2.509  51.147  1.00  0.00    -0.029 A 
HETATM    3  C3  UNL     1      24.166   3.668  50.848  1.00  0.00     0.050 A 
HETATM    4  C4  UNL     1      24.253   4.193  49.631  1.00  0.00     0.119 A 
HETATM    5  N2  UNL     1      23.495   3.597  48.555  1.00  0.00    -0.256 NA
HETATM    6  C8  UNL     1      22.744   2.553  48.820  1.00  0.00     0.095 A 
HETATM    7  C9  UNL     1      22.520   1.830  50.114  1.00  0.00     0.087 A 
ENDROOT
BRANCH   1   8
HETATM    8  N1  UNL     1      24.149   2.843  53.312  1.00  0.00    -0.302 NA
HETATM    9  H1  UNL     1      24.921   2.523  53.946  1.00  0.00     0.124 HD
HETATM   10  H2  UNL     1      24.800   3.244  54.008  1.00  0.00     0.124 HD
ENDBRANCH   1   8
BRANCH   1  11
HETATM   11  C10 UNL     1      22.740   1.039  53.144  1.00  0.00     0.003 A 
HETATM   12  C11 UNL     1      21.426   0.993  53.580  1.00  0.00     0.014 A 
HETATM   13  C12 UNL     1      20.862  -0.019  54.314  1.00  0.00     0.001 A 
HETATM   14  C13 UNL     1      21.663  -1.084  54.647  1.00  0.00     0.001 A 
HETATM   15  C14 UNL     1      22.985  -1.157  54.272  1.00  0.00     0.020 A 
HETATM   16  C15 UNL     1      23.460  -0.096  53.540  1.00  0.00     0.023 A 
HETATM   17 BR1  UNL     1      25.299  -0.145  52.994  1.00  0.00    -0.050 Br
ENDBRANCH   1  11
BRANCH   4  18
HETATM   18  S1  UNL     1      25.214   5.558  49.203  1.00  0.00     0.067 S 
HETATM   19  O1  UNL     1      24.653   6.208  47.991  1.00  0.00    -0.256 OA
BRANCH  18  20
HETATM   20  C5  UNL     1      26.709   5.140  48.887  1.00  0.00     0.291 C 
HETATM   21  O2  UNL     1      27.849   4.646  48.771  1.00  0.00    -0.274 OA
ENDBRANCH  18  20
BRANCH  18  22
HETATM   22  C6  UNL     1      25.271   6.782  50.500  1.00  0.00     0.137 C 
BRANCH  22  23
HETATM   23  C7  UNL     1      25.947   8.023  49.936  1.00  0.00     0.176 C 
BRANCH  23  24
HETATM   24  O3  UNL     1      26.974   8.443  50.774  1.00  0.00    -0.400 OA
HETATM   25  H8  UNL     1      27.505   7.732  51.171  1.00  0.00     0.209 HD
ENDBRANCH  23  24
ENDBRANCH  22  23
ENDBRANCH  18  22
ENDBRANCH   4  18
TORSDOF 7
ENDMDL
MODEL 8
REMARK VINA RESULT:      -6.5      6.492      8.791
REMARK  7 active torsions:
REMARK  status: ('A' for Active; 'I' for Inactive)
REMARK    1  A    between atoms: N1_1  and  C1_2 
REMARK    2  A    between atoms: C1_2  and  C10_16 
REMARK    3  A    between atoms: C4_5  and  S1_6 
REMARK    4  A    between atoms: S1_6  and  C5_8 
REMARK    5  A    between atoms: S1_6  and  C6_10 
REMARK    6  A    between atoms: C6_10  and  C7_11 
REMARK    7  A    between atoms: C7_11  and  O3_12 
ROOT
HETATM    1  C1  UNL     1      24.518   4.861  50.724  1.00  0.00     0.024 C 
HETATM    2  C2  UNL     1      25.537   5.283  50.022  1.00  0.00    -0.029 A 
HETATM    3  C3  UNL     1      25.698   6.730  49.952  1.00  0.00     0.050 A 
HETATM    4  C4  UNL     1      26.681   7.309  49.270  1.00  0.00     0.119 A 
HETATM    5  N2  UNL     1      27.631   6.478  48.568  1.00  0.00    -0.256 NA
HETATM    6  C8  UNL     1      27.489   5.174  48.630  1.00  0.00     0.095 A 
HETATM    7  C9  UNL     1      26.457   4.349  49.338  1.00  0.00     0.087 A 
ENDROOT
BRANCH   1   8
HETATM    8  N1  UNL     1      23.684   5.843  51.333  1.00  0.00    -0.302 NA
HETATM    9  H1  UNL     1      23.872   6.850  51.566  1.00  0.00     0.124 HD
HETATM   10  H2  UNL     1      23.194   6.648  51.760  1.00  0.00     0.124 HD
ENDBRANCH   1   8
BRANCH   1  11
HETATM   11  C10 UNL     1      23.980   3.579  51.107  1.00  0.00     0.003 A 
HETATM   12  C11 UNL     1      24.220   2.927  52.306  1.00  0.00     0.014 A 
HETATM   13  C12 UNL     1      23.725   1.698  52.659  1.00  0.00     0.001 A 
HETATM   14  C13 UNL     1      22.919   1.053  51.752  1.00  0.00     0.001 A 
HETATM   15  C14 UNL     1      22.607   1.597  50.528  1.00  0.00     0.020 A 
HETATM   16  C15 UNL     1      23.150   2.831  50.264  1.00  0.00     0.023 A 
HETATM   17 BR1  UNL     1      22.748   3.633  48.568  1.00  0.00    -0.050 Br
ENDBRANCH   1  11
BRANCH   4  18
HETATM   18  S1  UNL     1      26.935   9.009  49.142  1.00  0.00     0.067 S 
HETATM   19  O1  UNL     1      27.235   9.575  50.482  1.00  0.00    -0.256 OA
BRANCH  18  20
HETATM   20  C5  UNL     1      25.655   9.748  48.573  1.00  0.00     0.291 C 
HETATM   21  O2  UNL     1      24.586  10.134  48.060  1.00  0.00    -0.274 OA
ENDBRANCH  18  20
BRANCH  18  22
HETATM   22  C6  UNL     1      28.300   9.412  48.064  1.00  0.00     0.137 C 
BRANCH  22  23
HETATM   23  C7  UNL     1      29.525   9.646  48.936  1.00  0.00     0.176 C 
BRANCH  23  24
HETATM   24  O3  UNL     1      29.890   8.474  49.589  1.00  0.00    -0.400 OA
HETATM   25  H8  UNL     1      30.329   8.595  50.448  1.00  0.00     0.209 HD
ENDBRANCH  23  24
ENDBRANCH  22  23
ENDBRANCH  18  22
ENDBRANCH   4  18
TORSDOF 7
ENDMDL
MODEL 9
REMARK VINA RESULT:      -6.5      5.494      7.671
REMARK  7 active torsions:
REMARK  status: ('A' for Active; 'I' for Inactive)
REMARK    1  A    between atoms: N1_1  and  C1_2 
REMARK    2  A    between atoms: C1_2  and  C10_16 
REMARK    3  A    between atoms: C4_5  and  S1_6 
REMARK    4  A    between atoms: S1_6  and  C5_8 
REMARK    5  A    between atoms: S1_6  and  C6_10 
REMARK    6  A    between atoms: C6_10  and  C7_11 
REMARK    7  A    between atoms: C7_11  and  O3_12 
ROOT
HETATM    1  C1  UNL     1      23.765   3.325  51.342  1.00  0.00     0.024 C 
HETATM    2  C2  UNL     1      24.767   3.769  50.630  1.00  0.00    -0.029 A 
HETATM    3  C3  UNL     1      24.761   5.201  50.356  1.00  0.00     0.050 A 
HETATM    4  C4  UNL     1      25.707   5.798  49.639  1.00  0.00     0.119 A 
HETATM    5  N2  UNL     1      26.788   5.002  49.106  1.00  0.00    -0.256 NA
HETATM    6  C8  UNL     1      26.798   3.712  49.351  1.00  0.00     0.095 A 
HETATM    7  C9  UNL     1      25.830   2.871  50.128  1.00  0.00     0.087 A 
ENDROOT
BRANCH   1   8
HETATM    8  N1  UNL     1      22.787   4.270  51.766  1.00  0.00    -0.302 NA
HETATM    9  H1  UNL     1      21.781   4.383  51.489  1.00  0.00     0.124 HD
HETATM   10  H2  UNL     1      21.984   4.887  51.982  1.00  0.00     0.124 HD
ENDBRANCH   1   8
BRANCH   1  11
HETATM   11  C10 UNL     1      23.361   2.052  51.885  1.00  0.00     0.003 A 
HETATM   12  C11 UNL     1      23.869   1.463  53.032  1.00  0.00     0.014 A 
HETATM   13  C12 UNL     1      23.499   0.242  53.535  1.00  0.00     0.001 A 
HETATM   14  C13 UNL     1      22.539  -0.463  52.849  1.00  0.00     0.001 A 
HETATM   15  C14 UNL     1      21.958   0.015  51.697  1.00  0.00     0.020 A 
HETATM   16  C15 UNL     1      22.394   1.246  51.271  1.00  0.00     0.023 A 
HETATM   17 BR1  UNL     1      21.617   1.957  49.667  1.00  0.00    -0.050 Br
ENDBRANCH   1  11
BRANCH   4  18
HETATM   18  S1  UNL     1      25.766   7.481  49.275  1.00  0.00     0.067 S 
HETATM   19  O1  UNL     1      25.009   8.244  50.301  1.00  0.00    -0.256 OA
BRANCH  18  20
HETATM   20  C5  UNL     1      25.126   7.794  47.860  1.00  0.00     0.291 C 
HETATM   21  O2  UNL     1      24.434   8.024  46.848  1.00  0.00    -0.274 OA
ENDBRANCH  18  20
BRANCH  18  22
HETATM   22  C6  UNL     1      27.436   8.112  49.251  1.00  0.00     0.137 C 
BRANCH  22  23
HETATM   23  C7  UNL     1      27.408   9.516  49.838  1.00  0.00     0.176 C 
BRANCH  23  24
HETATM   24  O3  UNL     1      27.649   9.477  51.207  1.00  0.00    -0.400 OA
HETATM   25  H8  UNL     1      28.504   9.844  51.490  1.00  0.00     0.209 HD
ENDBRANCH  23  24
ENDBRANCH  22  23
ENDBRANCH  18  22
ENDBRANCH   4  18
TORSDOF 7
ENDMDL
