MODEL 1
REMARK VINA RESULT:      -9.3      0.000      0.000
REMARK  4 active torsions:
REMARK  status: ('A' for Active; 'I' for Inactive)
REMARK    1  A    between atoms: C5_5  and  C6_6 
REMARK    2  A    between atoms: N2_8  and  C7_9 
REMARK    3  A    between atoms: C8_11  and  O1_12 
REMARK    4  A    between atoms: C10_15  and  C11_16 
ROOT
HETATM    1  C6  UNL     1      22.824   0.260  53.176  1.00  0.00     0.067 A 
HETATM    2  N1  UNL     1      23.849  -0.523  53.235  1.00  0.00    -0.173 NA
HETATM    3  N2  UNL     1      25.043   0.197  53.221  1.00  0.00    -0.236 N 
HETATM    4  C10 UNL     1      24.737   1.614  53.152  1.00  0.00     0.152 A 
HETATM    5  C16 UNL     1      23.235   1.669  53.112  1.00  0.00     0.094 A 
ENDROOT
BRANCH   4   6
HETATM    6  C11 UNL     1      25.238   2.271  51.943  1.00  0.00    -0.018 A 
HETATM    7  C12 UNL     1      26.485   2.701  51.887  1.00  0.00     0.095 A 
HETATM    8  N4  UNL     1      26.949   3.334  50.706  1.00  0.00    -0.366 N 
HETATM    9  C13 UNL     1      26.168   3.568  49.507  1.00  0.00     0.292 A 
HETATM   10  H10 UNL     1      27.897   3.719  50.522  1.00  0.00     0.162 HD
HETATM   11  F1  UNL     1      26.144   4.907  49.182  1.00  0.00    -0.223 F 
HETATM   12  C14 UNL     1      24.807   3.026  49.743  1.00  0.00     0.032 A 
HETATM   13  C15 UNL     1      24.322   2.429  50.818  1.00  0.00     0.011 A 
ENDBRANCH   4   6
BRANCH   3  14
HETATM   14  C7  UNL     1      26.307  -0.460  53.269  1.00  0.00     0.192 A 
HETATM   15  N3  UNL     1      26.731  -1.497  53.015  1.00  0.00    -0.198 NA
HETATM   16  C8  UNL     1      27.972  -1.929  53.132  1.00  0.00     0.171 A 
HETATM   17  C9  UNL     1      28.891  -1.028  53.625  1.00  0.00     0.111 A 
HETATM   18  S1  UNL     1      27.885   0.431  53.897  1.00  0.00    -0.058 SA
BRANCH  16  19
HETATM   19  O1  UNL     1      28.296  -3.251  52.761  1.00  0.00    -0.344 OA
HETATM   20  H6  UNL     1      27.729  -3.733  52.079  1.00  0.00     0.219 HD
ENDBRANCH  16  19
ENDBRANCH   3  14
BRANCH   1  21
HETATM   21  C5  UNL     1      21.443  -0.211  53.175  1.00  0.00    -0.010 A 
HETATM   22  C4  UNL     1      20.992  -1.204  54.017  1.00  0.00     0.014 A 
HETATM   23  C3  UNL     1      19.679  -1.625  53.989  1.00  0.00     0.007 A 
HETATM   24  C2  UNL     1      18.757  -1.075  53.120  1.00  0.00    -0.062 A 
HETATM   25  C1  UNL     1      17.330  -1.434  52.991  1.00  0.00     0.048 C 
HETATM   26  C18 UNL     1      19.181  -0.075  52.263  1.00  0.00     0.007 A 
HETATM   27  C17 UNL     1      20.503   0.323  52.317  1.00  0.00     0.014 A 
ENDBRANCH   1  21
TORSDOF 4
ENDMDL
MODEL 2
REMARK VINA RESULT:      -8.8      3.247      5.699
REMARK  4 active torsions:
REMARK  status: ('A' for Active; 'I' for Inactive)
REMARK    1  A    between atoms: C5_5  and  C6_6 
REMARK    2  A    between atoms: N2_8  and  C7_9 
REMARK    3  A    between atoms: C8_11  and  O1_12 
REMARK    4  A    between atoms: C10_15  and  C11_16 
ROOT
HETATM    1  C6  UNL     1      23.216   2.617  50.714  1.00  0.00     0.067 A 
HETATM    2  N1  UNL     1      22.600   1.634  51.281  1.00  0.00    -0.173 NA
HETATM    3  N2  UNL     1      23.103   1.383  52.557  1.00  0.00    -0.236 N 
HETATM    4  C10 UNL     1      24.166   2.331  52.838  1.00  0.00     0.152 A 
HETATM    5  C16 UNL     1      24.257   3.167  51.591  1.00  0.00     0.094 A 
ENDROOT
BRANCH   4   6
HETATM    6  C11 UNL     1      25.473   1.709  53.053  1.00  0.00    -0.018 A 
HETATM    7  C12 UNL     1      26.179   1.999  54.131  1.00  0.00     0.095 A 
HETATM    8  N4  UNL     1      27.444   1.385  54.319  1.00  0.00    -0.366 N 
HETATM    9  C13 UNL     1      28.067   0.437  53.417  1.00  0.00     0.292 A 
HETATM   10  H10 UNL     1      28.102   1.517  55.112  1.00  0.00     0.162 HD
HETATM   11  F1  UNL     1      29.308   0.879  53.010  1.00  0.00    -0.223 F 
HETATM   12  C14 UNL     1      27.146   0.230  52.273  1.00  0.00     0.032 A 
HETATM   13  C15 UNL     1      25.961   0.772  52.047  1.00  0.00     0.011 A 
ENDBRANCH   4   6
BRANCH   3  14
HETATM   14  C7  UNL     1      22.580   0.334  53.369  1.00  0.00     0.192 A 
HETATM   15  N3  UNL     1      22.954  -0.348  54.214  1.00  0.00    -0.198 NA
HETATM   16  C8  UNL     1      22.297  -1.291  54.861  1.00  0.00     0.171 A 
HETATM   17  C9  UNL     1      20.986  -1.494  54.484  1.00  0.00     0.111 A 
HETATM   18  S1  UNL     1      20.773  -0.281  53.181  1.00  0.00    -0.058 SA
BRANCH  16  19
HETATM   19  O1  UNL     1      22.938  -2.026  55.879  1.00  0.00    -0.344 OA
HETATM   20  H6  UNL     1      22.961  -1.663  56.821  1.00  0.00     0.219 HD
ENDBRANCH  16  19
ENDBRANCH   3  14
BRANCH   1  21
HETATM   21  C5  UNL     1      22.904   3.106  49.375  1.00  0.00    -0.010 A 
HETATM   22  C4  UNL     1      23.028   4.429  49.015  1.00  0.00     0.014 A 
HETATM   23  C3  UNL     1      22.724   4.857  47.740  1.00  0.00     0.007 A 
HETATM   24  C2  UNL     1      22.280   3.983  46.766  1.00  0.00    -0.062 A 
HETATM   25  C1  UNL     1      21.924   4.311  45.372  1.00  0.00     0.048 C 
HETATM   26  C18 UNL     1      22.146   2.647  47.098  1.00  0.00     0.007 A 
HETATM   27  C17 UNL     1      22.459   2.252  48.385  1.00  0.00     0.014 A 
ENDBRANCH   1  21
TORSDOF 4
ENDMDL
MODEL 3
REMARK VINA RESULT:      -8.8      1.848      2.002
REMARK  4 active torsions:
REMARK  status: ('A' for Active; 'I' for Inactive)
REMARK    1  A    between atoms: C5_5  and  C6_6 
REMARK    2  A    between atoms: N2_8  and  C7_9 
REMARK    3  A    between atoms: C8_11  and  O1_12 
REMARK    4  A    between atoms: C10_15  and  C11_16 
ROOT
HETATM    1  C6  UNL     1      23.214   1.113  53.278  1.00  0.00     0.067 A 
HETATM    2  N1  UNL     1      24.389   0.676  53.584  1.00  0.00    -0.173 NA
HETATM    3  N2  UNL     1      25.363   1.658  53.406  1.00  0.00    -0.236 N 
HETATM    4  C10 UNL     1      24.724   2.873  52.935  1.00  0.00     0.152 A 
HETATM    5  C16 UNL     1      23.267   2.513  52.836  1.00  0.00     0.094 A 
ENDROOT
BRANCH   4   6
HETATM    6  C11 UNL     1      25.168   3.300  51.607  1.00  0.00    -0.018 A 
HETATM    7  C12 UNL     1      26.066   2.592  50.946  1.00  0.00     0.095 A 
HETATM    8  N4  UNL     1      26.481   3.024  49.661  1.00  0.00    -0.366 N 
HETATM    9  C13 UNL     1      26.007   4.205  48.970  1.00  0.00     0.292 A 
HETATM   10  H10 UNL     1      27.174   2.570  49.032  1.00  0.00     0.162 HD
HETATM   11  F1  UNL     1      27.052   5.041  48.639  1.00  0.00    -0.223 F 
HETATM   12  C14 UNL     1      25.015   4.873  49.848  1.00  0.00     0.032 A 
HETATM   13  C15 UNL     1      24.591   4.518  51.049  1.00  0.00     0.011 A 
ENDBRANCH   4   6
BRANCH   3  14
HETATM   14  C7  UNL     1      26.738   1.397  53.675  1.00  0.00     0.192 A 
HETATM   15  N3  UNL     1      27.642   1.971  54.092  1.00  0.00    -0.198 NA
HETATM   16  C8  UNL     1      28.876   1.542  54.272  1.00  0.00     0.171 A 
HETATM   17  C9  UNL     1      29.129   0.234  53.916  1.00  0.00     0.111 A 
HETATM   18  S1  UNL     1      27.527  -0.316  53.328  1.00  0.00    -0.058 SA
BRANCH  16  19
HETATM   19  O1  UNL     1      29.854   2.408  54.803  1.00  0.00    -0.344 OA
HETATM   20  H6  UNL     1      30.084   3.263  54.315  1.00  0.00     0.219 HD
ENDBRANCH  16  19
ENDBRANCH   3  14
BRANCH   1  21
HETATM   21  C5  UNL     1      22.000   0.308  53.366  1.00  0.00    -0.010 A 
HETATM   22  C4  UNL     1      21.908  -0.820  54.151  1.00  0.00     0.014 A 
HETATM   23  C3  UNL     1      20.744  -1.558  54.210  1.00  0.00     0.007 A 
HETATM   24  C2  UNL     1      19.621  -1.204  53.488  1.00  0.00    -0.062 A 
HETATM   25  C1  UNL     1      18.321  -1.904  53.465  1.00  0.00     0.048 C 
HETATM   26  C18 UNL     1      19.684  -0.075  52.692  1.00  0.00     0.007 A 
HETATM   27  C17 UNL     1      20.865   0.641  52.655  1.00  0.00     0.014 A 
ENDBRANCH   1  21
TORSDOF 4
ENDMDL
MODEL 4
REMARK VINA RESULT:      -8.6      4.262      7.165
REMARK  4 active torsions:
REMARK  status: ('A' for Active; 'I' for Inactive)
REMARK    1  A    between atoms: C5_5  and  C6_6 
REMARK    2  A    between atoms: N2_8  and  C7_9 
REMARK    3  A    between atoms: C8_11  and  O1_12 
REMARK    4  A    between atoms: C10_15  and  C11_16 
ROOT
HETATM    1  C6  UNL     1      25.163   1.555  52.593  1.00  0.00     0.067 A 
HETATM    2  N1  UNL     1      25.282   2.674  51.961  1.00  0.00    -0.173 NA
HETATM    3  N2  UNL     1      24.076   3.374  51.928  1.00  0.00    -0.236 N 
HETATM    4  C10 UNL     1      23.068   2.605  52.636  1.00  0.00     0.152 A 
HETATM    5  C16 UNL     1      23.792   1.365  53.083  1.00  0.00     0.094 A 
ENDROOT
BRANCH   4   6
HETATM    6  C11 UNL     1      21.945   2.185  51.795  1.00  0.00    -0.018 A 
HETATM    7  C12 UNL     1      20.729   2.639  52.035  1.00  0.00     0.095 A 
HETATM    8  N4  UNL     1      19.655   2.219  51.208  1.00  0.00    -0.366 N 
HETATM    9  C13 UNL     1      19.757   1.310  50.085  1.00  0.00     0.292 A 
HETATM   10  H10 UNL     1      18.655   2.492  51.279  1.00  0.00     0.162 HD
HETATM   11  F1  UNL     1      18.920   0.226  50.245  1.00  0.00    -0.223 F 
HETATM   12  C14 UNL     1      21.179   0.903  49.962  1.00  0.00     0.032 A 
HETATM   13  C15 UNL     1      22.216   1.261  50.699  1.00  0.00     0.011 A 
ENDBRANCH   4   6
BRANCH   3  14
HETATM   14  C7  UNL     1      23.967   4.636  51.275  1.00  0.00     0.192 A 
HETATM   15  N3  UNL     1      24.010   5.746  51.566  1.00  0.00    -0.198 NA
HETATM   16  C8  UNL     1      23.883   6.805  50.791  1.00  0.00     0.171 A 
HETATM   17  C9  UNL     1      23.670   6.562  49.451  1.00  0.00     0.111 A 
HETATM   18  S1  UNL     1      23.665   4.770  49.385  1.00  0.00    -0.058 SA
BRANCH  16  19
HETATM   19  O1  UNL     1      23.969   8.099  51.345  1.00  0.00    -0.344 OA
HETATM   20  H6  UNL     1      24.250   8.876  50.763  1.00  0.00     0.219 HD
ENDBRANCH  16  19
ENDBRANCH   3  14
BRANCH   1  21
HETATM   21  C5  UNL     1      26.260   0.612  52.787  1.00  0.00    -0.010 A 
HETATM   22  C4  UNL     1      26.136  -0.738  52.546  1.00  0.00     0.014 A 
HETATM   23  C3  UNL     1      27.194  -1.601  52.741  1.00  0.00     0.007 A 
HETATM   24  C2  UNL     1      28.424  -1.155  53.186  1.00  0.00    -0.062 A 
HETATM   25  C1  UNL     1      29.630  -1.971  53.433  1.00  0.00     0.048 C 
HETATM   26  C18 UNL     1      28.578   0.196  53.436  1.00  0.00     0.007 A 
HETATM   27  C17 UNL     1      27.498   1.033  53.231  1.00  0.00     0.014 A 
ENDBRANCH   1  21
TORSDOF 4
ENDMDL
MODEL 5
REMARK VINA RESULT:      -8.5      4.038      7.293
REMARK  4 active torsions:
REMARK  status: ('A' for Active; 'I' for Inactive)
REMARK    1  A    between atoms: C5_5  and  C6_6 
REMARK    2  A    between atoms: N2_8  and  C7_9 
REMARK    3  A    between atoms: C8_11  and  O1_12 
REMARK    4  A    between atoms: C10_15  and  C11_16 
ROOT
HETATM    1  C6  UNL     1      25.503   1.845  52.338  1.00  0.00     0.067 A 
HETATM    2  N1  UNL     1      25.495   2.632  51.314  1.00  0.00    -0.173 NA
HETATM    3  N2  UNL     1      24.284   3.316  51.204  1.00  0.00    -0.236 N 
HETATM    4  C10 UNL     1      23.419   2.919  52.300  1.00  0.00     0.152 A 
HETATM    5  C16 UNL     1      24.232   1.915  53.070  1.00  0.00     0.094 A 
ENDROOT
BRANCH   4   6
HETATM    6  C11 UNL     1      22.186   2.257  51.871  1.00  0.00    -0.018 A 
HETATM    7  C12 UNL     1      21.011   2.745  52.226  1.00  0.00     0.095 A 
HETATM    8  N4  UNL     1      19.829   2.088  51.799  1.00  0.00    -0.366 N 
HETATM    9  C13 UNL     1      19.771   0.892  50.984  1.00  0.00     0.292 A 
HETATM   10  H10 UNL     1      18.845   2.357  52.001  1.00  0.00     0.162 HD
HETATM   11  F1  UNL     1      19.066  -0.109  51.618  1.00  0.00    -0.223 F 
HETATM   12  C14 UNL     1      21.166   0.485  50.681  1.00  0.00     0.032 A 
HETATM   13  C15 UNL     1      22.300   1.057  51.050  1.00  0.00     0.011 A 
ENDBRANCH   4   6
BRANCH   3  14
HETATM   14  C7  UNL     1      24.045   4.236  50.142  1.00  0.00     0.192 A 
HETATM   15  N3  UNL     1      23.420   4.271  49.179  1.00  0.00    -0.198 NA
HETATM   16  C8  UNL     1      23.327   5.246  48.295  1.00  0.00     0.171 A 
HETATM   17  C9  UNL     1      24.074   6.377  48.548  1.00  0.00     0.111 A 
HETATM   18  S1  UNL     1      24.889   5.957  50.089  1.00  0.00    -0.058 SA
BRANCH  16  19
HETATM   19  O1  UNL     1      22.495   5.097  47.166  1.00  0.00    -0.344 OA
HETATM   20  H6  UNL     1      22.903   5.093  46.241  1.00  0.00     0.219 HD
ENDBRANCH  16  19
ENDBRANCH   3  14
BRANCH   1  21
HETATM   21  C5  UNL     1      26.636   1.003  52.705  1.00  0.00    -0.010 A 
HETATM   22  C4  UNL     1      26.600  -0.372  52.632  1.00  0.00     0.014 A 
HETATM   23  C3  UNL     1      27.691  -1.137  52.989  1.00  0.00     0.007 A 
HETATM   24  C2  UNL     1      28.867  -0.565  53.434  1.00  0.00    -0.062 A 
HETATM   25  C1  UNL     1      30.099  -1.268  53.843  1.00  0.00     0.048 C 
HETATM   26  C18 UNL     1      28.933   0.814  53.517  1.00  0.00     0.007 A 
HETATM   27  C17 UNL     1      27.821   1.551  53.153  1.00  0.00     0.014 A 
ENDBRANCH   1  21
TORSDOF 4
ENDMDL
MODEL 6
REMARK VINA RESULT:      -8.4      3.167      7.421
REMARK  4 active torsions:
REMARK  status: ('A' for Active; 'I' for Inactive)
REMARK    1  A    between atoms: C5_5  and  C6_6 
REMARK    2  A    between atoms: N2_8  and  C7_9 
REMARK    3  A    between atoms: C8_11  and  O1_12 
REMARK    4  A    between atoms: C10_15  and  C11_16 
ROOT
HETATM    1  C6  UNL     1      26.280   4.034  49.537  1.00  0.00     0.067 A 
HETATM    2  N1  UNL     1      26.789   3.341  50.499  1.00  0.00    -0.173 NA
HETATM    3  N2  UNL     1      25.904   2.361  50.948  1.00  0.00    -0.236 N 
HETATM    4  C10 UNL     1      24.683   2.437  50.167  1.00  0.00     0.152 A 
HETATM    5  C16 UNL     1      24.923   3.575  49.212  1.00  0.00     0.094 A 
ENDROOT
BRANCH   4   6
HETATM    6  C11 UNL     1      23.494   2.763  50.956  1.00  0.00    -0.018 A 
HETATM    7  C12 UNL     1      22.588   1.836  51.208  1.00  0.00     0.095 A 
HETATM    8  N4  UNL     1      21.444   2.173  51.976  1.00  0.00    -0.366 N 
HETATM    9  C13 UNL     1      21.153   3.478  52.533  1.00  0.00     0.292 A 
HETATM   10  H10 UNL     1      20.657   1.552  52.249  1.00  0.00     0.162 HD
HETATM   11  F1  UNL     1      19.931   3.945  52.098  1.00  0.00    -0.223 F 
HETATM   12  C14 UNL     1      22.264   4.388  52.157  1.00  0.00     0.032 A 
HETATM   13  C15 UNL     1      23.349   4.129  51.448  1.00  0.00     0.011 A 
ENDBRANCH   4   6
BRANCH   3  14
HETATM   14  C7  UNL     1      26.251   1.479  52.013  1.00  0.00     0.192 A 
HETATM   15  N3  UNL     1      26.661   0.412  52.128  1.00  0.00    -0.198 NA
HETATM   16  C8  UNL     1      26.926  -0.252  53.236  1.00  0.00     0.171 A 
HETATM   17  C9  UNL     1      26.681   0.410  54.421  1.00  0.00     0.111 A 
HETATM   18  S1  UNL     1      26.067   1.995  53.851  1.00  0.00    -0.058 SA
BRANCH  16  19
HETATM   19  O1  UNL     1      27.431  -1.566  53.168  1.00  0.00    -0.344 OA
HETATM   20  H6  UNL     1      28.165  -1.787  52.510  1.00  0.00     0.219 HD
ENDBRANCH  16  19
ENDBRANCH   3  14
BRANCH   1  21
HETATM   21  C5  UNL     1      26.976   5.129  48.868  1.00  0.00    -0.010 A 
HETATM   22  C4  UNL     1      26.355   6.310  48.525  1.00  0.00     0.014 A 
HETATM   23  C3  UNL     1      27.044   7.323  47.893  1.00  0.00     0.007 A 
HETATM   24  C2  UNL     1      28.383   7.205  47.574  1.00  0.00    -0.062 A 
HETATM   25  C1  UNL     1      29.230   8.210  46.903  1.00  0.00     0.048 C 
HETATM   26  C18 UNL     1      29.033   6.030  47.908  1.00  0.00     0.007 A 
HETATM   27  C17 UNL     1      28.313   5.034  48.540  1.00  0.00     0.014 A 
ENDBRANCH   1  21
TORSDOF 4
ENDMDL
MODEL 7
REMARK VINA RESULT:      -8.3      3.292      6.508
REMARK  4 active torsions:
REMARK  status: ('A' for Active; 'I' for Inactive)
REMARK    1  A    between atoms: C5_5  and  C6_6 
REMARK    2  A    between atoms: N2_8  and  C7_9 
REMARK    3  A    between atoms: C8_11  and  O1_12 
REMARK    4  A    between atoms: C10_15  and  C11_16 
ROOT
HETATM    1  C6  UNL     1      24.026   3.438  51.405  1.00  0.00     0.067 A 
HETATM    2  N1  UNL     1      23.051   2.631  51.659  1.00  0.00    -0.173 NA
HETATM    3  N2  UNL     1      23.318   1.841  52.777  1.00  0.00    -0.236 N 
HETATM    4  C10 UNL     1      24.623   2.198  53.303  1.00  0.00     0.152 A 
HETATM    5  C16 UNL     1      25.117   3.274  52.375  1.00  0.00     0.094 A 
ENDROOT
BRANCH   4   6
HETATM    6  C11 UNL     1      25.595   1.104  53.270  1.00  0.00    -0.018 A 
HETATM    7  C12 UNL     1      26.094   0.624  54.395  1.00  0.00     0.095 A 
HETATM    8  N4  UNL     1      27.034  -0.437  54.339  1.00  0.00    -0.366 N 
HETATM    9  C13 UNL     1      27.523  -1.074  53.133  1.00  0.00     0.292 A 
HETATM   10  H10 UNL     1      27.506  -0.910  55.136  1.00  0.00     0.162 HD
HETATM   11  F1  UNL     1      28.897  -1.003  53.055  1.00  0.00    -0.223 F 
HETATM   12  C14 UNL     1      26.864  -0.417  51.978  1.00  0.00     0.032 A 
HETATM   13  C15 UNL     1      25.984   0.570  51.969  1.00  0.00     0.011 A 
ENDBRANCH   4   6
BRANCH   3  14
HETATM   14  C7  UNL     1      22.384   0.869  53.240  1.00  0.00     0.192 A 
HETATM   15  N3  UNL     1      22.391  -0.049  53.931  1.00  0.00    -0.198 NA
HETATM   16  C8  UNL     1      21.391  -0.848  54.246  1.00  0.00     0.171 A 
HETATM   17  C9  UNL     1      20.169  -0.554  53.678  1.00  0.00     0.111 A 
HETATM   18  S1  UNL     1      20.545   0.898  52.696  1.00  0.00    -0.058 SA
BRANCH  16  19
HETATM   19  O1  UNL     1      21.603  -1.933  55.121  1.00  0.00    -0.344 OA
HETATM   20  H6  UNL     1      22.299  -1.860  55.850  1.00  0.00     0.219 HD
ENDBRANCH  16  19
ENDBRANCH   3  14
BRANCH   1  21
HETATM   21  C5  UNL     1      24.027   4.385  50.295  1.00  0.00    -0.010 A 
HETATM   22  C4  UNL     1      22.975   4.505  49.414  1.00  0.00     0.014 A 
HETATM   23  C3  UNL     1      23.010   5.411  48.375  1.00  0.00     0.007 A 
HETATM   24  C2  UNL     1      24.097   6.238  48.168  1.00  0.00    -0.062 A 
HETATM   25  C1  UNL     1      24.257   7.245  47.100  1.00  0.00     0.048 C 
HETATM   26  C18 UNL     1      25.168   6.141  49.037  1.00  0.00     0.007 A 
HETATM   27  C17 UNL     1      25.100   5.222  50.067  1.00  0.00     0.014 A 
ENDBRANCH   1  21
TORSDOF 4
ENDMDL
MODEL 8
REMARK VINA RESULT:      -8.2      4.850      8.222
REMARK  4 active torsions:
REMARK  status: ('A' for Active; 'I' for Inactive)
REMARK    1  A    between atoms: C5_5  and  C6_6 
REMARK    2  A    between atoms: N2_8  and  C7_9 
REMARK    3  A    between atoms: C8_11  and  O1_12 
REMARK    4  A    between atoms: C10_15  and  C11_16 
ROOT
HETATM    1  C6  UNL     1      23.203   3.292  50.789  1.00  0.00     0.067 A 
HETATM    2  N1  UNL     1      22.129   3.060  50.112  1.00  0.00    -0.173 NA
HETATM    3  N2  UNL     1      21.093   2.614  50.932  1.00  0.00    -0.236 N 
HETATM    4  C10 UNL     1      21.567   2.565  52.303  1.00  0.00     0.152 A 
HETATM    5  C16 UNL     1      23.000   3.014  52.217  1.00  0.00     0.094 A 
ENDROOT
BRANCH   4   6
HETATM    6  C11 UNL     1      21.556   1.222  52.886  1.00  0.00    -0.018 A 
HETATM    7  C12 UNL     1      20.606   0.872  53.733  1.00  0.00     0.095 A 
HETATM    8  N4  UNL     1      20.615  -0.435  54.285  1.00  0.00    -0.366 N 
HETATM    9  C13 UNL     1      21.595  -1.465  54.008  1.00  0.00     0.292 A 
HETATM   10  H10 UNL     1      19.937  -0.844  54.958  1.00  0.00     0.162 HD
HETATM   11  F1  UNL     1      22.197  -1.905  55.167  1.00  0.00    -0.223 F 
HETATM   12  C14 UNL     1      22.578  -0.905  53.047  1.00  0.00     0.032 A 
HETATM   13  C15 UNL     1      22.619   0.299  52.501  1.00  0.00     0.011 A 
ENDBRANCH   4   6
BRANCH   3  14
HETATM   14  C7  UNL     1      19.812   2.287  50.399  1.00  0.00     0.192 A 
HETATM   15  N3  UNL     1      19.187   1.340  50.219  1.00  0.00    -0.198 NA
HETATM   16  C8  UNL     1      17.980   1.238  49.697  1.00  0.00     0.171 A 
HETATM   17  C9  UNL     1      17.378   2.417  49.311  1.00  0.00     0.111 A 
HETATM   18  S1  UNL     1      18.621   3.637  49.736  1.00  0.00    -0.058 SA
BRANCH  16  19
HETATM   19  O1  UNL     1      17.376  -0.028  49.559  1.00  0.00    -0.344 OA
HETATM   20  H6  UNL     1      16.369  -0.101  49.521  1.00  0.00     0.219 HD
ENDBRANCH  16  19
ENDBRANCH   3  14
BRANCH   1  21
HETATM   21  C5  UNL     1      24.448   3.770  50.198  1.00  0.00    -0.010 A 
HETATM   22  C4  UNL     1      25.607   3.024  50.192  1.00  0.00     0.014 A 
HETATM   23  C3  UNL     1      26.767   3.507  49.625  1.00  0.00     0.007 A 
HETATM   24  C2  UNL     1      26.824   4.756  49.036  1.00  0.00    -0.062 A 
HETATM   25  C1  UNL     1      27.996   5.386  48.397  1.00  0.00     0.048 C 
HETATM   26  C18 UNL     1      25.676   5.527  49.026  1.00  0.00     0.007 A 
HETATM   27  C17 UNL     1      24.530   5.013  49.605  1.00  0.00     0.014 A 
ENDBRANCH   1  21
TORSDOF 4
ENDMDL
MODEL 9
REMARK VINA RESULT:      -8.1      3.804      7.263
REMARK  4 active torsions:
REMARK  status: ('A' for Active; 'I' for Inactive)
REMARK    1  A    between atoms: C5_5  and  C6_6 
REMARK    2  A    between atoms: N2_8  and  C7_9 
REMARK    3  A    between atoms: C8_11  and  O1_12 
REMARK    4  A    between atoms: C10_15  and  C11_16 
ROOT
HETATM    1  C6  UNL     1      23.983   2.817  49.953  1.00  0.00     0.067 A 
HETATM    2  N1  UNL     1      24.010   2.206  51.090  1.00  0.00    -0.173 NA
HETATM    3  N2  UNL     1      22.916   1.354  51.239  1.00  0.00    -0.236 N 
HETATM    4  C10 UNL     1      22.097   1.427  50.043  1.00  0.00     0.152 A 
HETATM    5  C16 UNL     1      22.806   2.423  49.167  1.00  0.00     0.094 A 
ENDROOT
BRANCH   4   6
HETATM    6  C11 UNL     1      20.743   1.929  50.281  1.00  0.00    -0.018 A 
HETATM    7  C12 UNL     1      20.544   3.208  50.542  1.00  0.00     0.095 A 
HETATM    8  N4  UNL     1      19.224   3.674  50.770  1.00  0.00    -0.366 N 
HETATM    9  C13 UNL     1      18.024   2.862  50.747  1.00  0.00     0.292 A 
HETATM   10  H10 UNL     1      18.921   4.645  50.984  1.00  0.00     0.162 HD
HETATM   11  F1  UNL     1      17.338   2.954  51.939  1.00  0.00    -0.223 F 
HETATM   12  C14 UNL     1      18.429   1.467  50.443  1.00  0.00     0.032 A 
HETATM   13  C15 UNL     1      19.638   0.979  50.222  1.00  0.00     0.011 A 
ENDBRANCH   4   6
BRANCH   3  14
HETATM   14  C7  UNL     1      22.733   0.580  52.422  1.00  0.00     0.192 A 
HETATM   15  N3  UNL     1      21.856   0.230  53.077  1.00  0.00    -0.198 NA
HETATM   16  C8  UNL     1      21.890  -0.506  54.170  1.00  0.00     0.171 A 
HETATM   17  C9  UNL     1      23.135  -0.915  54.596  1.00  0.00     0.111 A 
HETATM   18  S1  UNL     1      24.216  -0.196  53.360  1.00  0.00    -0.058 SA
BRANCH  16  19
HETATM   19  O1  UNL     1      20.691  -0.833  54.837  1.00  0.00    -0.344 OA
HETATM   20  H6  UNL     1      20.334  -0.219  55.556  1.00  0.00     0.219 HD
ENDBRANCH  16  19
ENDBRANCH   3  14
BRANCH   1  21
HETATM   21  C5  UNL     1      24.998   3.771  49.520  1.00  0.00    -0.010 A 
HETATM   22  C4  UNL     1      26.338   3.458  49.457  1.00  0.00     0.014 A 
HETATM   23  C3  UNL     1      27.272   4.385  49.044  1.00  0.00     0.007 A 
HETATM   24  C2  UNL     1      26.911   5.667  48.675  1.00  0.00    -0.062 A 
HETATM   25  C1  UNL     1      27.807   6.747  48.216  1.00  0.00     0.048 C 
HETATM   26  C18 UNL     1      25.572   6.009  48.727  1.00  0.00     0.007 A 
HETATM   27  C17 UNL     1      24.662   5.057  49.147  1.00  0.00     0.014 A 
ENDBRANCH   1  21
TORSDOF 4
ENDMDL
