MODEL 1
REMARK VINA RESULT:      -9.0      0.000      0.000
REMARK  6 active torsions:
REMARK  status: ('A' for Active; 'I' for Inactive)
REMARK    1  A    between atoms: C1_2  and  C2_3 
REMARK       I    between atoms: C1_2  and  N2_11 
REMARK    2  A    between atoms: C3_4  and  C4_5 
REMARK    3  A    between atoms: C4_5  and  N1_6 
REMARK    4  A    between atoms: N2_11  and  C8_12 
REMARK    5  A    between atoms: C13_19  and  N5_20 
REMARK    6  A    between atoms: N5_20  and  C14_21 
ROOT
HETATM    1  C8  UNL     1      25.214   3.450  50.036  1.00  0.00     0.036 A 
HETATM    2  C9  UNL     1      24.114   3.223  49.199  1.00  0.00     0.032 A 
HETATM    3  C10 UNL     1      23.077   2.396  49.583  1.00  0.00     0.035 A 
HETATM    4  C11 UNL     1      23.110   1.769  50.820  1.00  0.00     0.072 A 
HETATM    5  N3  UNL     1      22.131   0.954  51.245  1.00  0.00    -0.241 NA
HETATM    6  C12 UNL     1      22.214   0.368  52.456  1.00  0.00     0.236 A 
HETATM    7  N4  UNL     1      23.290   0.617  53.224  1.00  0.00    -0.224 NA
HETATM    8  C13 UNL     1      24.279   1.419  52.837  1.00  0.00     0.142 A 
HETATM    9  C20 UNL     1      24.205   2.021  51.604  1.00  0.00     0.041 A 
HETATM   10  C21 UNL     1      25.262   2.836  51.266  1.00  0.00     0.047 A 
ENDROOT
BRANCH   1  11
HETATM   11  N2  UNL     1      26.129   4.335  49.405  1.00  0.00    -0.316 N 
HETATM   12  C1  UNL     1      26.257   5.748  49.269  1.00  0.00     0.301 C 
HETATM   13  O1  UNL     1      25.434   6.554  49.778  1.00  0.00    -0.258 OA
HETATM   14  H9  UNL     1      26.827   3.687  48.975  1.00  0.00     0.170 HD
BRANCH  12  15
HETATM   15  C2  UNL     1      27.387   6.232  48.510  1.00  0.00    -0.004 C 
HETATM   16  C3  UNL     1      28.351   6.655  47.881  1.00  0.00    -0.066 C 
BRANCH  16  17
HETATM   17  C4  UNL     1      29.489   7.182  47.136  1.00  0.00     0.369 C 
BRANCH  17  18
HETATM   18  N1  UNL     1      30.749   6.721  47.633  1.00  0.00     0.124 N 
HETATM   19  C5  UNL     1      31.049   7.195  48.977  1.00  0.00     0.302 C 
HETATM   20  C6  UNL     1      32.217   6.250  49.294  1.00  0.00     0.200 C 
HETATM   21  O2  UNL     1      31.692   5.044  48.848  1.00  0.00    -0.361 OA
HETATM   22  C7  UNL     1      30.866   5.304  47.775  1.00  0.00     0.441 C 
ENDBRANCH  17  18
ENDBRANCH  16  17
ENDBRANCH  12  15
ENDBRANCH   1  11
BRANCH   8  23
HETATM   23  N5  UNL     1      25.354   1.589  53.748  1.00  0.00    -0.340 N 
HETATM   24  H13 UNL     1      25.178   2.242  54.535  1.00  0.00     0.167 HD
BRANCH  23  25
HETATM   25  C14 UNL     1      26.610   0.919  53.613  1.00  0.00     0.035 A 
HETATM   26  C15 UNL     1      27.781   1.645  53.813  1.00  0.00     0.032 A 
HETATM   27  C16 UNL     1      29.005   0.998  53.680  1.00  0.00     0.046 A 
HETATM   28  C17 UNL     1      29.034  -0.349  53.354  1.00  0.00     0.138 A 
HETATM   29  F1  UNL     1      30.225  -1.005  53.217  1.00  0.00    -0.204 F 
HETATM   30  C18 UNL     1      27.876  -1.083  53.152  1.00  0.00     0.074 A 
HETATM   31 CL1  UNL     1      27.936  -2.782  52.740  1.00  0.00    -0.081 Cl
HETATM   32  C19 UNL     1      26.654  -0.415  53.290  1.00  0.00     0.056 A 
ENDBRANCH  23  25
ENDBRANCH   8  23
TORSDOF 6
ENDMDL
MODEL 2
REMARK VINA RESULT:      -8.9      1.556      2.049
REMARK  6 active torsions:
REMARK  status: ('A' for Active; 'I' for Inactive)
REMARK    1  A    between atoms: C1_2  and  C2_3 
REMARK       I    between atoms: C1_2  and  N2_11 
REMARK    2  A    between atoms: C3_4  and  C4_5 
REMARK    3  A    between atoms: C4_5  and  N1_6 
REMARK    4  A    between atoms: N2_11  and  C8_12 
REMARK    5  A    between atoms: C13_19  and  N5_20 
REMARK    6  A    between atoms: N5_20  and  C14_21 
ROOT
HETATM    1  C8  UNL     1      25.881   3.486  50.012  1.00  0.00     0.036 A 
HETATM    2  C9  UNL     1      24.768   3.692  49.186  1.00  0.00     0.032 A 
HETATM    3  C10 UNL     1      23.516   3.222  49.535  1.00  0.00     0.035 A 
HETATM    4  C11 UNL     1      23.342   2.530  50.725  1.00  0.00     0.072 A 
HETATM    5  N3  UNL     1      22.149   2.049  51.114  1.00  0.00    -0.241 NA
HETATM    6  C12 UNL     1      22.034   1.381  52.279  1.00  0.00     0.236 A 
HETATM    7  N4  UNL     1      23.132   1.209  53.037  1.00  0.00    -0.224 NA
HETATM    8  C13 UNL     1      24.330   1.671  52.685  1.00  0.00     0.142 A 
HETATM    9  C20 UNL     1      24.458   2.353  51.499  1.00  0.00     0.041 A 
HETATM   10  C21 UNL     1      25.723   2.801  51.195  1.00  0.00     0.047 A 
ENDROOT
BRANCH   1  11
HETATM   11  N2  UNL     1      27.036   4.068  49.424  1.00  0.00    -0.316 N 
HETATM   12  C1  UNL     1      27.348   5.307  48.792  1.00  0.00     0.301 C 
HETATM   13  O1  UNL     1      26.497   6.222  48.640  1.00  0.00    -0.258 OA
HETATM   14  H9  UNL     1      27.760   3.324  49.541  1.00  0.00     0.170 HD
BRANCH  12  15
HETATM   15  C2  UNL     1      28.704   5.478  48.323  1.00  0.00    -0.004 C 
HETATM   16  C3  UNL     1      29.860   5.607  47.937  1.00  0.00    -0.066 C 
BRANCH  16  17
HETATM   17  C4  UNL     1      31.243   5.768  47.503  1.00  0.00     0.369 C 
BRANCH  17  18
HETATM   18  N1  UNL     1      32.097   4.708  47.945  1.00  0.00     0.124 N 
HETATM   19  C5  UNL     1      32.159   3.589  47.015  1.00  0.00     0.302 C 
HETATM   20  C6  UNL     1      33.381   2.871  47.605  1.00  0.00     0.200 C 
HETATM   21  O2  UNL     1      34.237   3.948  47.794  1.00  0.00    -0.361 OA
HETATM   22  C7  UNL     1      33.475   5.057  48.095  1.00  0.00     0.441 C 
ENDBRANCH  17  18
ENDBRANCH  16  17
ENDBRANCH  12  15
ENDBRANCH   1  11
BRANCH   8  23
HETATM   23  N5  UNL     1      25.400   1.414  53.581  1.00  0.00    -0.340 N 
HETATM   24  H13 UNL     1      25.456   2.040  54.406  1.00  0.00     0.167 HD
BRANCH  23  25
HETATM   25  C14 UNL     1      26.354   0.368  53.383  1.00  0.00     0.035 A 
HETATM   26  C15 UNL     1      25.906  -0.869  52.928  1.00  0.00     0.032 A 
HETATM   27  C16 UNL     1      26.831  -1.890  52.736  1.00  0.00     0.046 A 
HETATM   28  C17 UNL     1      28.172  -1.656  52.998  1.00  0.00     0.138 A 
HETATM   29  F1  UNL     1      29.098  -2.645  52.818  1.00  0.00    -0.204 F 
HETATM   30  C18 UNL     1      28.631  -0.430  53.452  1.00  0.00     0.074 A 
HETATM   31 CL1  UNL     1      30.327  -0.158  53.778  1.00  0.00    -0.081 Cl
HETATM   32  C19 UNL     1      27.686   0.585  53.639  1.00  0.00     0.056 A 
ENDBRANCH  23  25
ENDBRANCH   8  23
TORSDOF 6
ENDMDL
MODEL 3
REMARK VINA RESULT:      -8.8      1.455      1.575
REMARK  6 active torsions:
REMARK  status: ('A' for Active; 'I' for Inactive)
REMARK    1  A    between atoms: C1_2  and  C2_3 
REMARK       I    between atoms: C1_2  and  N2_11 
REMARK    2  A    between atoms: C3_4  and  C4_5 
REMARK    3  A    between atoms: C4_5  and  N1_6 
REMARK    4  A    between atoms: N2_11  and  C8_12 
REMARK    5  A    between atoms: C13_19  and  N5_20 
REMARK    6  A    between atoms: N5_20  and  C14_21 
ROOT
HETATM    1  C8  UNL     1      24.685   3.663  50.112  1.00  0.00     0.036 A 
HETATM    2  C9  UNL     1      23.578   3.311  49.328  1.00  0.00     0.032 A 
HETATM    3  C10 UNL     1      22.707   2.313  49.721  1.00  0.00     0.035 A 
HETATM    4  C11 UNL     1      22.920   1.635  50.913  1.00  0.00     0.072 A 
HETATM    5  N3  UNL     1      22.107   0.656  51.342  1.00  0.00    -0.241 NA
HETATM    6  C12 UNL     1      22.359   0.028  52.508  1.00  0.00     0.236 A 
HETATM    7  N4  UNL     1      23.435   0.401  53.225  1.00  0.00    -0.224 NA
HETATM    8  C13 UNL     1      24.262   1.367  52.832  1.00  0.00     0.142 A 
HETATM    9  C20 UNL     1      24.013   2.014  51.645  1.00  0.00     0.041 A 
HETATM   10  C21 UNL     1      24.908   3.000  51.297  1.00  0.00     0.047 A 
ENDROOT
BRANCH   1  11
HETATM   11  N2  UNL     1      25.410   4.711  49.485  1.00  0.00    -0.316 N 
HETATM   12  C1  UNL     1      26.733   4.881  48.981  1.00  0.00     0.301 C 
HETATM   13  O1  UNL     1      27.597   3.967  49.027  1.00  0.00    -0.258 OA
HETATM   14  H9  UNL     1      24.710   5.485  49.434  1.00  0.00     0.170 HD
BRANCH  12  15
HETATM   15  C2  UNL     1      27.053   6.167  48.406  1.00  0.00    -0.004 C 
HETATM   16  C3  UNL     1      27.334   7.264  47.936  1.00  0.00    -0.066 C 
BRANCH  16  17
HETATM   17  C4  UNL     1      27.654   8.580  47.395  1.00  0.00     0.369 C 
BRANCH  17  18
HETATM   18  N1  UNL     1      28.915   9.082  47.849  1.00  0.00     0.124 N 
HETATM   19  C5  UNL     1      28.964   9.310  49.287  1.00  0.00     0.302 C 
HETATM   20  C6  UNL     1      30.483   9.469  49.439  1.00  0.00     0.200 C 
HETATM   21  O2  UNL     1      30.926   8.401  48.669  1.00  0.00    -0.361 OA
HETATM   22  C7  UNL     1      30.029   8.212  47.640  1.00  0.00     0.441 C 
ENDBRANCH  17  18
ENDBRANCH  16  17
ENDBRANCH  12  15
ENDBRANCH   1  11
BRANCH   8  23
HETATM   23  N5  UNL     1      25.357   1.655  53.687  1.00  0.00    -0.340 N 
HETATM   24  H13 UNL     1      25.188   2.386  54.403  1.00  0.00     0.167 HD
BRANCH  23  25
HETATM   25  C14 UNL     1      26.623   0.997  53.589  1.00  0.00     0.035 A 
HETATM   26  C15 UNL     1      27.781   1.739  53.805  1.00  0.00     0.032 A 
HETATM   27  C16 UNL     1      29.014   1.103  53.708  1.00  0.00     0.046 A 
HETATM   28  C17 UNL     1      29.065  -0.247  53.401  1.00  0.00     0.138 A 
HETATM   29  F1  UNL     1      30.265  -0.892  53.299  1.00  0.00    -0.204 F 
HETATM   30  C18 UNL     1      27.920  -0.997  53.183  1.00  0.00     0.074 A 
HETATM   31 CL1  UNL     1      28.007  -2.700  52.795  1.00  0.00    -0.081 Cl
HETATM   32  C19 UNL     1      26.688  -0.341  53.285  1.00  0.00     0.056 A 
ENDBRANCH  23  25
ENDBRANCH   8  23
TORSDOF 6
ENDMDL
MODEL 4
REMARK VINA RESULT:      -8.6      2.080      2.897
REMARK  6 active torsions:
REMARK  status: ('A' for Active; 'I' for Inactive)
REMARK    1  A    between atoms: C1_2  and  C2_3 
REMARK       I    between atoms: C1_2  and  N2_11 
REMARK    2  A    between atoms: C3_4  and  C4_5 
REMARK    3  A    between atoms: C4_5  and  N1_6 
REMARK    4  A    between atoms: N2_11  and  C8_12 
REMARK    5  A    between atoms: C13_19  and  N5_20 
REMARK    6  A    between atoms: N5_20  and  C14_21 
ROOT
HETATM    1  C8  UNL     1      25.238   4.346  49.705  1.00  0.00     0.036 A 
HETATM    2  C9  UNL     1      24.110   4.067  48.924  1.00  0.00     0.032 A 
HETATM    3  C10 UNL     1      23.179   3.123  49.315  1.00  0.00     0.035 A 
HETATM    4  C11 UNL     1      23.353   2.429  50.504  1.00  0.00     0.072 A 
HETATM    5  N3  UNL     1      22.481   1.501  50.933  1.00  0.00    -0.241 NA
HETATM    6  C12 UNL     1      22.698   0.854  52.096  1.00  0.00     0.236 A 
HETATM    7  N4  UNL     1      23.797   1.157  52.811  1.00  0.00    -0.224 NA
HETATM    8  C13 UNL     1      24.682   2.071  52.418  1.00  0.00     0.142 A 
HETATM    9  C20 UNL     1      24.470   2.736  51.234  1.00  0.00     0.041 A 
HETATM   10  C21 UNL     1      25.424   3.665  50.887  1.00  0.00     0.047 A 
ENDROOT
BRANCH   1  11
HETATM   11  N2  UNL     1      26.025   5.349  49.079  1.00  0.00    -0.316 N 
HETATM   12  C1  UNL     1      27.361   5.445  48.589  1.00  0.00     0.301 C 
HETATM   13  O1  UNL     1      28.174   4.486  48.651  1.00  0.00    -0.258 OA
HETATM   14  H9  UNL     1      25.368   6.159  49.015  1.00  0.00     0.170 HD
BRANCH  12  15
HETATM   15  C2  UNL     1      27.756   6.708  48.009  1.00  0.00    -0.004 C 
HETATM   16  C3  UNL     1      28.071   7.783  47.511  1.00  0.00    -0.066 C 
BRANCH  16  17
HETATM   17  C4  UNL     1      28.437   9.053  46.895  1.00  0.00     0.369 C 
BRANCH  17  18
HETATM   18  N1  UNL     1      27.679  10.159  47.394  1.00  0.00     0.124 N 
HETATM   19  C5  UNL     1      26.247  10.030  47.163  1.00  0.00     0.302 C 
HETATM   20  C6  UNL     1      25.765  11.140  48.108  1.00  0.00     0.200 C 
HETATM   21  O2  UNL     1      26.536  10.867  49.231  1.00  0.00    -0.361 OA
HETATM   22  C7  UNL     1      27.745  10.354  48.808  1.00  0.00     0.441 C 
ENDBRANCH  17  18
ENDBRANCH  16  17
ENDBRANCH  12  15
ENDBRANCH   1  11
BRANCH   8  23
HETATM   23  N5  UNL     1      25.795   2.287  53.271  1.00  0.00    -0.340 N 
HETATM   24  H13 UNL     1      25.749   3.135  53.865  1.00  0.00     0.167 HD
BRANCH  23  25
HETATM   25  C14 UNL     1      26.923   1.409  53.324  1.00  0.00     0.035 A 
HETATM   26  C15 UNL     1      28.168   1.938  53.654  1.00  0.00     0.032 A 
HETATM   27  C16 UNL     1      29.267   1.088  53.706  1.00  0.00     0.046 A 
HETATM   28  C17 UNL     1      29.103  -0.260  53.431  1.00  0.00     0.138 A 
HETATM   29  F1  UNL     1      30.170  -1.113  53.474  1.00  0.00    -0.204 F 
HETATM   30  C18 UNL     1      27.870  -0.799  53.101  1.00  0.00     0.074 A 
HETATM   31 CL1  UNL     1      27.685  -2.504  52.756  1.00  0.00    -0.081 Cl
HETATM   32  C19 UNL     1      26.775   0.070  53.054  1.00  0.00     0.056 A 
ENDBRANCH  23  25
ENDBRANCH   8  23
TORSDOF 6
ENDMDL
MODEL 5
REMARK VINA RESULT:      -8.4      2.571      3.251
REMARK  6 active torsions:
REMARK  status: ('A' for Active; 'I' for Inactive)
REMARK    1  A    between atoms: C1_2  and  C2_3 
REMARK       I    between atoms: C1_2  and  N2_11 
REMARK    2  A    between atoms: C3_4  and  C4_5 
REMARK    3  A    between atoms: C4_5  and  N1_6 
REMARK    4  A    between atoms: N2_11  and  C8_12 
REMARK    5  A    between atoms: C13_19  and  N5_20 
REMARK    6  A    between atoms: N5_20  and  C14_21 
ROOT
HETATM    1  C8  UNL     1      25.490   5.778  49.872  1.00  0.00     0.036 A 
HETATM    2  C9  UNL     1      24.642   6.873  50.084  1.00  0.00     0.032 A 
HETATM    3  C10 UNL     1      23.433   6.732  50.737  1.00  0.00     0.035 A 
HETATM    4  C11 UNL     1      23.036   5.485  51.200  1.00  0.00     0.072 A 
HETATM    5  N3  UNL     1      21.872   5.289  51.840  1.00  0.00    -0.241 NA
HETATM    6  C12 UNL     1      21.533   4.056  52.268  1.00  0.00     0.236 A 
HETATM    7  N4  UNL     1      22.380   3.036  52.041  1.00  0.00    -0.224 NA
HETATM    8  C13 UNL     1      23.542   3.192  51.410  1.00  0.00     0.142 A 
HETATM    9  C20 UNL     1      23.898   4.445  50.970  1.00  0.00     0.041 A 
HETATM   10  C21 UNL     1      25.110   4.536  50.325  1.00  0.00     0.047 A 
ENDROOT
BRANCH   1  11
HETATM   11  N2  UNL     1      26.660   6.196  49.184  1.00  0.00    -0.316 N 
HETATM   12  C1  UNL     1      27.779   5.549  48.582  1.00  0.00     0.301 C 
HETATM   13  O1  UNL     1      27.911   4.297  48.572  1.00  0.00    -0.258 OA
HETATM   14  H9  UNL     1      26.572   7.237  49.177  1.00  0.00     0.170 HD
BRANCH  12  15
HETATM   15  C2  UNL     1      28.776   6.399  47.973  1.00  0.00    -0.004 C 
HETATM   16  C3  UNL     1      29.636   7.113  47.469  1.00  0.00    -0.066 C 
BRANCH  16  17
HETATM   17  C4  UNL     1      30.662   7.975  46.894  1.00  0.00     0.369 C 
BRANCH  17  18
HETATM   18  N1  UNL     1      30.916   9.145  47.676  1.00  0.00     0.124 N 
HETATM   19  C5  UNL     1      29.765  10.032  47.782  1.00  0.00     0.302 C 
HETATM   20  C6  UNL     1      30.268  10.920  48.929  1.00  0.00     0.200 C 
HETATM   21  O2  UNL     1      30.759   9.954  49.798  1.00  0.00    -0.361 OA
HETATM   22  C7  UNL     1      31.243   8.904  49.046  1.00  0.00     0.441 C 
ENDBRANCH  17  18
ENDBRANCH  16  17
ENDBRANCH  12  15
ENDBRANCH   1  11
BRANCH   8  23
HETATM   23  N5  UNL     1      24.335   2.028  51.239  1.00  0.00    -0.340 N 
HETATM   24  H13 UNL     1      24.261   1.566  50.314  1.00  0.00     0.167 HD
BRANCH  23  25
HETATM   25  C14 UNL     1      25.189   1.504  52.259  1.00  0.00     0.035 A 
HETATM   26  C15 UNL     1      24.759   0.399  52.989  1.00  0.00     0.032 A 
HETATM   27  C16 UNL     1      25.585  -0.113  53.984  1.00  0.00     0.046 A 
HETATM   28  C17 UNL     1      26.813   0.483  54.226  1.00  0.00     0.138 A 
HETATM   29  F1  UNL     1      27.640  -0.002  55.200  1.00  0.00    -0.204 F 
HETATM   30  C18 UNL     1      27.253   1.582  53.507  1.00  0.00     0.074 A 
HETATM   31 CL1  UNL     1      28.806   2.319  53.830  1.00  0.00    -0.081 Cl
HETATM   32  C19 UNL     1      26.408   2.084  52.510  1.00  0.00     0.056 A 
ENDBRANCH  23  25
ENDBRANCH   8  23
TORSDOF 6
ENDMDL
MODEL 6
REMARK VINA RESULT:      -8.3      2.313      2.946
REMARK  6 active torsions:
REMARK  status: ('A' for Active; 'I' for Inactive)
REMARK    1  A    between atoms: C1_2  and  C2_3 
REMARK       I    between atoms: C1_2  and  N2_11 
REMARK    2  A    between atoms: C3_4  and  C4_5 
REMARK    3  A    between atoms: C4_5  and  N1_6 
REMARK    4  A    between atoms: N2_11  and  C8_12 
REMARK    5  A    between atoms: C13_19  and  N5_20 
REMARK    6  A    between atoms: N5_20  and  C14_21 
ROOT
HETATM    1  C8  UNL     1      25.664   5.877  49.880  1.00  0.00     0.036 A 
HETATM    2  C9  UNL     1      24.830   6.979  50.102  1.00  0.00     0.032 A 
HETATM    3  C10 UNL     1      23.616   6.845  50.748  1.00  0.00     0.035 A 
HETATM    4  C11 UNL     1      23.201   5.597  51.192  1.00  0.00     0.072 A 
HETATM    5  N3  UNL     1      22.031   5.408  51.824  1.00  0.00    -0.241 NA
HETATM    6  C12 UNL     1      21.673   4.173  52.233  1.00  0.00     0.236 A 
HETATM    7  N4  UNL     1      22.509   3.146  51.996  1.00  0.00    -0.224 NA
HETATM    8  C13 UNL     1      23.675   3.296  51.373  1.00  0.00     0.142 A 
HETATM    9  C20 UNL     1      24.049   4.549  50.952  1.00  0.00     0.041 A 
HETATM   10  C21 UNL     1      25.265   4.633  50.313  1.00  0.00     0.047 A 
ENDROOT
BRANCH   1  11
HETATM   11  N2  UNL     1      26.842   6.288  49.202  1.00  0.00    -0.316 N 
HETATM   12  C1  UNL     1      27.939   5.635  48.566  1.00  0.00     0.301 C 
HETATM   13  O1  UNL     1      28.034   4.381  48.503  1.00  0.00    -0.258 OA
HETATM   14  H9  UNL     1      26.785   7.331  49.240  1.00  0.00     0.170 HD
BRANCH  12  15
HETATM   15  C2  UNL     1      28.957   6.480  47.988  1.00  0.00    -0.004 C 
HETATM   16  C3  UNL     1      29.834   7.193  47.513  1.00  0.00    -0.066 C 
BRANCH  16  17
HETATM   17  C4  UNL     1      30.876   8.058  46.969  1.00  0.00     0.369 C 
BRANCH  17  18
HETATM   18  N1  UNL     1      32.198   7.576  47.230  1.00  0.00     0.124 N 
HETATM   19  C5  UNL     1      32.513   7.488  48.649  1.00  0.00     0.302 C 
HETATM   20  C6  UNL     1      33.783   6.632  48.547  1.00  0.00     0.200 C 
HETATM   21  O2  UNL     1      33.361   5.664  47.644  1.00  0.00    -0.361 OA
HETATM   22  C7  UNL     1      32.463   6.248  46.775  1.00  0.00     0.441 C 
ENDBRANCH  17  18
ENDBRANCH  16  17
ENDBRANCH  12  15
ENDBRANCH   1  11
BRANCH   8  23
HETATM   23  N5  UNL     1      24.454   2.123  51.189  1.00  0.00    -0.340 N 
HETATM   24  H13 UNL     1      24.387   1.681  50.254  1.00  0.00     0.167 HD
BRANCH  23  25
HETATM   25  C14 UNL     1      25.285   1.566  52.211  1.00  0.00     0.035 A 
HETATM   26  C15 UNL     1      24.835   0.443  52.900  1.00  0.00     0.032 A 
HETATM   27  C16 UNL     1      25.639  -0.102  53.896  1.00  0.00     0.046 A 
HETATM   28  C17 UNL     1      26.864   0.480  54.180  1.00  0.00     0.138 A 
HETATM   29  F1  UNL     1      27.670  -0.036  55.155  1.00  0.00    -0.204 F 
HETATM   30  C18 UNL     1      27.323   1.598  53.502  1.00  0.00     0.074 A 
HETATM   31 CL1  UNL     1      28.873   2.318  53.878  1.00  0.00    -0.081 Cl
HETATM   32  C19 UNL     1      26.501   2.132  52.503  1.00  0.00     0.056 A 
ENDBRANCH  23  25
ENDBRANCH   8  23
TORSDOF 6
ENDMDL
MODEL 7
REMARK VINA RESULT:      -8.3      3.645      5.501
REMARK  6 active torsions:
REMARK  status: ('A' for Active; 'I' for Inactive)
REMARK    1  A    between atoms: C1_2  and  C2_3 
REMARK       I    between atoms: C1_2  and  N2_11 
REMARK    2  A    between atoms: C3_4  and  C4_5 
REMARK    3  A    between atoms: C4_5  and  N1_6 
REMARK    4  A    between atoms: N2_11  and  C8_12 
REMARK    5  A    between atoms: C13_19  and  N5_20 
REMARK    6  A    between atoms: N5_20  and  C14_21 
ROOT
HETATM    1  C8  UNL     1      25.858   2.059  51.670  1.00  0.00     0.036 A 
HETATM    2  C9  UNL     1      26.802   1.188  52.229  1.00  0.00     0.032 A 
HETATM    3  C10 UNL     1      26.429   0.190  53.108  1.00  0.00     0.035 A 
HETATM    4  C11 UNL     1      25.095   0.034  53.455  1.00  0.00     0.072 A 
HETATM    5  N3  UNL     1      24.676  -0.918  54.305  1.00  0.00    -0.241 NA
HETATM    6  C12 UNL     1      23.367  -1.025  54.611  1.00  0.00     0.236 A 
HETATM    7  N4  UNL     1      22.498  -0.165  54.048  1.00  0.00    -0.224 NA
HETATM    8  C13 UNL     1      22.876   0.789  53.202  1.00  0.00     0.142 A 
HETATM    9  C20 UNL     1      24.209   0.908  52.884  1.00  0.00     0.041 A 
HETATM   10  C21 UNL     1      24.531   1.916  52.005  1.00  0.00     0.047 A 
ENDROOT
BRANCH   1  11
HETATM   11  N2  UNL     1      26.502   2.983  50.804  1.00  0.00    -0.316 N 
HETATM   12  C1  UNL     1      26.117   3.771  49.680  1.00  0.00     0.301 C 
HETATM   13  O1  UNL     1      24.947   3.758  49.214  1.00  0.00    -0.258 OA
HETATM   14  H9  UNL     1      27.478   3.012  51.174  1.00  0.00     0.170 HD
BRANCH  12  15
HETATM   15  C2  UNL     1      27.138   4.600  49.082  1.00  0.00    -0.004 C 
HETATM   16  C3  UNL     1      27.991   5.319  48.575  1.00  0.00    -0.066 C 
BRANCH  16  17
HETATM   17  C4  UNL     1      28.990   6.179  47.950  1.00  0.00     0.369 C 
BRANCH  17  18
HETATM   18  N1  UNL     1      30.289   6.048  48.536  1.00  0.00     0.124 N 
HETATM   19  C5  UNL     1      31.151   5.109  47.831  1.00  0.00     0.302 C 
HETATM   20  C6  UNL     1      32.487   5.497  48.479  1.00  0.00     0.200 C 
HETATM   21  O2  UNL     1      32.404   6.882  48.417  1.00  0.00    -0.361 OA
HETATM   22  C7  UNL     1      31.077   7.239  48.544  1.00  0.00     0.441 C 
ENDBRANCH  17  18
ENDBRANCH  16  17
ENDBRANCH  12  15
ENDBRANCH   1  11
BRANCH   8  23
HETATM   23  N5  UNL     1      21.852   1.626  52.686  1.00  0.00    -0.340 N 
HETATM   24  H13 UNL     1      22.001   2.645  52.808  1.00  0.00     0.167 HD
BRANCH  23  25
HETATM   25  C14 UNL     1      20.681   1.123  52.039  1.00  0.00     0.035 A 
HETATM   26  C15 UNL     1      20.448   1.471  50.711  1.00  0.00     0.032 A 
HETATM   27  C16 UNL     1      19.309   0.986  50.079  1.00  0.00     0.046 A 
HETATM   28  C17 UNL     1      18.434   0.170  50.778  1.00  0.00     0.138 A 
HETATM   29  F1  UNL     1      17.307  -0.317  50.178  1.00  0.00    -0.204 F 
HETATM   30  C18 UNL     1      18.653  -0.183  52.100  1.00  0.00     0.074 A 
HETATM   31 CL1  UNL     1      17.534  -1.213  52.965  1.00  0.00    -0.081 Cl
HETATM   32  C19 UNL     1      19.804   0.314  52.720  1.00  0.00     0.056 A 
ENDBRANCH  23  25
ENDBRANCH   8  23
TORSDOF 6
ENDMDL
MODEL 8
REMARK VINA RESULT:      -8.2      3.867      5.800
REMARK  6 active torsions:
REMARK  status: ('A' for Active; 'I' for Inactive)
REMARK    1  A    between atoms: C1_2  and  C2_3 
REMARK       I    between atoms: C1_2  and  N2_11 
REMARK    2  A    between atoms: C3_4  and  C4_5 
REMARK    3  A    between atoms: C4_5  and  N1_6 
REMARK    4  A    between atoms: N2_11  and  C8_12 
REMARK    5  A    between atoms: C13_19  and  N5_20 
REMARK    6  A    between atoms: N5_20  and  C14_21 
ROOT
HETATM    1  C8  UNL     1      25.836   2.704  51.381  1.00  0.00     0.036 A 
HETATM    2  C9  UNL     1      26.915   1.893  51.758  1.00  0.00     0.032 A 
HETATM    3  C10 UNL     1      26.734   0.781  52.558  1.00  0.00     0.035 A 
HETATM    4  C11 UNL     1      25.463   0.448  53.006  1.00  0.00     0.072 A 
HETATM    5  N3  UNL     1      25.229  -0.620  53.786  1.00  0.00    -0.241 NA
HETATM    6  C12 UNL     1      23.975  -0.898  54.196  1.00  0.00     0.236 A 
HETATM    7  N4  UNL     1      22.973  -0.090  53.807  1.00  0.00    -0.224 NA
HETATM    8  C13 UNL     1      23.166   0.976  53.034  1.00  0.00     0.142 A 
HETATM    9  C20 UNL     1      24.441   1.269  52.611  1.00  0.00     0.041 A 
HETATM   10  C21 UNL     1      24.571   2.386  51.817  1.00  0.00     0.047 A 
ENDROOT
BRANCH   1  11
HETATM   11  N2  UNL     1      26.294   3.770  50.562  1.00  0.00    -0.316 N 
HETATM   12  C1  UNL     1      25.755   4.542  49.491  1.00  0.00     0.301 C 
HETATM   13  O1  UNL     1      24.593   4.357  49.042  1.00  0.00    -0.258 OA
HETATM   14  H9  UNL     1      27.260   3.945  50.919  1.00  0.00     0.170 HD
BRANCH  12  15
HETATM   15  C2  UNL     1      26.607   5.564  48.929  1.00  0.00    -0.004 C 
HETATM   16  C3  UNL     1      27.319   6.447  48.462  1.00  0.00    -0.066 C 
BRANCH  16  17
HETATM   17  C4  UNL     1      28.145   7.507  47.896  1.00  0.00     0.369 C 
BRANCH  17  18
HETATM   18  N1  UNL     1      27.705   8.818  48.262  1.00  0.00     0.124 N 
HETATM   19  C5  UNL     1      26.306   9.070  47.941  1.00  0.00     0.302 C 
HETATM   20  C6  UNL     1      26.111  10.347  48.769  1.00  0.00     0.200 C 
HETATM   21  O2  UNL     1      26.719   9.971  49.959  1.00  0.00    -0.361 OA
HETATM   22  C7  UNL     1      27.754   9.110  49.660  1.00  0.00     0.441 C 
ENDBRANCH  17  18
ENDBRANCH  16  17
ENDBRANCH  12  15
ENDBRANCH   1  11
BRANCH   8  23
HETATM   23  N5  UNL     1      22.017   1.741  52.704  1.00  0.00    -0.340 N 
HETATM   24  H13 UNL     1      22.076   2.754  52.914  1.00  0.00     0.167 HD
BRANCH  23  25
HETATM   25  C14 UNL     1      20.841   1.175  52.120  1.00  0.00     0.035 A 
HETATM   26  C15 UNL     1      20.572   1.428  50.778  1.00  0.00     0.032 A 
HETATM   27  C16 UNL     1      19.428   0.882  50.206  1.00  0.00     0.046 A 
HETATM   28  C17 UNL     1      18.584   0.100  50.980  1.00  0.00     0.138 A 
HETATM   29  F1  UNL     1      17.454  -0.446  50.440  1.00  0.00    -0.204 F 
HETATM   30  C18 UNL     1      18.840  -0.159  52.316  1.00  0.00     0.074 A 
HETATM   31 CL1  UNL     1      17.760  -1.147  53.274  1.00  0.00    -0.081 Cl
HETATM   32  C19 UNL     1      19.995   0.399  52.874  1.00  0.00     0.056 A 
ENDBRANCH  23  25
ENDBRANCH   8  23
TORSDOF 6
ENDMDL
MODEL 9
REMARK VINA RESULT:      -8.2      4.215      8.883
REMARK  6 active torsions:
REMARK  status: ('A' for Active; 'I' for Inactive)
REMARK    1  A    between atoms: C1_2  and  C2_3 
REMARK       I    between atoms: C1_2  and  N2_11 
REMARK    2  A    between atoms: C3_4  and  C4_5 
REMARK    3  A    between atoms: C4_5  and  N1_6 
REMARK    4  A    between atoms: N2_11  and  C8_12 
REMARK    5  A    between atoms: C13_19  and  N5_20 
REMARK    6  A    between atoms: N5_20  and  C14_21 
ROOT
HETATM    1  C8  UNL     1      24.913   4.360  49.831  1.00  0.00     0.036 A 
HETATM    2  C9  UNL     1      23.698   4.407  49.135  1.00  0.00     0.032 A 
HETATM    3  C10 UNL     1      23.426   5.417  48.231  1.00  0.00     0.035 A 
HETATM    4  C11 UNL     1      24.365   6.411  47.998  1.00  0.00     0.072 A 
HETATM    5  N3  UNL     1      24.153   7.416  47.132  1.00  0.00    -0.241 NA
HETATM    6  C12 UNL     1      25.099   8.358  46.943  1.00  0.00     0.236 A 
HETATM    7  N4  UNL     1      26.249   8.269  47.635  1.00  0.00    -0.224 NA
HETATM    8  C13 UNL     1      26.494   7.288  48.500  1.00  0.00     0.142 A 
HETATM    9  C20 UNL     1      25.537   6.322  48.701  1.00  0.00     0.041 A 
HETATM   10  C21 UNL     1      25.854   5.339  49.610  1.00  0.00     0.047 A 
ENDROOT
BRANCH   1  11
HETATM   11  N2  UNL     1      24.936   3.228  50.689  1.00  0.00    -0.316 N 
HETATM   12  C1  UNL     1      25.943   2.470  51.355  1.00  0.00     0.301 C 
HETATM   13  O1  UNL     1      27.169   2.745  51.264  1.00  0.00    -0.258 OA
HETATM   14  H9  UNL     1      23.926   2.981  50.782  1.00  0.00     0.170 HD
BRANCH  12  15
HETATM   15  C2  UNL     1      25.498   1.352  52.155  1.00  0.00    -0.004 C 
HETATM   16  C3  UNL     1      25.113   0.417  52.847  1.00  0.00    -0.066 C 
BRANCH  16  17
HETATM   17  C4  UNL     1      24.670  -0.688  53.691  1.00  0.00     0.369 C 
BRANCH  17  18
HETATM   18  N1  UNL     1      23.312  -0.555  54.123  1.00  0.00     0.124 N 
HETATM   19  C5  UNL     1      22.343  -0.995  53.129  1.00  0.00     0.302 C 
HETATM   20  C6  UNL     1      21.104  -1.056  54.033  1.00  0.00     0.200 C 
HETATM   21  O2  UNL     1      21.633  -1.705  55.141  1.00  0.00    -0.361 OA
HETATM   22  C7  UNL     1      22.957  -1.336  55.265  1.00  0.00     0.441 C 
ENDBRANCH  17  18
ENDBRANCH  16  17
ENDBRANCH  12  15
ENDBRANCH   1  11
BRANCH   8  23
HETATM   23  N5  UNL     1      27.750   7.321  49.162  1.00  0.00    -0.340 N 
HETATM   24  H13 UNL     1      27.728   7.626  50.152  1.00  0.00     0.167 HD
BRANCH  23  25
HETATM   25  C14 UNL     1      28.979   6.962  48.526  1.00  0.00     0.035 A 
HETATM   26  C15 UNL     1      29.222   5.619  48.248  1.00  0.00     0.032 A 
HETATM   27  C16 UNL     1      30.418   5.266  47.632  1.00  0.00     0.046 A 
HETATM   28  C17 UNL     1      31.337   6.251  47.309  1.00  0.00     0.138 A 
HETATM   29  F1  UNL     1      32.520   5.927  46.705  1.00  0.00    -0.204 F 
HETATM   30  C18 UNL     1      31.109   7.590  47.580  1.00  0.00     0.074 A 
HETATM   31 CL1  UNL     1      32.284   8.817  47.165  1.00  0.00    -0.081 Cl
HETATM   32  C19 UNL     1      29.900   7.927  48.200  1.00  0.00     0.056 A 
ENDBRANCH  23  25
ENDBRANCH   8  23
TORSDOF 6
ENDMDL
