MODEL 1
REMARK VINA RESULT:      -8.1      0.000      0.000
REMARK  3 active torsions:
REMARK  status: ('A' for Active; 'I' for Inactive)
REMARK    1  A    between atoms: C5_6  and  C6_7 
REMARK    2  A    between atoms: C5_6  and  C7_10 
REMARK    3  A    between atoms: C6_7  and  O3_9 
ROOT
HETATM    1  O1  UNL     1      24.333   2.022  52.224  1.00  0.00     0.000 OA
HETATM    2  C1  UNL     1      23.941   2.926  51.479  1.00  0.00     0.066 A 
HETATM    3  C2  UNL     1      23.528   2.031  52.581  1.00  0.00     0.060 A 
HETATM    4  C3  UNL     1      24.636   1.336  52.780  1.00  0.00     0.039 A 
HETATM    5  C4  UNL     1      26.019   1.008  52.481  1.00  0.00    -0.037 C 
HETATM    6  C5  UNL     1      26.447   0.052  53.235  1.00  0.00     0.068 C 
HETATM    7  C11 UNL     1      26.766   1.698  51.415  1.00  0.00    -0.007 C 
HETATM    8  C12 UNL     1      26.221   2.664  50.733  1.00  0.00     0.064 C 
HETATM    9  C13 UNL     1      25.844   3.738  49.858  1.00  0.00     0.028 C 
HETATM   10 BR1  UNL     1      26.564   5.223  49.003  1.00  0.00    -0.052 Br
HETATM   11  C14 UNL     1      24.570   3.795  49.490  1.00  0.00     0.101 C 
HETATM   12  N2  UNL     1      23.765   3.956  50.505  1.00  0.00    -0.247 NA
ENDROOT
BRANCH   6  13
HETATM   13  C6  UNL     1      25.445  -0.478  54.204  1.00  0.00     0.178 C 
HETATM   14  O2  UNL     1      25.815  -0.640  55.424  1.00  0.00    -0.646 OA
BRANCH  13  15
HETATM   15  O3  UNL     1      24.398  -0.968  54.935  1.00  0.00    -0.773 OA
HETATM   16  H3  UNL     1      23.693  -1.553  54.478  1.00  0.00     0.167 HD
ENDBRANCH  13  15
ENDBRANCH   6  13
BRANCH   6  17
HETATM   17  C7  UNL     1      27.780  -0.599  53.320  1.00  0.00     0.046 C 
HETATM   18  N1  UNL     1      27.815  -1.896  53.111  1.00  0.00    -0.293 NA
HETATM   19  C8  UNL     1      29.140  -2.417  53.215  1.00  0.00     0.149 C 
HETATM   20  C9  UNL     1      29.992  -1.319  53.769  1.00  0.00     0.028 C 
HETATM   21  C10 UNL     1      29.134  -0.095  53.608  1.00  0.00     0.061 C 
ENDBRANCH   6  17
TORSDOF 3
ENDMDL
MODEL 2
REMARK VINA RESULT:      -7.8      1.907      2.281
REMARK  3 active torsions:
REMARK  status: ('A' for Active; 'I' for Inactive)
REMARK    1  A    between atoms: C5_6  and  C6_7 
REMARK    2  A    between atoms: C5_6  and  C7_10 
REMARK    3  A    between atoms: C6_7  and  O3_9 
ROOT
HETATM    1  O1  UNL     1      22.952   0.518  52.879  1.00  0.00     0.000 OA
HETATM    2  C1  UNL     1      22.144   1.022  52.091  1.00  0.00     0.066 A 
HETATM    3  C2  UNL     1      22.258   0.171  53.295  1.00  0.00     0.060 A 
HETATM    4  C3  UNL     1      23.568   0.138  53.466  1.00  0.00     0.039 A 
HETATM    5  C4  UNL     1      24.924   0.500  53.090  1.00  0.00    -0.037 C 
HETATM    6  C5  UNL     1      25.789  -0.030  53.889  1.00  0.00     0.068 C 
HETATM    7  C11 UNL     1      25.203   1.342  51.915  1.00  0.00    -0.007 C 
HETATM    8  C12 UNL     1      24.234   1.832  51.197  1.00  0.00     0.064 C 
HETATM    9  C13 UNL     1      23.352   2.476  50.264  1.00  0.00     0.028 C 
HETATM   10 BR1  UNL     1      23.217   4.015  49.232  1.00  0.00    -0.052 Br
HETATM   11  C14 UNL     1      22.209   1.857  49.993  1.00  0.00     0.101 C 
HETATM   12  N2  UNL     1      21.456   1.716  51.049  1.00  0.00    -0.247 NA
ENDROOT
BRANCH   6  13
HETATM   13  C6  UNL     1      25.207  -0.871  54.974  1.00  0.00     0.178 C 
HETATM   14  O2  UNL     1      25.778  -0.847  56.125  1.00  0.00    -0.646 OA
BRANCH  13  15
HETATM   15  O3  UNL     1      24.535  -1.698  55.832  1.00  0.00    -0.773 OA
HETATM   16  H3  UNL     1      24.513  -2.705  55.649  1.00  0.00     0.167 HD
ENDBRANCH  13  15
ENDBRANCH   6  13
BRANCH   6  17
HETATM   17  C7  UNL     1      27.271   0.072  53.926  1.00  0.00     0.046 C 
HETATM   18  N1  UNL     1      27.772   1.172  54.444  1.00  0.00    -0.293 NA
HETATM   19  C8  UNL     1      29.199   1.166  54.431  1.00  0.00     0.149 C 
HETATM   20  C9  UNL     1      29.616  -0.007  53.602  1.00  0.00     0.028 C 
HETATM   21  C10 UNL     1      28.356  -0.820  53.485  1.00  0.00     0.061 C 
ENDBRANCH   6  17
TORSDOF 3
ENDMDL
MODEL 3
REMARK VINA RESULT:      -7.5      3.196      4.388
REMARK  3 active torsions:
REMARK  status: ('A' for Active; 'I' for Inactive)
REMARK    1  A    between atoms: C5_6  and  C6_7 
REMARK    2  A    between atoms: C5_6  and  C7_10 
REMARK    3  A    between atoms: C6_7  and  O3_9 
ROOT
HETATM    1  O1  UNL     1      23.429   1.987  52.102  1.00  0.00     0.000 OA
HETATM    2  C1  UNL     1      22.224   1.833  52.322  1.00  0.00     0.066 A 
HETATM    3  C2  UNL     1      23.202   2.679  51.607  1.00  0.00     0.060 A 
HETATM    4  C3  UNL     1      24.342   2.100  51.945  1.00  0.00     0.039 A 
HETATM    5  C4  UNL     1      25.110   1.082  52.641  1.00  0.00    -0.037 C 
HETATM    6  C5  UNL     1      26.376   1.232  52.441  1.00  0.00     0.068 C 
HETATM    7  C11 UNL     1      24.460   0.057  53.476  1.00  0.00    -0.007 C 
HETATM    8  C12 UNL     1      23.164   0.002  53.582  1.00  0.00     0.064 C 
HETATM    9  C13 UNL     1      21.778  -0.257  53.853  1.00  0.00     0.028 C 
HETATM   10 BR1  UNL     1      20.610  -1.666  54.178  1.00  0.00    -0.052 Br
HETATM   11  C14 UNL     1      20.965   0.792  53.884  1.00  0.00     0.101 C 
HETATM   12  N2  UNL     1      20.921   1.422  52.741  1.00  0.00    -0.247 NA
ENDROOT
BRANCH   6  13
HETATM   13  C6  UNL     1      26.741   2.389  51.573  1.00  0.00     0.178 C 
HETATM   14  O2  UNL     1      26.934   2.165  50.323  1.00  0.00    -0.646 OA
BRANCH  13  15
HETATM   15  O3  UNL     1      27.062   3.561  50.946  1.00  0.00    -0.773 OA
HETATM   16  H3  UNL     1      27.815   4.144  51.321  1.00  0.00     0.167 HD
ENDBRANCH  13  15
ENDBRANCH   6  13
BRANCH   6  17
HETATM   17  C7  UNL     1      27.538   0.435  52.912  1.00  0.00     0.046 C 
HETATM   18  N1  UNL     1      28.587   1.111  53.326  1.00  0.00    -0.293 NA
HETATM   19  C8  UNL     1      29.641   0.249  53.755  1.00  0.00     0.149 C 
HETATM   20  C9  UNL     1      29.255  -1.138  53.350  1.00  0.00     0.028 C 
HETATM   21  C10 UNL     1      27.794  -1.012  53.017  1.00  0.00     0.061 C 
ENDBRANCH   6  17
TORSDOF 3
ENDMDL
MODEL 4
REMARK VINA RESULT:      -7.4      2.529      5.982
REMARK  3 active torsions:
REMARK  status: ('A' for Active; 'I' for Inactive)
REMARK    1  A    between atoms: C5_6  and  C6_7 
REMARK    2  A    between atoms: C5_6  and  C7_10 
REMARK    3  A    between atoms: C6_7  and  O3_9 
ROOT
HETATM    1  O1  UNL     1      24.998   0.871  52.552  1.00  0.00     0.000 OA
HETATM    2  C1  UNL     1      25.473   0.016  53.307  1.00  0.00     0.066 A 
HETATM    3  C2  UNL     1      24.214   0.495  52.696  1.00  0.00     0.060 A 
HETATM    4  C3  UNL     1      24.647   1.522  51.984  1.00  0.00     0.039 A 
HETATM    5  C4  UNL     1      25.698   2.401  51.502  1.00  0.00    -0.037 C 
HETATM    6  C5  UNL     1      25.224   3.316  50.724  1.00  0.00     0.068 C 
HETATM    7  C11 UNL     1      27.101   2.231  51.917  1.00  0.00    -0.007 C 
HETATM    8  C12 UNL     1      27.454   1.251  52.698  1.00  0.00     0.064 C 
HETATM    9  C13 UNL     1      28.079   0.268  53.538  1.00  0.00     0.028 C 
HETATM   10 BR1  UNL     1      29.673  -0.669  53.722  1.00  0.00    -0.052 Br
HETATM   11  C14 UNL     1      27.353  -0.217  54.538  1.00  0.00     0.101 C 
HETATM   12  N2  UNL     1      26.281  -0.835  54.122  1.00  0.00    -0.247 NA
ENDROOT
BRANCH   6  13
HETATM   13  C6  UNL     1      23.749   3.258  50.516  1.00  0.00     0.178 C 
HETATM   14  O2  UNL     1      23.317   3.053  49.323  1.00  0.00    -0.646 OA
BRANCH  13  15
HETATM   15  O3  UNL     1      22.381   3.238  50.524  1.00  0.00    -0.773 OA
HETATM   16  H3  UNL     1      21.890   2.639  51.193  1.00  0.00     0.167 HD
ENDBRANCH  13  15
ENDBRANCH   6  13
BRANCH   6  17
HETATM   17  C7  UNL     1      25.902   4.408  49.979  1.00  0.00     0.046 C 
HETATM   18  N1  UNL     1      25.415   5.619  50.138  1.00  0.00    -0.293 NA
HETATM   19  C8  UNL     1      26.139   6.588  49.380  1.00  0.00     0.149 C 
HETATM   20  C9  UNL     1      27.059   5.829  48.478  1.00  0.00     0.028 C 
HETATM   21  C10 UNL     1      27.047   4.439  49.053  1.00  0.00     0.061 C 
ENDBRANCH   6  17
TORSDOF 3
ENDMDL
MODEL 5
REMARK VINA RESULT:      -7.2      3.589      4.737
REMARK  3 active torsions:
REMARK  status: ('A' for Active; 'I' for Inactive)
REMARK    1  A    between atoms: C5_6  and  C6_7 
REMARK    2  A    between atoms: C5_6  and  C7_10 
REMARK    3  A    between atoms: C6_7  and  O3_9 
ROOT
HETATM    1  O1  UNL     1      21.454  -0.682  53.905  1.00  0.00     0.000 OA
HETATM    2  C1  UNL     1      20.269  -0.637  53.558  1.00  0.00     0.066 A 
HETATM    3  C2  UNL     1      21.210  -1.292  54.492  1.00  0.00     0.060 A 
HETATM    4  C3  UNL     1      22.351  -0.714  54.158  1.00  0.00     0.039 A 
HETATM    5  C4  UNL     1      23.139   0.213  53.364  1.00  0.00    -0.037 C 
HETATM    6  C5  UNL     1      24.386   0.172  53.696  1.00  0.00     0.068 C 
HETATM    7  C11 UNL     1      22.530   1.041  52.309  1.00  0.00    -0.007 C 
HETATM    8  C12 UNL     1      21.249   1.003  52.084  1.00  0.00     0.064 C 
HETATM    9  C13 UNL     1      19.885   1.132  51.652  1.00  0.00     0.028 C 
HETATM   10 BR1  UNL     1      18.695   2.395  50.986  1.00  0.00    -0.052 Br
HETATM   11  C14 UNL     1      19.123   0.048  51.736  1.00  0.00     0.101 C 
HETATM   12  N2  UNL     1      18.996  -0.379  52.962  1.00  0.00    -0.247 NA
ENDROOT
BRANCH   6  13
HETATM   13  C6  UNL     1      24.714  -0.797  54.781  1.00  0.00     0.178 C 
HETATM   14  O2  UNL     1      25.874  -1.349  54.764  1.00  0.00    -0.646 OA
BRANCH  13  15
HETATM   15  O3  UNL     1      24.828  -1.646  55.847  1.00  0.00    -0.773 OA
HETATM   16  H3  UNL     1      25.361  -1.353  56.670  1.00  0.00     0.167 HD
ENDBRANCH  13  15
ENDBRANCH   6  13
BRANCH   6  17
HETATM   17  C7  UNL     1      25.553   0.943  53.195  1.00  0.00     0.046 C 
HETATM   18  N1  UNL     1      26.192   1.681  54.076  1.00  0.00    -0.293 NA
HETATM   19  C8  UNL     1      27.293   2.377  53.491  1.00  0.00     0.149 C 
HETATM   20  C9  UNL     1      27.177   2.197  52.010  1.00  0.00     0.028 C 
HETATM   21  C10 UNL     1      26.180   1.079  51.869  1.00  0.00     0.061 C 
ENDBRANCH   6  17
TORSDOF 3
ENDMDL
MODEL 6
REMARK VINA RESULT:      -7.0      2.318      3.858
REMARK  3 active torsions:
REMARK  status: ('A' for Active; 'I' for Inactive)
REMARK    1  A    between atoms: C5_6  and  C6_7 
REMARK    2  A    between atoms: C5_6  and  C7_10 
REMARK    3  A    between atoms: C6_7  and  O3_9 
ROOT
HETATM    1  O1  UNL     1      26.213   2.260  51.571  1.00  0.00     0.000 OA
HETATM    2  C1  UNL     1      26.283   3.192  50.763  1.00  0.00     0.066 A 
HETATM    3  C2  UNL     1      27.090   2.307  51.629  1.00  0.00     0.060 A 
HETATM    4  C3  UNL     1      26.151   1.560  52.184  1.00  0.00     0.039 A 
HETATM    5  C4  UNL     1      24.765   1.169  52.375  1.00  0.00    -0.037 C 
HETATM    6  C5  UNL     1      24.663   0.207  53.230  1.00  0.00     0.068 C 
HETATM    7  C11 UNL     1      23.664   1.850  51.672  1.00  0.00    -0.007 C 
HETATM    8  C12 UNL     1      23.902   2.800  50.816  1.00  0.00     0.064 C 
HETATM    9  C13 UNL     1      23.911   3.858  49.845  1.00  0.00     0.028 C 
HETATM   10 BR1  UNL     1      22.988   4.448  48.344  1.00  0.00    -0.052 Br
HETATM   11  C14 UNL     1      24.877   4.763  49.951  1.00  0.00     0.101 C 
HETATM   12  N2  UNL     1      26.066   4.242  49.819  1.00  0.00    -0.247 NA
ENDROOT
BRANCH   6  13
HETATM   13  C6  UNL     1      25.957  -0.257  53.808  1.00  0.00     0.178 C 
HETATM   14  O2  UNL     1      26.380  -1.424  53.477  1.00  0.00    -0.646 OA
BRANCH  13  15
HETATM   15  O3  UNL     1      27.149  -0.503  54.433  1.00  0.00    -0.773 OA
HETATM   16  H3  UNL     1      27.287  -0.190  55.397  1.00  0.00     0.167 HD
ENDBRANCH  13  15
ENDBRANCH   6  13
BRANCH   6  17
HETATM   17  C7  UNL     1      23.475  -0.536  53.724  1.00  0.00     0.046 C 
HETATM   18  N1  UNL     1      23.532  -0.984  54.958  1.00  0.00    -0.293 NA
HETATM   19  C8  UNL     1      22.342  -1.679  55.329  1.00  0.00     0.149 C 
HETATM   20  C9  UNL     1      21.540  -1.856  54.079  1.00  0.00     0.028 C 
HETATM   21  C10 UNL     1      22.189  -0.907  53.109  1.00  0.00     0.061 C 
ENDBRANCH   6  17
TORSDOF 3
ENDMDL
MODEL 7
REMARK VINA RESULT:      -6.7      3.139      6.683
REMARK  3 active torsions:
REMARK  status: ('A' for Active; 'I' for Inactive)
REMARK    1  A    between atoms: C5_6  and  C6_7 
REMARK    2  A    between atoms: C5_6  and  C7_10 
REMARK    3  A    between atoms: C6_7  and  O3_9 
ROOT
HETATM    1  O1  UNL     1      26.115   1.610  52.559  1.00  0.00     0.000 OA
HETATM    2  C1  UNL     1      26.023   0.810  53.495  1.00  0.00     0.066 A 
HETATM    3  C2  UNL     1      26.950   1.735  52.810  1.00  0.00     0.060 A 
HETATM    4  C3  UNL     1      26.178   2.209  51.846  1.00  0.00     0.039 A 
HETATM    5  C4  UNL     1      24.916   2.287  51.131  1.00  0.00    -0.037 C 
HETATM    6  C5  UNL     1      24.992   3.104  50.135  1.00  0.00     0.068 C 
HETATM    7  C11 UNL     1      23.749   1.482  51.530  1.00  0.00    -0.007 C 
HETATM    8  C12 UNL     1      23.797   0.703  52.571  1.00  0.00     0.064 C 
HETATM    9  C13 UNL     1      23.607  -0.214  53.660  1.00  0.00     0.028 C 
HETATM   10 BR1  UNL     1      22.298  -0.803  54.840  1.00  0.00    -0.052 Br
HETATM   11  C14 UNL     1      24.668  -0.911  54.050  1.00  0.00     0.101 C 
HETATM   12  N2  UNL     1      25.635  -0.149  54.482  1.00  0.00    -0.247 NA
ENDROOT
BRANCH   6  13
HETATM   13  C6  UNL     1      26.324   3.752  49.956  1.00  0.00     0.178 C 
HETATM   14  O2  UNL     1      27.055   3.361  48.975  1.00  0.00    -0.646 OA
BRANCH  13  15
HETATM   15  O3  UNL     1      27.496   4.456  49.955  1.00  0.00    -0.773 OA
HETATM   16  H3  UNL     1      28.060   4.498  50.808  1.00  0.00     0.167 HD
ENDBRANCH  13  15
ENDBRANCH   6  13
BRANCH   6  17
HETATM   17  C7  UNL     1      23.970   3.531  49.145  1.00  0.00     0.046 C 
HETATM   18  N1  UNL     1      23.901   4.818  48.888  1.00  0.00    -0.293 NA
HETATM   19  C8  UNL     1      22.889   5.116  47.926  1.00  0.00     0.149 C 
HETATM   20  C9  UNL     1      22.099   3.861  47.729  1.00  0.00     0.028 C 
HETATM   21  C10 UNL     1      22.964   2.801  48.354  1.00  0.00     0.061 C 
ENDBRANCH   6  17
TORSDOF 3
ENDMDL
MODEL 8
REMARK VINA RESULT:      -6.7      3.288      6.414
REMARK  3 active torsions:
REMARK  status: ('A' for Active; 'I' for Inactive)
REMARK    1  A    between atoms: C5_6  and  C6_7 
REMARK    2  A    between atoms: C5_6  and  C7_10 
REMARK    3  A    between atoms: C6_7  and  O3_9 
ROOT
HETATM    1  O1  UNL     1      23.667   2.462  51.183  1.00  0.00     0.000 OA
HETATM    2  C1  UNL     1      23.599   1.443  51.878  1.00  0.00     0.066 A 
HETATM    3  C2  UNL     1      22.786   2.466  51.186  1.00  0.00     0.060 A 
HETATM    4  C3  UNL     1      23.727   3.233  50.662  1.00  0.00     0.039 A 
HETATM    5  C4  UNL     1      25.117   3.580  50.420  1.00  0.00    -0.037 C 
HETATM    6  C5  UNL     1      25.215   4.653  49.710  1.00  0.00     0.068 C 
HETATM    7  C11 UNL     1      26.223   2.780  50.974  1.00  0.00    -0.007 C 
HETATM    8  C12 UNL     1      25.989   1.702  51.665  1.00  0.00     0.064 C 
HETATM    9  C13 UNL     1      25.985   0.497  52.445  1.00  0.00     0.028 C 
HETATM   10 BR1  UNL     1      26.967  -1.060  52.701  1.00  0.00    -0.052 Br
HETATM   11  C14 UNL     1      24.971   0.328  53.285  1.00  0.00     0.101 C 
HETATM   12  N2  UNL     1      23.820   0.276  52.673  1.00  0.00    -0.247 NA
ENDROOT
BRANCH   6  13
HETATM   13  C6  UNL     1      23.913   5.270  49.322  1.00  0.00     0.178 C 
HETATM   14  O2  UNL     1      23.579   5.239  48.082  1.00  0.00    -0.646 OA
BRANCH  13  15
HETATM   15  O3  UNL     1      22.698   5.878  49.164  1.00  0.00    -0.773 OA
HETATM   16  H3  UNL     1      22.583   6.855  49.445  1.00  0.00     0.167 HD
ENDBRANCH  13  15
ENDBRANCH   6  13
BRANCH   6  17
HETATM   17  C7  UNL     1      26.407   5.372  49.190  1.00  0.00     0.046 C 
HETATM   18  N1  UNL     1      26.367   6.685  49.231  1.00  0.00    -0.293 NA
HETATM   19  C8  UNL     1      27.559   7.272  48.710  1.00  0.00     0.149 C 
HETATM   20  C9  UNL     1      28.341   6.166  48.075  1.00  0.00     0.028 C 
HETATM   21  C10 UNL     1      27.682   4.922  48.604  1.00  0.00     0.061 C 
ENDBRANCH   6  17
TORSDOF 3
ENDMDL
MODEL 9
REMARK VINA RESULT:      -6.6      3.781      5.357
REMARK  3 active torsions:
REMARK  status: ('A' for Active; 'I' for Inactive)
REMARK    1  A    between atoms: C5_6  and  C6_7 
REMARK    2  A    between atoms: C5_6  and  C7_10 
REMARK    3  A    between atoms: C6_7  and  O3_9 
ROOT
HETATM    1  O1  UNL     1      21.503  -0.689  53.785  1.00  0.00     0.000 OA
HETATM    2  C1  UNL     1      20.280  -0.849  53.709  1.00  0.00     0.066 A 
HETATM    3  C2  UNL     1      21.490  -1.270  54.447  1.00  0.00     0.060 A 
HETATM    4  C3  UNL     1      22.426  -0.567  53.833  1.00  0.00     0.039 A 
HETATM    5  C4  UNL     1      22.869   0.386  52.829  1.00  0.00    -0.037 C 
HETATM    6  C5  UNL     1      24.147   0.556  52.876  1.00  0.00     0.068 C 
HETATM    7  C11 UNL     1      21.925   1.014  51.889  1.00  0.00    -0.007 C 
HETATM    8  C12 UNL     1      20.648   0.770  51.957  1.00  0.00     0.064 C 
HETATM    9  C13 UNL     1      19.222   0.659  51.834  1.00  0.00     0.028 C 
HETATM   10 BR1  UNL     1      17.731   1.669  51.375  1.00  0.00    -0.052 Br
HETATM   11  C14 UNL     1      18.680  -0.511  52.150  1.00  0.00     0.101 C 
HETATM   12  N2  UNL     1      18.886  -0.835  53.397  1.00  0.00    -0.247 NA
ENDROOT
BRANCH   6  13
HETATM   13  C6  UNL     1      24.849  -0.249  53.917  1.00  0.00     0.178 C 
HETATM   14  O2  UNL     1      25.740   0.339  54.632  1.00  0.00    -0.646 OA
BRANCH  13  15
HETATM   15  O3  UNL     1      25.376  -1.142  54.809  1.00  0.00    -0.773 OA
HETATM   16  H3  UNL     1      26.175  -0.866  55.386  1.00  0.00     0.167 HD
ENDBRANCH  13  15
ENDBRANCH   6  13
BRANCH   6  17
HETATM   17  C7  UNL     1      25.042   1.438  52.083  1.00  0.00     0.046 C 
HETATM   18  N1  UNL     1      24.597   2.648  51.824  1.00  0.00    -0.293 NA
HETATM   19  C8  UNL     1      25.533   3.408  51.059  1.00  0.00     0.149 C 
HETATM   20  C9  UNL     1      26.601   2.457  50.618  1.00  0.00     0.028 C 
HETATM   21  C10 UNL     1      26.376   1.250  51.486  1.00  0.00     0.061 C 
ENDBRANCH   6  17
TORSDOF 3
ENDMDL
