MODEL 1
REMARK VINA RESULT:      -9.6      0.000      0.000
REMARK  3 active torsions:
REMARK  status: ('A' for Active; 'I' for Inactive)
REMARK    1  A    between atoms: N3_7  and  C4_8 
REMARK    2  A    between atoms: C8_12  and  C9_13 
REMARK    3  A    between atoms: C9_13  and  O2_14 
ROOT
HETATM    1  O1  UNL     1      19.765   1.337  49.415  1.00  0.00    -0.268 OA
HETATM    2  C1  UNL     1      20.794   1.434  50.074  1.00  0.00     0.254 C 
HETATM    3  N1  UNL     1      22.139   1.763  49.725  1.00  0.00    -0.309 N 
HETATM    4  C2  UNL     1      23.172   1.773  50.743  1.00  0.00     0.132 C 
HETATM    5  N2  UNL     1      24.190   2.511  50.820  1.00  0.00    -0.253 NA
HETATM    6  C3  UNL     1      25.138   2.361  51.955  1.00  0.00     0.300 C 
HETATM    7  N3  UNL     1      25.034   0.980  52.469  1.00  0.00    -0.268 N 
HETATM    8  N4  UNL     1      23.819   0.417  52.733  1.00  0.00    -0.261 N 
HETATM    9  C11 UNL     1      23.544  -0.397  53.868  1.00  0.00     0.117 C 
HETATM   10 CL1  UNL     1      24.978  -0.934  54.769  1.00  0.00    -0.063 Cl
HETATM   11  C12 UNL     1      22.484  -0.864  54.503  1.00  0.00     0.018 C 
HETATM   12  C13 UNL     1      21.060  -0.644  54.184  1.00  0.00     0.004 C 
HETATM   13  C14 UNL     1      19.971  -0.180  53.531  1.00  0.00     0.050 C 
HETATM   14  C15 UNL     1      19.444   0.658  52.366  1.00  0.00     0.125 C 
HETATM   15 CL2  UNL     1      18.196  -0.265  51.511  1.00  0.00    -0.119 Cl
HETATM   16  C16 UNL     1      20.512   1.144  51.468  1.00  0.00     0.027 C 
HETATM   17  C17 UNL     1      21.581   1.255  52.295  1.00  0.00     0.022 C 
HETATM   18  C18 UNL     1      22.850   0.713  51.762  1.00  0.00     0.202 C 
HETATM   19  H1  UNL     1      22.369   2.022  48.758  1.00  0.00     0.170 HD
ENDROOT
BRANCH   7  20
HETATM   20  C4  UNL     1      26.200   0.157  52.719  1.00  0.00     0.053 A 
HETATM   21  C5  UNL     1      26.527  -1.173  52.407  1.00  0.00     0.031 A 
HETATM   22  C6  UNL     1      27.751  -1.667  52.789  1.00  0.00     0.003 A 
HETATM   23  C7  UNL     1      28.665  -0.906  53.464  1.00  0.00     0.009 A 
HETATM   24  C8  UNL     1      28.371   0.392  53.781  1.00  0.00    -0.033 A 
HETATM   25  C10 UNL     1      27.139   0.936  53.413  1.00  0.00     0.040 A 
BRANCH  24  26
HETATM   26  C9  UNL     1      29.417   1.149  54.515  1.00  0.00     0.203 C 
BRANCH  26  27
HETATM   27  O2  UNL     1      29.168   2.519  54.495  1.00  0.00    -0.396 OA
HETATM   28  H9  UNL     1      28.402   2.775  55.090  1.00  0.00     0.209 HD
ENDBRANCH  26  27
ENDBRANCH  24  26
ENDBRANCH   7  20
TORSDOF 3
ENDMDL
MODEL 2
REMARK VINA RESULT:      -9.1      2.473      3.779
REMARK  3 active torsions:
REMARK  status: ('A' for Active; 'I' for Inactive)
REMARK    1  A    between atoms: N3_7  and  C4_8 
REMARK    2  A    between atoms: C8_12  and  C9_13 
REMARK    3  A    between atoms: C9_13  and  O2_14 
ROOT
HETATM    1  O1  UNL     1      19.458   2.991  52.621  1.00  0.00    -0.268 OA
HETATM    2  C1  UNL     1      20.467   2.299  52.579  1.00  0.00     0.254 C 
HETATM    3  N1  UNL     1      21.007   1.321  53.470  1.00  0.00    -0.309 N 
HETATM    4  C2  UNL     1      22.265   0.669  53.157  1.00  0.00     0.132 C 
HETATM    5  N2  UNL     1      22.627  -0.507  53.428  1.00  0.00    -0.253 NA
HETATM    6  C3  UNL     1      23.971  -0.988  53.015  1.00  0.00     0.300 C 
HETATM    7  N3  UNL     1      24.865   0.181  52.886  1.00  0.00    -0.268 N 
HETATM    8  N4  UNL     1      24.478   1.289  52.190  1.00  0.00    -0.261 N 
HETATM    9  C11 UNL     1      25.330   2.026  51.320  1.00  0.00     0.117 C 
HETATM   10 CL1  UNL     1      27.056   1.623  51.445  1.00  0.00    -0.063 Cl
HETATM   11  C12 UNL     1      25.208   2.939  50.374  1.00  0.00     0.018 C 
HETATM   12  C13 UNL     1      23.972   3.555  49.855  1.00  0.00     0.004 C 
HETATM   13  C14 UNL     1      22.651   3.812  49.720  1.00  0.00     0.050 C 
HETATM   14  C15 UNL     1      21.235   3.493  50.199  1.00  0.00     0.125 C 
HETATM   15 CL2  UNL     1      20.373   5.011  50.498  1.00  0.00    -0.119 Cl
HETATM   16  C16 UNL     1      21.206   2.580  51.361  1.00  0.00     0.027 C 
HETATM   17  C17 UNL     1      22.329   1.839  51.199  1.00  0.00     0.022 C 
HETATM   18  C18 UNL     1      23.141   1.646  52.420  1.00  0.00     0.202 C 
HETATM   19  H1  UNL     1      20.491   1.059  54.318  1.00  0.00     0.170 HD
ENDROOT
BRANCH   7  20
HETATM   20  C4  UNL     1      26.186   0.214  53.481  1.00  0.00     0.053 A 
HETATM   21  C5  UNL     1      26.816   1.092  54.379  1.00  0.00     0.031 A 
HETATM   22  C6  UNL     1      28.109   0.835  54.766  1.00  0.00     0.003 A 
HETATM   23  C7  UNL     1      28.806  -0.249  54.306  1.00  0.00     0.009 A 
HETATM   24  C8  UNL     1      28.215  -1.118  53.431  1.00  0.00    -0.033 A 
HETATM   25  C10 UNL     1      26.902  -0.896  53.010  1.00  0.00     0.040 A 
BRANCH  24  26
HETATM   26  C9  UNL     1      29.040  -2.268  52.980  1.00  0.00     0.203 C 
BRANCH  26  27
HETATM   27  O2  UNL     1      28.512  -3.481  53.419  1.00  0.00    -0.396 OA
HETATM   28  H9  UNL     1      27.606  -3.664  53.028  1.00  0.00     0.209 HD
ENDBRANCH  26  27
ENDBRANCH  24  26
ENDBRANCH   7  20
TORSDOF 3
ENDMDL
MODEL 3
REMARK VINA RESULT:      -8.4      3.262      6.548
REMARK  3 active torsions:
REMARK  status: ('A' for Active; 'I' for Inactive)
REMARK    1  A    between atoms: N3_7  and  C4_8 
REMARK    2  A    between atoms: C8_12  and  C9_13 
REMARK    3  A    between atoms: C9_13  and  O2_14 
ROOT
HETATM    1  O1  UNL     1      27.169  -0.202  54.953  1.00  0.00    -0.268 OA
HETATM    2  C1  UNL     1      26.783   0.469  54.003  1.00  0.00     0.254 C 
HETATM    3  N1  UNL     1      27.386   1.528  53.259  1.00  0.00    -0.309 N 
HETATM    4  C2  UNL     1      26.658   2.161  52.176  1.00  0.00     0.132 C 
HETATM    5  N2  UNL     1      27.110   2.649  51.106  1.00  0.00    -0.253 NA
HETATM    6  C3  UNL     1      26.187   3.260  50.115  1.00  0.00     0.300 C 
HETATM    7  N3  UNL     1      24.975   3.717  50.825  1.00  0.00    -0.268 N 
HETATM    8  N4  UNL     1      24.323   2.899  51.701  1.00  0.00    -0.261 N 
HETATM    9  C11 UNL     1      22.907   2.795  51.796  1.00  0.00     0.117 C 
HETATM   10 CL1  UNL     1      22.004   4.057  50.931  1.00  0.00    -0.063 Cl
HETATM   11  C12 UNL     1      22.020   1.975  52.332  1.00  0.00     0.018 C 
HETATM   12  C13 UNL     1      22.267   0.740  53.100  1.00  0.00     0.004 C 
HETATM   13  C14 UNL     1      22.959  -0.253  53.703  1.00  0.00     0.050 C 
HETATM   14  C15 UNL     1      24.336  -0.831  54.029  1.00  0.00     0.125 C 
HETATM   15 CL2  UNL     1      24.394  -1.244  55.752  1.00  0.00    -0.119 Cl
HETATM   16  C16 UNL     1      25.450   0.047  53.614  1.00  0.00     0.027 C 
HETATM   17  C17 UNL     1      24.939   0.705  52.544  1.00  0.00     0.022 C 
HETATM   18  C18 UNL     1      25.192   2.162  52.521  1.00  0.00     0.202 C 
HETATM   19  H1  UNL     1      28.346   1.823  53.472  1.00  0.00     0.170 HD
ENDROOT
BRANCH   7  20
HETATM   20  C4  UNL     1      24.418   5.041  50.632  1.00  0.00     0.053 A 
HETATM   21  C5  UNL     1      24.115   6.096  51.509  1.00  0.00     0.031 A 
HETATM   22  C6  UNL     1      23.588   7.257  50.998  1.00  0.00     0.003 A 
HETATM   23  C7  UNL     1      23.349   7.422  49.661  1.00  0.00     0.009 A 
HETATM   24  C8  UNL     1      23.635   6.410  48.787  1.00  0.00    -0.033 A 
HETATM   25  C10 UNL     1      24.171   5.212  49.262  1.00  0.00     0.040 A 
BRANCH  24  26
HETATM   26  C9  UNL     1      23.345   6.671  47.354  1.00  0.00     0.203 C 
BRANCH  26  27
HETATM   27  O2  UNL     1      22.558   5.663  46.799  1.00  0.00    -0.396 OA
HETATM   28  H9  UNL     1      21.743   6.027  46.341  1.00  0.00     0.209 HD
ENDBRANCH  26  27
ENDBRANCH  24  26
ENDBRANCH   7  20
TORSDOF 3
ENDMDL
MODEL 4
REMARK VINA RESULT:      -8.3      1.985      7.035
REMARK  3 active torsions:
REMARK  status: ('A' for Active; 'I' for Inactive)
REMARK    1  A    between atoms: N3_7  and  C4_8 
REMARK    2  A    between atoms: C8_12  and  C9_13 
REMARK    3  A    between atoms: C9_13  and  O2_14 
ROOT
HETATM    1  O1  UNL     1      28.506   2.402  52.921  1.00  0.00    -0.268 OA
HETATM    2  C1  UNL     1      27.445   2.340  52.311  1.00  0.00     0.254 C 
HETATM    3  N1  UNL     1      26.768   3.257  51.451  1.00  0.00    -0.309 N 
HETATM    4  C2  UNL     1      25.482   2.904  50.880  1.00  0.00     0.132 C 
HETATM    5  N2  UNL     1      25.004   3.231  49.761  1.00  0.00    -0.253 NA
HETATM    6  C3  UNL     1      23.653   2.761  49.360  1.00  0.00     0.300 C 
HETATM    7  N3  UNL     1      22.872   2.488  50.584  1.00  0.00    -0.268 N 
HETATM    8  N4  UNL     1      23.395   1.745  51.601  1.00  0.00    -0.261 N 
HETATM    9  C11 UNL     1      22.666   0.769  52.337  1.00  0.00     0.117 C 
HETATM   10 CL1  UNL     1      20.908   0.802  52.085  1.00  0.00    -0.063 Cl
HETATM   11  C12 UNL     1      22.926  -0.229  53.164  1.00  0.00     0.018 C 
HETATM   12  C13 UNL     1      24.240  -0.702  53.636  1.00  0.00     0.004 C 
HETATM   13  C14 UNL     1      25.584  -0.763  53.775  1.00  0.00     0.050 C 
HETATM   14  C15 UNL     1      26.935  -0.166  53.379  1.00  0.00     0.125 C 
HETATM   15 CL2  UNL     1      27.903   0.085  54.842  1.00  0.00    -0.119 Cl
HETATM   16  C16 UNL     1      26.812   1.057  52.558  1.00  0.00     0.027 C 
HETATM   17  C17 UNL     1      25.642   0.869  51.900  1.00  0.00     0.022 C 
HETATM   18  C18 UNL     1      24.741   2.041  51.866  1.00  0.00     0.202 C 
HETATM   19  H1  UNL     1      27.206   4.155  51.212  1.00  0.00     0.170 HD
ENDROOT
BRANCH   7  20
HETATM   20  C4  UNL     1      21.524   2.987  50.769  1.00  0.00     0.053 A 
HETATM   21  C5  UNL     1      20.875   3.641  51.830  1.00  0.00     0.031 A 
HETATM   22  C6  UNL     1      19.557   3.999  51.686  1.00  0.00     0.003 A 
HETATM   23  C7  UNL     1      18.852   3.741  50.543  1.00  0.00     0.009 A 
HETATM   24  C8  UNL     1      19.460   3.105  49.496  1.00  0.00    -0.033 A 
HETATM   25  C10 UNL     1      20.799   2.722  49.598  1.00  0.00     0.040 A 
BRANCH  24  26
HETATM   26  C9  UNL     1      18.625   2.862  48.292  1.00  0.00     0.203 C 
BRANCH  26  27
HETATM   27  O2  UNL     1      19.407   2.585  47.173  1.00  0.00    -0.396 OA
HETATM   28  H9  UNL     1      18.979   2.903  46.323  1.00  0.00     0.209 HD
ENDBRANCH  26  27
ENDBRANCH  24  26
ENDBRANCH   7  20
TORSDOF 3
ENDMDL
MODEL 5
REMARK VINA RESULT:      -8.2      5.029      7.851
REMARK  3 active torsions:
REMARK  status: ('A' for Active; 'I' for Inactive)
REMARK    1  A    between atoms: N3_7  and  C4_8 
REMARK    2  A    between atoms: C8_12  and  C9_13 
REMARK    3  A    between atoms: C9_13  and  O2_14 
ROOT
HETATM    1  O1  UNL     1      26.347   9.985  50.083  1.00  0.00    -0.268 OA
HETATM    2  C1  UNL     1      25.734   8.924  50.082  1.00  0.00     0.254 C 
HETATM    3  N1  UNL     1      24.580   8.472  50.791  1.00  0.00    -0.309 N 
HETATM    4  C2  UNL     1      24.089   7.122  50.594  1.00  0.00     0.132 C 
HETATM    5  N2  UNL     1      22.900   6.706  50.630  1.00  0.00    -0.253 NA
HETATM    6  C3  UNL     1      22.604   5.268  50.400  1.00  0.00     0.300 C 
HETATM    7  N3  UNL     1      23.803   4.483  50.759  1.00  0.00    -0.268 N 
HETATM    8  N4  UNL     1      25.039   4.834  50.298  1.00  0.00    -0.261 N 
HETATM    9  C11 UNL     1      26.016   3.907  49.840  1.00  0.00     0.117 C 
HETATM   10 CL1  UNL     1      25.669   2.206  50.217  1.00  0.00    -0.063 Cl
HETATM   11  C12 UNL     1      27.142   3.934  49.149  1.00  0.00     0.018 C 
HETATM   12  C13 UNL     1      27.819   5.103  48.555  1.00  0.00     0.004 C 
HETATM   13  C14 UNL     1      28.046   6.392  48.216  1.00  0.00     0.050 C 
HETATM   14  C15 UNL     1      27.550   7.836  48.293  1.00  0.00     0.125 C 
HETATM   15 CL2  UNL     1      28.896   8.882  48.777  1.00  0.00    -0.119 Cl
HETATM   16  C16 UNL     1      26.361   7.998  49.155  1.00  0.00     0.027 C 
HETATM   17  C17 UNL     1      25.739   6.798  49.050  1.00  0.00     0.022 C 
HETATM   18  C18 UNL     1      25.264   6.219  50.326  1.00  0.00     0.202 C 
HETATM   19  H1  UNL     1      24.080   9.113  51.418  1.00  0.00     0.170 HD
ENDROOT
BRANCH   7  20
HETATM   20  C4  UNL     1      23.734   3.309  51.606  1.00  0.00     0.053 A 
HETATM   21  C5  UNL     1      24.421   2.917  52.767  1.00  0.00     0.031 A 
HETATM   22  C6  UNL     1      24.110   1.713  53.352  1.00  0.00     0.003 A 
HETATM   23  C7  UNL     1      23.152   0.881  52.841  1.00  0.00     0.009 A 
HETATM   24  C8  UNL     1      22.470   1.239  51.711  1.00  0.00    -0.033 A 
HETATM   25  C10 UNL     1      22.753   2.453  51.083  1.00  0.00     0.040 A 
BRANCH  24  26
HETATM   26  C9  UNL     1      21.447   0.280  51.222  1.00  0.00     0.203 C 
BRANCH  26  27
HETATM   27  O2  UNL     1      20.461   0.049  52.180  1.00  0.00    -0.396 OA
HETATM   28  H9  UNL     1      20.848  -0.224  53.064  1.00  0.00     0.209 HD
ENDBRANCH  26  27
ENDBRANCH  24  26
ENDBRANCH   7  20
TORSDOF 3
ENDMDL
MODEL 6
REMARK VINA RESULT:      -8.1      3.734      7.186
REMARK  3 active torsions:
REMARK  status: ('A' for Active; 'I' for Inactive)
REMARK    1  A    between atoms: N3_7  and  C4_8 
REMARK    2  A    between atoms: C8_12  and  C9_13 
REMARK    3  A    between atoms: C9_13  and  O2_14 
ROOT
HETATM    1  O1  UNL     1      22.947  -0.714  53.604  1.00  0.00    -0.268 OA
HETATM    2  C1  UNL     1      22.940   0.426  53.156  1.00  0.00     0.254 C 
HETATM    3  N1  UNL     1      21.886   1.291  52.729  1.00  0.00    -0.309 N 
HETATM    4  C2  UNL     1      22.194   2.609  52.209  1.00  0.00     0.132 C 
HETATM    5  N2  UNL     1      21.519   3.668  52.306  1.00  0.00    -0.253 NA
HETATM    6  C3  UNL     1      22.015   4.929  51.695  1.00  0.00     0.300 C 
HETATM    7  N3  UNL     1      22.917   4.582  50.578  1.00  0.00    -0.268 N 
HETATM    8  N4  UNL     1      23.911   3.661  50.737  1.00  0.00    -0.261 N 
HETATM    9  C11 UNL     1      25.222   3.796  50.200  1.00  0.00     0.117 C 
HETATM   10 CL1  UNL     1      25.409   5.095  49.002  1.00  0.00    -0.063 Cl
HETATM   11  C12 UNL     1      26.409   3.240  50.364  1.00  0.00     0.018 C 
HETATM   12  C13 UNL     1      26.788   2.157  51.291  1.00  0.00     0.004 C 
HETATM   13  C14 UNL     1      26.654   1.212  52.249  1.00  0.00     0.050 C 
HETATM   14  C15 UNL     1      25.709   0.513  53.226  1.00  0.00     0.125 C 
HETATM   15 CL2  UNL     1      25.926  -1.240  53.082  1.00  0.00    -0.119 Cl
HETATM   16  C16 UNL     1      24.299   0.929  53.071  1.00  0.00     0.027 C 
HETATM   17  C17 UNL     1      24.402   2.202  52.617  1.00  0.00     0.022 C 
HETATM   18  C18 UNL     1      23.513   2.542  51.485  1.00  0.00     0.202 C 
HETATM   19  H1  UNL     1      20.909   0.990  52.819  1.00  0.00     0.170 HD
ENDROOT
BRANCH   7  20
HETATM   20  C4  UNL     1      22.800   5.194  49.270  1.00  0.00     0.053 A 
HETATM   21  C5  UNL     1      23.065   6.485  48.783  1.00  0.00     0.031 A 
HETATM   22  C6  UNL     1      22.851   6.753  47.452  1.00  0.00     0.003 A 
HETATM   23  C7  UNL     1      22.389   5.803  46.583  1.00  0.00     0.009 A 
HETATM   24  C8  UNL     1      22.124   4.539  47.032  1.00  0.00    -0.033 A 
HETATM   25  C10 UNL     1      22.326   4.222  48.377  1.00  0.00     0.040 A 
BRANCH  24  26
HETATM   26  C9  UNL     1      21.625   3.568  46.024  1.00  0.00     0.203 C 
BRANCH  26  27
HETATM   27  O2  UNL     1      21.974   3.949  44.730  1.00  0.00    -0.396 OA
HETATM   28  H9  UNL     1      22.941   4.205  44.657  1.00  0.00     0.209 HD
ENDBRANCH  26  27
ENDBRANCH  24  26
ENDBRANCH   7  20
TORSDOF 3
ENDMDL
MODEL 7
REMARK VINA RESULT:      -8.0      8.852     10.472
REMARK  3 active torsions:
REMARK  status: ('A' for Active; 'I' for Inactive)
REMARK    1  A    between atoms: N3_7  and  C4_8 
REMARK    2  A    between atoms: C8_12  and  C9_13 
REMARK    3  A    between atoms: C9_13  and  O2_14 
ROOT
HETATM    1  O1  UNL     1      26.418  11.470  48.799  1.00  0.00    -0.268 OA
HETATM    2  C1  UNL     1      27.385  10.729  48.930  1.00  0.00     0.254 C 
HETATM    3  N1  UNL     1      28.791  10.940  48.800  1.00  0.00    -0.309 N 
HETATM    4  C2  UNL     1      29.713   9.838  48.997  1.00  0.00     0.132 C 
HETATM    5  N2  UNL     1      30.880   9.866  49.471  1.00  0.00    -0.253 NA
HETATM    6  C3  UNL     1      31.669   8.612  49.590  1.00  0.00     0.300 C 
HETATM    7  N3  UNL     1      31.170   7.651  48.586  1.00  0.00    -0.268 N 
HETATM    8  N4  UNL     1      29.834   7.408  48.447  1.00  0.00    -0.261 N 
HETATM    9  C11 UNL     1      29.273   6.118  48.233  1.00  0.00     0.117 C 
HETATM   10 CL1  UNL     1      30.445   4.852  47.811  1.00  0.00    -0.063 Cl
HETATM   11  C12 UNL     1      28.083   5.546  48.296  1.00  0.00     0.018 C 
HETATM   12  C13 UNL     1      26.794   6.161  48.665  1.00  0.00     0.004 C 
HETATM   13  C14 UNL     1      25.915   7.114  49.048  1.00  0.00     0.050 C 
HETATM   14  C15 UNL     1      25.713   8.578  49.441  1.00  0.00     0.125 C 
HETATM   15 CL2  UNL     1      24.335   9.231  48.539  1.00  0.00    -0.119 Cl
HETATM   16  C16 UNL     1      26.935   9.396  49.289  1.00  0.00     0.027 C 
HETATM   17  C17 UNL     1      27.932   8.500  49.493  1.00  0.00     0.022 C 
HETATM   18  C18 UNL     1      29.051   8.570  48.528  1.00  0.00     0.202 C 
HETATM   19  H1  UNL     1      29.152  11.879  48.595  1.00  0.00     0.170 HD
ENDROOT
BRANCH   7  20
HETATM   20  C4  UNL     1      32.059   6.919  47.706  1.00  0.00     0.053 A 
HETATM   21  C5  UNL     1      32.094   6.727  46.315  1.00  0.00     0.031 A 
HETATM   22  C6  UNL     1      33.100   5.963  45.773  1.00  0.00     0.003 A 
HETATM   23  C7  UNL     1      34.071   5.384  46.542  1.00  0.00     0.009 A 
HETATM   24  C8  UNL     1      34.059   5.556  47.899  1.00  0.00    -0.033 A 
HETATM   25  C10 UNL     1      33.055   6.323  48.494  1.00  0.00     0.040 A 
BRANCH  24  26
HETATM   26  C9  UNL     1      35.148   4.894  48.662  1.00  0.00     0.203 C 
BRANCH  26  27
HETATM   27  O2  UNL     1      35.090   3.507  48.537  1.00  0.00    -0.396 OA
HETATM   28  H9  UNL     1      35.725   3.043  49.160  1.00  0.00     0.209 HD
ENDBRANCH  26  27
ENDBRANCH  24  26
ENDBRANCH   7  20
TORSDOF 3
ENDMDL
MODEL 8
REMARK VINA RESULT:      -7.8      2.938      7.121
REMARK  3 active torsions:
REMARK  status: ('A' for Active; 'I' for Inactive)
REMARK    1  A    between atoms: N3_7  and  C4_8 
REMARK    2  A    between atoms: C8_12  and  C9_13 
REMARK    3  A    between atoms: C9_13  and  O2_14 
ROOT
HETATM    1  O1  UNL     1      25.349  -1.427  54.857  1.00  0.00    -0.268 OA
HETATM    2  C1  UNL     1      24.766  -0.545  54.238  1.00  0.00     0.254 C 
HETATM    3  N1  UNL     1      23.423  -0.416  53.772  1.00  0.00    -0.309 N 
HETATM    4  C2  UNL     1      23.022   0.763  53.028  1.00  0.00     0.132 C 
HETATM    5  N2  UNL     1      21.901   1.339  53.015  1.00  0.00    -0.253 NA
HETATM    6  C3  UNL     1      21.692   2.547  52.176  1.00  0.00     0.300 C 
HETATM    7  N3  UNL     1      22.654   2.509  51.055  1.00  0.00    -0.268 N 
HETATM    8  N4  UNL     1      23.977   2.255  51.272  1.00  0.00    -0.261 N 
HETATM    9  C11 UNL     1      25.040   2.932  50.612  1.00  0.00     0.117 C 
HETATM   10 CL1  UNL     1      24.550   3.914  49.216  1.00  0.00    -0.063 Cl
HETATM   11  C12 UNL     1      26.344   3.085  50.761  1.00  0.00     0.018 C 
HETATM   12  C13 UNL     1      27.214   2.522  51.811  1.00  0.00     0.004 C 
HETATM   13  C14 UNL     1      27.572   1.824  52.913  1.00  0.00     0.050 C 
HETATM   14  C15 UNL     1      27.106   0.930  54.062  1.00  0.00     0.125 C 
HETATM   15 CL2  UNL     1      28.185  -0.471  54.176  1.00  0.00    -0.119 Cl
HETATM   16  C16 UNL     1      25.682   0.548  53.963  1.00  0.00     0.027 C 
HETATM   17  C17 UNL     1      25.127   1.598  53.309  1.00  0.00     0.022 C 
HETATM   18  C18 UNL     1      24.197   1.240  52.216  1.00  0.00     0.202 C 
HETATM   19  H1  UNL     1      22.733  -1.144  53.988  1.00  0.00     0.170 HD
ENDROOT
BRANCH   7  20
HETATM   20  C4  UNL     1      22.251   2.738  49.682  1.00  0.00     0.053 A 
HETATM   21  C5  UNL     1      22.426   2.011  48.493  1.00  0.00     0.031 A 
HETATM   22  C6  UNL     1      21.903   2.509  47.324  1.00  0.00     0.003 A 
HETATM   23  C7  UNL     1      21.216   3.690  47.278  1.00  0.00     0.009 A 
HETATM   24  C8  UNL     1      21.033   4.417  48.422  1.00  0.00    -0.033 A 
HETATM   25  C10 UNL     1      21.547   3.950  49.633  1.00  0.00     0.040 A 
BRANCH  24  26
HETATM   26  C9  UNL     1      20.276   5.688  48.286  1.00  0.00     0.203 C 
BRANCH  26  27
HETATM   27  O2  UNL     1      20.048   6.284  49.524  1.00  0.00    -0.396 OA
HETATM   28  H9  UNL     1      20.486   7.183  49.600  1.00  0.00     0.209 HD
ENDBRANCH  26  27
ENDBRANCH  24  26
ENDBRANCH   7  20
TORSDOF 3
ENDMDL
MODEL 9
REMARK VINA RESULT:      -7.6      4.134      7.161
REMARK  3 active torsions:
REMARK  status: ('A' for Active; 'I' for Inactive)
REMARK    1  A    between atoms: N3_7  and  C4_8 
REMARK    2  A    between atoms: C8_12  and  C9_13 
REMARK    3  A    between atoms: C9_13  and  O2_14 
ROOT
HETATM    1  O1  UNL     1      23.059  -0.880  53.497  1.00  0.00    -0.268 OA
HETATM    2  C1  UNL     1      23.006   0.269  53.077  1.00  0.00     0.254 C 
HETATM    3  N1  UNL     1      21.918   1.104  52.677  1.00  0.00    -0.309 N 
HETATM    4  C2  UNL     1      22.173   2.446  52.188  1.00  0.00     0.132 C 
HETATM    5  N2  UNL     1      21.458   3.476  52.315  1.00  0.00    -0.253 NA
HETATM    6  C3  UNL     1      21.903   4.769  51.734  1.00  0.00     0.300 C 
HETATM    7  N3  UNL     1      22.813   4.485  50.605  1.00  0.00    -0.268 N 
HETATM    8  N4  UNL     1      23.842   3.599  50.737  1.00  0.00    -0.261 N 
HETATM    9  C11 UNL     1      25.144   3.798  50.198  1.00  0.00     0.117 C 
HETATM   10 CL1  UNL     1      25.276   5.132  49.033  1.00  0.00    -0.063 Cl
HETATM   11  C12 UNL     1      26.352   3.283  50.344  1.00  0.00     0.018 C 
HETATM   12  C13 UNL     1      26.776   2.193  51.243  1.00  0.00     0.004 C 
HETATM   13  C14 UNL     1      26.683   1.220  52.177  1.00  0.00     0.050 C 
HETATM   14  C15 UNL     1      25.770   0.460  53.139  1.00  0.00     0.125 C 
HETATM   15 CL2  UNL     1      26.053  -1.278  52.950  1.00  0.00    -0.119 Cl
HETATM   16  C16 UNL     1      24.344   0.826  53.000  1.00  0.00     0.027 C 
HETATM   17  C17 UNL     1      24.397   2.113  52.578  1.00  0.00     0.022 C 
HETATM   18  C18 UNL     1      23.490   2.448  51.458  1.00  0.00     0.202 C 
HETATM   19  H1  UNL     1      20.953   0.764  52.762  1.00  0.00     0.170 HD
ENDROOT
BRANCH   7  20
HETATM   20  C4  UNL     1      22.666   5.125  49.313  1.00  0.00     0.053 A 
HETATM   21  C5  UNL     1      22.533   4.634  48.004  1.00  0.00     0.031 A 
HETATM   22  C6  UNL     1      22.403   5.526  46.967  1.00  0.00     0.003 A 
HETATM   23  C7  UNL     1      22.398   6.879  47.166  1.00  0.00     0.009 A 
HETATM   24  C8  UNL     1      22.526   7.383  48.431  1.00  0.00    -0.033 A 
HETATM   25  C10 UNL     1      22.662   6.513  49.515  1.00  0.00     0.040 A 
BRANCH  24  26
HETATM   26  C9  UNL     1      22.511   8.862  48.560  1.00  0.00     0.203 C 
BRANCH  26  27
HETATM   27  O2  UNL     1      21.425   9.300  49.316  1.00  0.00    -0.396 OA
HETATM   28  H9  UNL     1      20.549   9.000  48.931  1.00  0.00     0.209 HD
ENDBRANCH  26  27
ENDBRANCH  24  26
ENDBRANCH   7  20
TORSDOF 3
ENDMDL
