MODEL 1
REMARK VINA RESULT:      -7.5      0.000      0.000
REMARK  6 active torsions:
REMARK  status: ('A' for Active; 'I' for Inactive)
REMARK    1  A    between atoms: C3_3  and  N1_4 
REMARK       I    between atoms: N1_4  and  C4_5 
REMARK    2  A    between atoms: C4_5  and  C5_7 
REMARK    3  A    between atoms: C6_8  and  C7_9 
REMARK    4  A    between atoms: C7_9  and  C8_10 
REMARK    5  A    between atoms: C8_10  and  N2_11 
REMARK    6  A    between atoms: C16_22  and  C17_23 
ROOT
HETATM    1  N1  UNL     1      25.629   3.649  51.220  1.00  0.00    -0.319 N 
HETATM    2  C4  UNL     1      26.184   4.032  49.985  1.00  0.00     0.300 C 
HETATM    3  O1  UNL     1      27.052   3.293  49.509  1.00  0.00    -0.258 OA
HETATM    4  H4  UNL     1      24.931   4.423  51.408  1.00  0.00     0.169 HD
ENDROOT
BRANCH   1   5
HETATM    5  C3  UNL     1      25.776   2.613  52.131  1.00  0.00     0.025 A 
HETATM    6  C2  UNL     1      26.721   2.104  52.883  1.00  0.00    -0.024 A 
HETATM    7  C1  UNL     1      28.107   2.583  52.974  1.00  0.00     0.051 C 
HETATM    8  C19 UNL     1      26.233   0.971  53.647  1.00  0.00     0.025 A 
HETATM    9  C14 UNL     1      24.923   0.804  53.324  1.00  0.00     0.054 A 
HETATM   10  C16 UNL     1      26.650   0.041  54.559  1.00  0.00     0.068 A 
HETATM   11  C13 UNL     1      24.516   1.819  52.346  1.00  0.00     0.118 A 
HETATM   12  N3  UNL     1      24.153  -0.149  53.839  1.00  0.00    -0.245 NA
HETATM   13  C15 UNL     1      24.584  -1.034  54.720  1.00  0.00     0.234 A 
HETATM   14  N4  UNL     1      25.860  -0.916  55.070  1.00  0.00    -0.242 NA
BRANCH  10  15
HETATM   15  C17 UNL     1      28.034   0.121  54.976  1.00  0.00     0.070 C 
HETATM   16  C18 UNL     1      28.911  -0.602  54.307  1.00  0.00     0.225 C 
HETATM   17 CL1  UNL     1      28.460  -1.629  52.963  1.00  0.00    -0.257 Cl
ENDBRANCH  10  15
ENDBRANCH   1   5
BRANCH   2  18
HETATM   18  C5  UNL     1      25.884   5.179  49.182  1.00  0.00    -0.005 C 
HETATM   19  C6  UNL     1      25.625   6.149  48.527  1.00  0.00    -0.095 C 
BRANCH  19  20
HETATM   20  C7  UNL     1      25.309   7.319  47.707  1.00  0.00     0.124 C 
BRANCH  20  21
HETATM   21  C8  UNL     1      26.621   8.074  47.518  1.00  0.00     0.284 C 
BRANCH  21  22
HETATM   22  N2  UNL     1      26.482   9.446  47.892  1.00  0.00     0.093 N 
HETATM   23  C9  UNL     1      27.690  10.222  47.624  1.00  0.00     0.298 C 
HETATM   24  C10 UNL     1      28.821   9.787  48.498  1.00  0.00     0.198 C 
HETATM   25  O2  UNL     1      28.482   8.951  49.532  1.00  0.00    -0.388 OA
HETATM   26  C11 UNL     1      27.306   9.246  50.180  1.00  0.00     0.198 C 
HETATM   27  C12 UNL     1      26.176   9.654  49.284  1.00  0.00     0.298 C 
ENDBRANCH  21  22
ENDBRANCH  20  21
ENDBRANCH  19  20
ENDBRANCH   2  18
TORSDOF 6
ENDMDL
MODEL 2
REMARK VINA RESULT:      -7.4      3.285      4.308
REMARK  6 active torsions:
REMARK  status: ('A' for Active; 'I' for Inactive)
REMARK    1  A    between atoms: C3_3  and  N1_4 
REMARK       I    between atoms: N1_4  and  C4_5 
REMARK    2  A    between atoms: C4_5  and  C5_7 
REMARK    3  A    between atoms: C6_8  and  C7_9 
REMARK    4  A    between atoms: C7_9  and  C8_10 
REMARK    5  A    between atoms: C8_10  and  N2_11 
REMARK    6  A    between atoms: C16_22  and  C17_23 
ROOT
HETATM    1  N1  UNL     1      26.593   3.891  50.361  1.00  0.00    -0.319 N 
HETATM    2  C4  UNL     1      26.419   4.773  49.278  1.00  0.00     0.300 C 
HETATM    3  O1  UNL     1      25.290   4.835  48.782  1.00  0.00    -0.258 OA
HETATM    4  H4  UNL     1      27.617   4.017  50.599  1.00  0.00     0.169 HD
ENDROOT
BRANCH   1   5
HETATM    5  C3  UNL     1      25.815   3.004  51.093  1.00  0.00     0.025 A 
HETATM    6  C2  UNL     1      24.593   2.939  51.562  1.00  0.00    -0.024 A 
HETATM    7  C1  UNL     1      23.551   3.962  51.406  1.00  0.00     0.051 C 
HETATM    8  C19 UNL     1      24.371   1.698  52.281  1.00  0.00     0.025 A 
HETATM    9  C14 UNL     1      25.532   0.993  52.232  1.00  0.00     0.054 A 
HETATM   10  C16 UNL     1      23.402   1.027  52.975  1.00  0.00     0.068 A 
HETATM   11  C13 UNL     1      26.543   1.746  51.481  1.00  0.00     0.118 A 
HETATM   12  N3  UNL     1      25.693  -0.201  52.793  1.00  0.00    -0.245 NA
HETATM   13  C15 UNL     1      24.738  -0.826  53.457  1.00  0.00     0.234 A 
HETATM   14  N4  UNL     1      23.580  -0.179  53.536  1.00  0.00    -0.242 NA
BRANCH  10  15
HETATM   15  C17 UNL     1      22.119   1.687  53.094  1.00  0.00     0.070 C 
HETATM   16  C18 UNL     1      21.180   1.344  52.234  1.00  0.00     0.225 C 
HETATM   17 CL1  UNL     1      21.435   0.146  50.984  1.00  0.00    -0.257 Cl
ENDBRANCH  10  15
ENDBRANCH   1   5
BRANCH   2  18
HETATM   18  C5  UNL     1      27.384   5.627  48.652  1.00  0.00    -0.005 C 
HETATM   19  C6  UNL     1      28.177   6.357  48.128  1.00  0.00    -0.095 C 
BRANCH  19  20
HETATM   20  C7  UNL     1      29.158   7.229  47.479  1.00  0.00     0.124 C 
BRANCH  20  21
HETATM   21  C8  UNL     1      30.523   6.602  47.743  1.00  0.00     0.284 C 
BRANCH  21  22
HETATM   22  N2  UNL     1      30.966   6.879  49.073  1.00  0.00     0.093 N 
HETATM   23  C9  UNL     1      31.625   8.178  49.181  1.00  0.00     0.298 C 
HETATM   24  C10 UNL     1      32.914   8.199  48.426  1.00  0.00     0.198 C 
HETATM   25  O2  UNL     1      33.366   6.977  47.993  1.00  0.00    -0.388 OA
HETATM   26  C11 UNL     1      33.207   5.934  48.873  1.00  0.00     0.198 C 
HETATM   27  C12 UNL     1      31.897   5.915  49.601  1.00  0.00     0.298 C 
ENDBRANCH  21  22
ENDBRANCH  20  21
ENDBRANCH  19  20
ENDBRANCH   2  18
TORSDOF 6
ENDMDL
MODEL 3
REMARK VINA RESULT:      -7.3      2.331      3.433
REMARK  6 active torsions:
REMARK  status: ('A' for Active; 'I' for Inactive)
REMARK    1  A    between atoms: C3_3  and  N1_4 
REMARK       I    between atoms: N1_4  and  C4_5 
REMARK    2  A    between atoms: C4_5  and  C5_7 
REMARK    3  A    between atoms: C6_8  and  C7_9 
REMARK    4  A    between atoms: C7_9  and  C8_10 
REMARK    5  A    between atoms: C8_10  and  N2_11 
REMARK    6  A    between atoms: C16_22  and  C17_23 
ROOT
HETATM    1  N1  UNL     1      25.462   3.585  50.910  1.00  0.00    -0.319 N 
HETATM    2  C4  UNL     1      26.319   3.825  49.820  1.00  0.00     0.300 C 
HETATM    3  O1  UNL     1      26.892   2.846  49.333  1.00  0.00    -0.258 OA
HETATM    4  H4  UNL     1      25.103   4.555  51.139  1.00  0.00     0.169 HD
ENDROOT
BRANCH   1   5
HETATM    5  C3  UNL     1      25.037   2.495  51.656  1.00  0.00     0.025 A 
HETATM    6  C2  UNL     1      24.021   1.666  51.679  1.00  0.00    -0.024 A 
HETATM    7  C1  UNL     1      22.875   1.678  50.760  1.00  0.00     0.051 C 
HETATM    8  C19 UNL     1      24.156   0.697  52.750  1.00  0.00     0.025 A 
HETATM    9  C14 UNL     1      25.320   0.973  53.396  1.00  0.00     0.054 A 
HETATM   10  C16 UNL     1      23.511  -0.372  53.307  1.00  0.00     0.068 A 
HETATM   11  C13 UNL     1      25.980   2.124  52.769  1.00  0.00     0.118 A 
HETATM   12  N3  UNL     1      25.765   0.281  54.440  1.00  0.00    -0.245 NA
HETATM   13  C15 UNL     1      25.120  -0.749  54.957  1.00  0.00     0.234 A 
HETATM   14  N4  UNL     1      23.974  -1.062  54.362  1.00  0.00    -0.242 NA
BRANCH  10  15
HETATM   15  C17 UNL     1      22.255  -0.757  52.700  1.00  0.00     0.070 C 
HETATM   16  C18 UNL     1      21.153  -0.518  53.385  1.00  0.00     0.225 C 
HETATM   17 CL1  UNL     1      21.167   0.233  54.966  1.00  0.00    -0.257 Cl
ENDBRANCH  10  15
ENDBRANCH   1   5
BRANCH   2  18
HETATM   18  C5  UNL     1      26.631   5.068  49.180  1.00  0.00    -0.005 C 
HETATM   19  C6  UNL     1      26.895   6.097  48.626  1.00  0.00    -0.095 C 
BRANCH  19  20
HETATM   20  C7  UNL     1      27.224   7.365  47.971  1.00  0.00     0.124 C 
BRANCH  20  21
HETATM   21  C8  UNL     1      28.482   7.884  48.659  1.00  0.00     0.284 C 
BRANCH  21  22
HETATM   22  N2  UNL     1      29.462   8.287  47.700  1.00  0.00     0.093 N 
HETATM   23  C9  UNL     1      30.809   7.854  48.063  1.00  0.00     0.298 C 
HETATM   24  C10 UNL     1      31.291   8.551  49.293  1.00  0.00     0.198 C 
HETATM   25  O2  UNL     1      30.530   9.615  49.707  1.00  0.00    -0.388 OA
HETATM   26  C11 UNL     1      30.047  10.429  48.711  1.00  0.00     0.198 C 
HETATM   27  C12 UNL     1      29.543   9.710  47.496  1.00  0.00     0.298 C 
ENDBRANCH  21  22
ENDBRANCH  20  21
ENDBRANCH  19  20
ENDBRANCH   2  18
TORSDOF 6
ENDMDL
MODEL 4
REMARK VINA RESULT:      -7.2      2.887      3.521
REMARK  6 active torsions:
REMARK  status: ('A' for Active; 'I' for Inactive)
REMARK    1  A    between atoms: C3_3  and  N1_4 
REMARK       I    between atoms: N1_4  and  C4_5 
REMARK    2  A    between atoms: C4_5  and  C5_7 
REMARK    3  A    between atoms: C6_8  and  C7_9 
REMARK    4  A    between atoms: C7_9  and  C8_10 
REMARK    5  A    between atoms: C8_10  and  N2_11 
REMARK    6  A    between atoms: C16_22  and  C17_23 
ROOT
HETATM    1  N1  UNL     1      26.828   3.922  49.979  1.00  0.00    -0.319 N 
HETATM    2  C4  UNL     1      26.600   5.140  49.312  1.00  0.00     0.300 C 
HETATM    3  O1  UNL     1      25.468   5.624  49.401  1.00  0.00    -0.258 OA
HETATM    4  H4  UNL     1      27.844   3.723  49.756  1.00  0.00     0.169 HD
ENDROOT
BRANCH   1   5
HETATM    5  C3  UNL     1      26.105   3.037  50.766  1.00  0.00     0.025 A 
HETATM    6  C2  UNL     1      26.297   2.304  51.837  1.00  0.00    -0.024 A 
HETATM    7  C1  UNL     1      27.541   2.218  52.614  1.00  0.00     0.051 C 
HETATM    8  C19 UNL     1      25.103   1.558  52.186  1.00  0.00     0.025 A 
HETATM    9  C14 UNL     1      24.152   1.870  51.265  1.00  0.00     0.054 A 
HETATM   10  C16 UNL     1      24.636   0.666  53.111  1.00  0.00     0.068 A 
HETATM   11  C13 UNL     1      24.692   2.827  50.292  1.00  0.00     0.118 A 
HETATM   12  N3  UNL     1      22.924   1.363  51.275  1.00  0.00    -0.245 NA
HETATM   13  C15 UNL     1      22.500   0.503  52.183  1.00  0.00     0.234 A 
HETATM   14  N4  UNL     1      23.391   0.164  53.108  1.00  0.00    -0.242 NA
BRANCH  10  15
HETATM   15  C17 UNL     1      25.566   0.259  54.142  1.00  0.00     0.070 C 
HETATM   16  C18 UNL     1      26.385  -0.737  53.860  1.00  0.00     0.225 C 
HETATM   17 CL1  UNL     1      26.378  -1.557  52.314  1.00  0.00    -0.257 Cl
ENDBRANCH  10  15
ENDBRANCH   1   5
BRANCH   2  18
HETATM   18  C5  UNL     1      27.512   5.917  48.526  1.00  0.00    -0.005 C 
HETATM   19  C6  UNL     1      28.258   6.577  47.859  1.00  0.00    -0.095 C 
BRANCH  19  20
HETATM   20  C7  UNL     1      29.186   7.365  47.048  1.00  0.00     0.124 C 
BRANCH  20  21
HETATM   21  C8  UNL     1      30.584   6.856  47.386  1.00  0.00     0.284 C 
BRANCH  21  22
HETATM   22  N2  UNL     1      30.895   7.090  48.761  1.00  0.00     0.093 N 
HETATM   23  C9  UNL     1      31.683   8.305  48.955  1.00  0.00     0.298 C 
HETATM   24  C10 UNL     1      33.046   8.171  48.358  1.00  0.00     0.198 C 
HETATM   25  O2  UNL     1      33.402   6.902  47.974  1.00  0.00    -0.388 OA
HETATM   26  C11 UNL     1      33.019   5.890  48.823  1.00  0.00     0.198 C 
HETATM   27  C12 UNL     1      31.639   6.029  49.390  1.00  0.00     0.298 C 
ENDBRANCH  21  22
ENDBRANCH  20  21
ENDBRANCH  19  20
ENDBRANCH   2  18
TORSDOF 6
ENDMDL
MODEL 5
REMARK VINA RESULT:      -7.1      4.826      6.170
REMARK  6 active torsions:
REMARK  status: ('A' for Active; 'I' for Inactive)
REMARK    1  A    between atoms: C3_3  and  N1_4 
REMARK       I    between atoms: N1_4  and  C4_5 
REMARK    2  A    between atoms: C4_5  and  C5_7 
REMARK    3  A    between atoms: C6_8  and  C7_9 
REMARK    4  A    between atoms: C7_9  and  C8_10 
REMARK    5  A    between atoms: C8_10  and  N2_11 
REMARK    6  A    between atoms: C16_22  and  C17_23 
ROOT
HETATM    1  N1  UNL     1      27.063   3.993  49.460  1.00  0.00    -0.319 N 
HETATM    2  C4  UNL     1      27.471   5.143  48.759  1.00  0.00     0.300 C 
HETATM    3  O1  UNL     1      26.601   5.981  48.504  1.00  0.00    -0.258 OA
HETATM    4  H4  UNL     1      27.966   3.447  49.553  1.00  0.00     0.169 HD
ENDROOT
BRANCH   1   5
HETATM    5  C3  UNL     1      25.887   3.482  49.991  1.00  0.00     0.025 A 
HETATM    6  C2  UNL     1      24.595   3.649  49.837  1.00  0.00    -0.024 A 
HETATM    7  C1  UNL     1      23.949   4.579  48.901  1.00  0.00     0.051 C 
HETATM    8  C19 UNL     1      23.843   2.783  50.725  1.00  0.00     0.025 A 
HETATM    9  C14 UNL     1      24.746   2.065  51.444  1.00  0.00     0.054 A 
HETATM   10  C16 UNL     1      22.558   2.464  51.067  1.00  0.00     0.068 A 
HETATM   11  C13 UNL     1      26.110   2.435  51.048  1.00  0.00     0.118 A 
HETATM   12  N3  UNL     1      24.408   1.166  52.363  1.00  0.00    -0.245 NA
HETATM   13  C15 UNL     1      23.157   0.878  52.673  1.00  0.00     0.234 A 
HETATM   14  N4  UNL     1      22.233   1.554  51.998  1.00  0.00    -0.242 NA
BRANCH  10  15
HETATM   15  C17 UNL     1      21.509   3.172  50.365  1.00  0.00     0.070 C 
HETATM   16  C18 UNL     1      20.953   2.563  49.334  1.00  0.00     0.225 C 
HETATM   17 CL1  UNL     1      21.437   0.966  48.807  1.00  0.00    -0.257 Cl
ENDBRANCH  10  15
ENDBRANCH   1   5
BRANCH   2  18
HETATM   18  C5  UNL     1      28.778   5.490  48.286  1.00  0.00    -0.005 C 
HETATM   19  C6  UNL     1      29.863   5.795  47.878  1.00  0.00    -0.095 C 
BRANCH  19  20
HETATM   20  C7  UNL     1      31.196   6.145  47.386  1.00  0.00     0.124 C 
BRANCH  20  21
HETATM   21  C8  UNL     1      32.150   5.106  47.968  1.00  0.00     0.284 C 
BRANCH  21  22
HETATM   22  N2  UNL     1      32.226   3.953  47.128  1.00  0.00     0.093 N 
HETATM   23  C9  UNL     1      33.061   2.900  47.701  1.00  0.00     0.298 C 
HETATM   24  C10 UNL     1      34.494   3.317  47.766  1.00  0.00     0.198 C 
HETATM   25  O2  UNL     1      34.809   4.460  47.075  1.00  0.00    -0.388 OA
HETATM   26  C11 UNL     1      34.200   4.608  45.852  1.00  0.00     0.198 C 
HETATM   27  C12 UNL     1      32.756   4.209  45.813  1.00  0.00     0.298 C 
ENDBRANCH  21  22
ENDBRANCH  20  21
ENDBRANCH  19  20
ENDBRANCH   2  18
TORSDOF 6
ENDMDL
MODEL 6
REMARK VINA RESULT:      -7.0      6.837      9.232
REMARK  6 active torsions:
REMARK  status: ('A' for Active; 'I' for Inactive)
REMARK    1  A    between atoms: C3_3  and  N1_4 
REMARK       I    between atoms: N1_4  and  C4_5 
REMARK    2  A    between atoms: C4_5  and  C5_7 
REMARK    3  A    between atoms: C6_8  and  C7_9 
REMARK    4  A    between atoms: C7_9  and  C8_10 
REMARK    5  A    between atoms: C8_10  and  N2_11 
REMARK    6  A    between atoms: C16_22  and  C17_23 
ROOT
HETATM    1  N1  UNL     1      20.355   0.978  52.149  1.00  0.00    -0.319 N 
HETATM    2  C4  UNL     1      19.539   2.124  52.112  1.00  0.00     0.300 C 
HETATM    3  O1  UNL     1      19.954   3.126  52.702  1.00  0.00    -0.258 OA
HETATM    4  H4  UNL     1      19.794   0.277  51.587  1.00  0.00     0.169 HD
ENDROOT
BRANCH   1   5
HETATM    5  C3  UNL     1      21.579   0.611  52.692  1.00  0.00     0.025 A 
HETATM    6  C2  UNL     1      22.852   0.800  52.441  1.00  0.00    -0.024 A 
HETATM    7  C1  UNL     1      23.407   1.587  51.333  1.00  0.00     0.051 C 
HETATM    8  C19 UNL     1      23.686   0.122  53.416  1.00  0.00     0.025 A 
HETATM    9  C14 UNL     1      22.854  -0.503  54.290  1.00  0.00     0.054 A 
HETATM   10  C16 UNL     1      25.000  -0.088  53.731  1.00  0.00     0.068 A 
HETATM   11  C13 UNL     1      21.457  -0.253  53.918  1.00  0.00     0.118 A 
HETATM   12  N3  UNL     1      23.279  -1.227  55.321  1.00  0.00    -0.245 NA
HETATM   13  C15 UNL     1      24.556  -1.413  55.601  1.00  0.00     0.234 A 
HETATM   14  N4  UNL     1      25.413  -0.822  54.776  1.00  0.00    -0.242 NA
BRANCH  10  15
HETATM   15  C17 UNL     1      25.980   0.531  52.863  1.00  0.00     0.070 C 
HETATM   16  C18 UNL     1      26.747  -0.270  52.149  1.00  0.00     0.225 C 
HETATM   17 CL1  UNL     1      26.617  -2.014  52.218  1.00  0.00    -0.257 Cl
ENDBRANCH  10  15
ENDBRANCH   1   5
BRANCH   2  18
HETATM   18  C5  UNL     1      18.268   2.301  51.476  1.00  0.00    -0.005 C 
HETATM   19  C6  UNL     1      17.198   2.461  50.960  1.00  0.00    -0.095 C 
BRANCH  19  20
HETATM   20  C7  UNL     1      15.895   2.635  50.316  1.00  0.00     0.124 C 
BRANCH  20  21
HETATM   21  C8  UNL     1      15.102   3.581  51.212  1.00  0.00     0.284 C 
BRANCH  21  22
HETATM   22  N2  UNL     1      15.113   3.132  52.568  1.00  0.00     0.093 N 
HETATM   23  C9  UNL     1      14.227   1.990  52.784  1.00  0.00     0.298 C 
HETATM   24  C10 UNL     1      12.794   2.372  52.607  1.00  0.00     0.198 C 
HETATM   25  O2  UNL     1      12.546   3.720  52.529  1.00  0.00    -0.388 OA
HETATM   26  C11 UNL     1      13.274   4.513  53.384  1.00  0.00     0.198 C 
HETATM   27  C12 UNL     1      14.716   4.130  53.527  1.00  0.00     0.298 C 
ENDBRANCH  21  22
ENDBRANCH  20  21
ENDBRANCH  19  20
ENDBRANCH   2  18
TORSDOF 6
ENDMDL
MODEL 7
REMARK VINA RESULT:      -7.0      6.577      9.608
REMARK  6 active torsions:
REMARK  status: ('A' for Active; 'I' for Inactive)
REMARK    1  A    between atoms: C3_3  and  N1_4 
REMARK       I    between atoms: N1_4  and  C4_5 
REMARK    2  A    between atoms: C4_5  and  C5_7 
REMARK    3  A    between atoms: C6_8  and  C7_9 
REMARK    4  A    between atoms: C7_9  and  C8_10 
REMARK    5  A    between atoms: C8_10  and  N2_11 
REMARK    6  A    between atoms: C16_22  and  C17_23 
ROOT
HETATM    1  N1  UNL     1      20.419   0.114  53.030  1.00  0.00    -0.319 N 
HETATM    2  C4  UNL     1      21.548   0.453  52.261  1.00  0.00     0.300 C 
HETATM    3  O1  UNL     1      21.510   0.173  51.059  1.00  0.00    -0.258 OA
HETATM    4  H4  UNL     1      20.691   0.449  53.997  1.00  0.00     0.169 HD
ENDROOT
BRANCH   1   5
HETATM    5  C3  UNL     1      19.184  -0.485  52.826  1.00  0.00     0.025 A 
HETATM    6  C2  UNL     1      18.086  -0.248  52.151  1.00  0.00    -0.024 A 
HETATM    7  C1  UNL     1      17.836   0.913  51.286  1.00  0.00     0.051 C 
HETATM    8  C19 UNL     1      17.104  -1.296  52.357  1.00  0.00     0.025 A 
HETATM    9  C14 UNL     1      17.658  -2.203  53.205  1.00  0.00     0.054 A 
HETATM   10  C16 UNL     1      15.838  -1.658  51.990  1.00  0.00     0.068 A 
HETATM   11  C13 UNL     1      19.014  -1.779  53.575  1.00  0.00     0.118 A 
HETATM   12  N3  UNL     1      17.035  -3.302  53.618  1.00  0.00    -0.245 NA
HETATM   13  C15 UNL     1      15.810  -3.626  53.245  1.00  0.00     0.234 A 
HETATM   14  N4  UNL     1      15.222  -2.772  52.415  1.00  0.00    -0.242 NA
BRANCH  10  15
HETATM   15  C17 UNL     1      15.146  -0.761  51.088  1.00  0.00     0.070 C 
HETATM   16  C18 UNL     1      14.356   0.148  51.625  1.00  0.00     0.225 C 
HETATM   17 CL1  UNL     1      14.126   0.298  53.353  1.00  0.00    -0.257 Cl
ENDBRANCH  10  15
ENDBRANCH   1   5
BRANCH   2  18
HETATM   18  C5  UNL     1      22.761   1.089  52.678  1.00  0.00    -0.005 C 
HETATM   19  C6  UNL     1      23.782   1.604  53.038  1.00  0.00    -0.095 C 
BRANCH  19  20
HETATM   20  C7  UNL     1      25.019   2.255  53.474  1.00  0.00     0.124 C 
BRANCH  20  21
HETATM   21  C8  UNL     1      25.939   1.138  53.957  1.00  0.00     0.284 C 
BRANCH  21  22
HETATM   22  N2  UNL     1      26.915   0.813  52.966  1.00  0.00     0.093 N 
HETATM   23  C9  UNL     1      27.795  -0.275  53.386  1.00  0.00     0.298 C 
HETATM   24  C10 UNL     1      28.659   0.136  54.533  1.00  0.00     0.198 C 
HETATM   25  O2  UNL     1      28.665   1.478  54.819  1.00  0.00    -0.388 OA
HETATM   26  C11 UNL     1      28.673   2.321  53.734  1.00  0.00     0.198 C 
HETATM   27  C12 UNL     1      27.780   1.907  52.604  1.00  0.00     0.298 C 
ENDBRANCH  21  22
ENDBRANCH  20  21
ENDBRANCH  19  20
ENDBRANCH   2  18
TORSDOF 6
ENDMDL
MODEL 8
REMARK VINA RESULT:      -7.0      2.495      3.522
REMARK  6 active torsions:
REMARK  status: ('A' for Active; 'I' for Inactive)
REMARK    1  A    between atoms: C3_3  and  N1_4 
REMARK       I    between atoms: N1_4  and  C4_5 
REMARK    2  A    between atoms: C4_5  and  C5_7 
REMARK    3  A    between atoms: C6_8  and  C7_9 
REMARK    4  A    between atoms: C7_9  and  C8_10 
REMARK    5  A    between atoms: C8_10  and  N2_11 
REMARK    6  A    between atoms: C16_22  and  C17_23 
ROOT
HETATM    1  N1  UNL     1      26.756   3.613  50.426  1.00  0.00    -0.319 N 
HETATM    2  C4  UNL     1      26.640   4.525  49.360  1.00  0.00     0.300 C 
HETATM    3  O1  UNL     1      25.510   4.698  48.893  1.00  0.00    -0.258 OA
HETATM    4  H4  UNL     1      27.793   3.642  50.641  1.00  0.00     0.169 HD
ENDROOT
BRANCH   1   5
HETATM    5  C3  UNL     1      25.918   2.790  51.164  1.00  0.00     0.025 A 
HETATM    6  C2  UNL     1      24.679   2.794  51.593  1.00  0.00    -0.024 A 
HETATM    7  C1  UNL     1      23.687   3.852  51.361  1.00  0.00     0.051 C 
HETATM    8  C19 UNL     1      24.380   1.593  52.351  1.00  0.00     0.025 A 
HETATM    9  C14 UNL     1      25.512   0.839  52.369  1.00  0.00     0.054 A 
HETATM   10  C16 UNL     1      23.362   0.991  53.035  1.00  0.00     0.068 A 
HETATM   11  C13 UNL     1      26.578   1.519  51.625  1.00  0.00     0.118 A 
HETATM   12  N3  UNL     1      25.603  -0.337  52.981  1.00  0.00    -0.245 NA
HETATM   13  C15 UNL     1      24.600  -0.895  53.636  1.00  0.00     0.234 A 
HETATM   14  N4  UNL     1      23.469  -0.198  53.648  1.00  0.00    -0.242 NA
BRANCH  10  15
HETATM   15  C17 UNL     1      22.104   1.707  53.084  1.00  0.00     0.070 C 
HETATM   16  C18 UNL     1      21.209   1.422  52.158  1.00  0.00     0.225 C 
HETATM   17 CL1  UNL     1      21.491   0.233  50.906  1.00  0.00    -0.257 Cl
ENDBRANCH  10  15
ENDBRANCH   1   5
BRANCH   2  18
HETATM   18  C5  UNL     1      27.664   5.297  48.723  1.00  0.00    -0.005 C 
HETATM   19  C6  UNL     1      28.524   5.955  48.207  1.00  0.00    -0.095 C 
BRANCH  19  20
HETATM   20  C7  UNL     1      29.564   6.752  47.555  1.00  0.00     0.124 C 
BRANCH  20  21
HETATM   21  C8  UNL     1      28.915   8.084  47.195  1.00  0.00     0.284 C 
BRANCH  21  22
HETATM   22  N2  UNL     1      29.696   9.181  47.673  1.00  0.00     0.093 N 
HETATM   23  C9  UNL     1      29.743   9.237  49.132  1.00  0.00     0.298 C 
HETATM   24  C10 UNL     1      28.401   9.552  49.708  1.00  0.00     0.198 C 
HETATM   25  O2  UNL     1      27.454   9.970  48.807  1.00  0.00    -0.388 OA
HETATM   26  C11 UNL     1      27.897  10.822  47.824  1.00  0.00     0.198 C 
HETATM   27  C12 UNL     1      29.232  10.474  47.240  1.00  0.00     0.298 C 
ENDBRANCH  21  22
ENDBRANCH  20  21
ENDBRANCH  19  20
ENDBRANCH   2  18
TORSDOF 6
ENDMDL
MODEL 9
REMARK VINA RESULT:      -6.8      3.867     10.217
REMARK  6 active torsions:
REMARK  status: ('A' for Active; 'I' for Inactive)
REMARK    1  A    between atoms: C3_3  and  N1_4 
REMARK       I    between atoms: N1_4  and  C4_5 
REMARK    2  A    between atoms: C4_5  and  C5_7 
REMARK    3  A    between atoms: C6_8  and  C7_9 
REMARK    4  A    between atoms: C7_9  and  C8_10 
REMARK    5  A    between atoms: C8_10  and  N2_11 
REMARK    6  A    between atoms: C16_22  and  C17_23 
ROOT
HETATM    1  N1  UNL     1      27.844   7.465  49.355  1.00  0.00    -0.319 N 
HETATM    2  C4  UNL     1      26.907   6.596  48.765  1.00  0.00     0.300 C 
HETATM    3  O1  UNL     1      26.350   6.989  47.736  1.00  0.00    -0.258 OA
HETATM    4  H4  UNL     1      28.171   6.914  50.198  1.00  0.00     0.169 HD
ENDROOT
BRANCH   1   5
HETATM    5  C3  UNL     1      28.369   8.726  49.105  1.00  0.00     0.025 A 
HETATM    6  C2  UNL     1      29.524   9.253  48.779  1.00  0.00    -0.024 A 
HETATM    7  C1  UNL     1      30.776   8.520  48.553  1.00  0.00     0.051 C 
HETATM    8  C19 UNL     1      29.429  10.696  48.661  1.00  0.00     0.025 A 
HETATM    9  C14 UNL     1      28.141  11.037  48.935  1.00  0.00     0.054 A 
HETATM   10  C16 UNL     1      30.191  11.795  48.375  1.00  0.00     0.068 A 
HETATM   11  C13 UNL     1      27.358   9.833  49.236  1.00  0.00     0.118 A 
HETATM   12  N3  UNL     1      27.692  12.288  48.922  1.00  0.00    -0.245 NA
HETATM   13  C15 UNL     1      28.453  13.330  48.641  1.00  0.00     0.234 A 
HETATM   14  N4  UNL     1      29.723  13.052  48.365  1.00  0.00    -0.242 NA
BRANCH  10  15
HETATM   15  C17 UNL     1      31.585  11.551  48.069  1.00  0.00     0.070 C 
HETATM   16  C18 UNL     1      31.923  11.486  46.796  1.00  0.00     0.225 C 
HETATM   17 CL1  UNL     1      30.764  11.681  45.499  1.00  0.00    -0.257 Cl
ENDBRANCH  10  15
ENDBRANCH   1   5
BRANCH   2  18
HETATM   18  C5  UNL     1      26.495   5.294  49.196  1.00  0.00    -0.005 C 
HETATM   19  C6  UNL     1      26.130   4.209  49.553  1.00  0.00    -0.095 C 
BRANCH  19  20
HETATM   20  C7  UNL     1      25.706   2.882  50.002  1.00  0.00     0.124 C 
BRANCH  20  21
HETATM   21  C8  UNL     1      26.669   2.482  51.115  1.00  0.00     0.284 C 
BRANCH  21  22
HETATM   22  N2  UNL     1      26.262   1.258  51.730  1.00  0.00     0.093 N 
HETATM   23  C9  UNL     1      25.171   1.450  52.683  1.00  0.00     0.298 C 
HETATM   24  C10 UNL     1      25.616   2.246  53.866  1.00  0.00     0.198 C 
HETATM   25  O2  UNL     1      26.971   2.434  53.978  1.00  0.00    -0.388 OA
HETATM   26  C11 UNL     1      27.754   1.350  53.659  1.00  0.00     0.198 C 
HETATM   27  C12 UNL     1      27.307   0.581  52.453  1.00  0.00     0.298 C 
ENDBRANCH  21  22
ENDBRANCH  20  21
ENDBRANCH  19  20
ENDBRANCH   2  18
TORSDOF 6
ENDMDL
