MODEL 1
REMARK VINA RESULT:      -7.5      0.000      0.000
REMARK  7 active torsions:
REMARK  status: ('A' for Active; 'I' for Inactive)
REMARK    1  A    between atoms: O1_2  and  C2_3 
REMARK    2  A    between atoms: C2_3  and  C16_22 
REMARK    3  A    between atoms: C3_4  and  C4_5 
REMARK    4  A    between atoms: C7_10  and  N3_11 
REMARK    5  A    between atoms: N3_11  and  C8_12 
REMARK    6  A    between atoms: C11_15  and  N4_16 
REMARK       I    between atoms: N4_16  and  C12_17 
REMARK    7  A    between atoms: C16_22  and  O3_24 
ROOT
HETATM    1  C4  UNL     1      25.877   2.410  51.196  1.00  0.00     0.030 A 
HETATM    2  C5  UNL     1      26.482   2.916  50.070  1.00  0.00     0.133 A 
HETATM    3  N1  UNL     1      25.974   3.983  49.438  1.00  0.00    -0.253 NA
HETATM    4  C6  UNL     1      24.862   4.570  49.909  1.00  0.00     0.234 A 
HETATM    5  N2  UNL     1      24.285   4.067  51.005  1.00  0.00    -0.224 NA
HETATM    6  C7  UNL     1      24.735   3.005  51.687  1.00  0.00     0.141 A 
ENDROOT
BRANCH   6   7
HETATM    7  N3  UNL     1      24.133   2.458  52.850  1.00  0.00    -0.340 N 
HETATM    8  H7  UNL     1      24.615   2.609  53.763  1.00  0.00     0.167 HD
BRANCH   7   9
HETATM    9  C8  UNL     1      22.946   1.699  53.009  1.00  0.00     0.033 A 
HETATM   10  C9  UNL     1      21.688   2.171  52.696  1.00  0.00     0.032 A 
HETATM   11  C10 UNL     1      20.550   1.421  52.863  1.00  0.00     0.032 A 
HETATM   12  C11 UNL     1      20.598   0.140  53.361  1.00  0.00     0.034 A 
HETATM   13  C14 UNL     1      21.849  -0.333  53.675  1.00  0.00     0.032 A 
HETATM   14  C15 UNL     1      23.007   0.397  53.515  1.00  0.00     0.032 A 
BRANCH  12  15
HETATM   15  N4  UNL     1      19.453  -0.680  53.560  1.00  0.00    -0.328 N 
HETATM   16  C12 UNL     1      18.353  -0.974  52.676  1.00  0.00     0.218 C 
HETATM   17  C13 UNL     1      17.288  -1.891  53.208  1.00  0.00     0.117 C 
HETATM   18  O2  UNL     1      18.184  -0.544  51.501  1.00  0.00    -0.274 OA
HETATM   19  H10 UNL     1      19.464  -1.110  54.504  1.00  0.00     0.169 HD
ENDBRANCH  12  15
ENDBRANCH   7   9
ENDBRANCH   6   7
BRANCH   1  20
HETATM   20  C3  UNL     1      26.506   1.252  51.775  1.00  0.00     0.051 C 
HETATM   21  C2  UNL     1      27.481   0.945  52.621  1.00  0.00     0.075 C 
BRANCH  21  22
HETATM   22  O1  UNL     1      27.767  -0.403  52.916  1.00  0.00    -0.358 OA
HETATM   23  C1  UNL     1      26.865  -1.459  52.676  1.00  0.00     0.209 C 
ENDBRANCH  21  22
BRANCH  21  24
HETATM   24  C16 UNL     1      28.458   1.716  53.423  1.00  0.00     0.170 C 
HETATM   25  C17 UNL     1      29.206   0.846  54.411  1.00  0.00     0.046 C 
BRANCH  24  26
HETATM   26  O3  UNL     1      27.896   2.836  54.049  1.00  0.00    -0.389 OA
HETATM   27  H20 UNL     1      26.991   3.048  53.776  1.00  0.00     0.210 HD
ENDBRANCH  24  26
ENDBRANCH  21  24
ENDBRANCH   1  20
TORSDOF 7
ENDMDL
MODEL 2
REMARK VINA RESULT:      -7.3      2.657      6.103
REMARK  7 active torsions:
REMARK  status: ('A' for Active; 'I' for Inactive)
REMARK    1  A    between atoms: O1_2  and  C2_3 
REMARK    2  A    between atoms: C2_3  and  C16_22 
REMARK    3  A    between atoms: C3_4  and  C4_5 
REMARK    4  A    between atoms: C7_10  and  N3_11 
REMARK    5  A    between atoms: N3_11  and  C8_12 
REMARK    6  A    between atoms: C11_15  and  N4_16 
REMARK       I    between atoms: N4_16  and  C12_17 
REMARK    7  A    between atoms: C16_22  and  O3_24 
ROOT
HETATM    1  C4  UNL     1      23.183  -0.306  53.462  1.00  0.00     0.030 A 
HETATM    2  C5  UNL     1      22.855  -0.957  54.628  1.00  0.00     0.133 A 
HETATM    3  N1  UNL     1      21.629  -0.845  55.156  1.00  0.00    -0.253 NA
HETATM    4  C6  UNL     1      20.704  -0.092  54.540  1.00  0.00     0.234 A 
HETATM    5  N2  UNL     1      21.036   0.536  53.407  1.00  0.00    -0.224 NA
HETATM    6  C7  UNL     1      22.241   0.471  52.823  1.00  0.00     0.141 A 
ENDROOT
BRANCH   6   7
HETATM    7  N3  UNL     1      22.610   1.132  51.623  1.00  0.00    -0.340 N 
HETATM    8  H7  UNL     1      22.437   0.635  50.722  1.00  0.00     0.167 HD
BRANCH   7   9
HETATM    9  C8  UNL     1      23.209   2.399  51.410  1.00  0.00     0.033 A 
HETATM   10  C9  UNL     1      23.135   3.442  52.309  1.00  0.00     0.032 A 
HETATM   11  C10 UNL     1      23.717   4.664  52.081  1.00  0.00     0.032 A 
HETATM   12  C11 UNL     1      24.416   4.924  50.925  1.00  0.00     0.034 A 
HETATM   13  C14 UNL     1      24.491   3.888  50.025  1.00  0.00     0.032 A 
HETATM   14  C15 UNL     1      23.918   2.652  50.231  1.00  0.00     0.032 A 
BRANCH  12  15
HETATM   15  N4  UNL     1      25.034   6.171  50.632  1.00  0.00    -0.328 N 
HETATM   16  C12 UNL     1      24.471   7.496  50.556  1.00  0.00     0.218 C 
HETATM   17  C13 UNL     1      25.417   8.612  50.214  1.00  0.00     0.117 C 
HETATM   18  O2  UNL     1      23.266   7.823  50.744  1.00  0.00    -0.274 OA
HETATM   19  H10 UNL     1      26.049   6.050  50.457  1.00  0.00     0.169 HD
ENDBRANCH  12  15
ENDBRANCH   7   9
ENDBRANCH   6   7
BRANCH   1  20
HETATM   20  C3  UNL     1      24.535  -0.489  53.004  1.00  0.00     0.051 C 
HETATM   21  C2  UNL     1      25.693   0.157  52.981  1.00  0.00     0.075 C 
BRANCH  21  22
HETATM   22  O1  UNL     1      26.829  -0.440  52.398  1.00  0.00    -0.358 OA
HETATM   23  C1  UNL     1      27.321  -1.706  52.774  1.00  0.00     0.209 C 
ENDBRANCH  21  22
BRANCH  21  24
HETATM   24  C16 UNL     1      26.169   1.480  53.450  1.00  0.00     0.170 C 
HETATM   25  C17 UNL     1      27.048   2.170  52.429  1.00  0.00     0.046 C 
BRANCH  24  26
HETATM   26  O3  UNL     1      26.783   1.430  54.707  1.00  0.00    -0.389 OA
HETATM   27  H20 UNL     1      26.248   1.771  55.440  1.00  0.00     0.210 HD
ENDBRANCH  24  26
ENDBRANCH  21  24
ENDBRANCH   1  20
TORSDOF 7
ENDMDL
MODEL 3
REMARK VINA RESULT:      -7.2      3.178      5.958
REMARK  7 active torsions:
REMARK  status: ('A' for Active; 'I' for Inactive)
REMARK    1  A    between atoms: O1_2  and  C2_3 
REMARK    2  A    between atoms: C2_3  and  C16_22 
REMARK    3  A    between atoms: C3_4  and  C4_5 
REMARK    4  A    between atoms: C7_10  and  N3_11 
REMARK    5  A    between atoms: N3_11  and  C8_12 
REMARK    6  A    between atoms: C11_15  and  N4_16 
REMARK       I    between atoms: N4_16  and  C12_17 
REMARK    7  A    between atoms: C16_22  and  O3_24 
ROOT
HETATM    1  C4  UNL     1      25.012   0.498  53.508  1.00  0.00     0.030 A 
HETATM    2  C5  UNL     1      25.626  -0.669  53.898  1.00  0.00     0.133 A 
HETATM    3  N1  UNL     1      26.858  -0.654  54.423  1.00  0.00    -0.253 NA
HETATM    4  C6  UNL     1      27.504   0.513  54.575  1.00  0.00     0.234 A 
HETATM    5  N2  UNL     1      26.895   1.640  54.191  1.00  0.00    -0.224 NA
HETATM    6  C7  UNL     1      25.667   1.701  53.658  1.00  0.00     0.141 A 
ENDROOT
BRANCH   6   7
HETATM    7  N3  UNL     1      25.008   2.887  53.243  1.00  0.00    -0.340 N 
HETATM    8  H7  UNL     1      24.859   3.634  53.956  1.00  0.00     0.167 HD
BRANCH   7   9
HETATM    9  C8  UNL     1      24.479   3.261  51.982  1.00  0.00     0.033 A 
HETATM   10  C9  UNL     1      23.252   3.869  51.816  1.00  0.00     0.032 A 
HETATM   11  C10 UNL     1      22.756   4.217  50.584  1.00  0.00     0.032 A 
HETATM   12  C11 UNL     1      23.462   3.975  49.428  1.00  0.00     0.034 A 
HETATM   13  C14 UNL     1      24.685   3.369  49.590  1.00  0.00     0.032 A 
HETATM   14  C15 UNL     1      25.206   3.010  50.813  1.00  0.00     0.032 A 
BRANCH  12  15
HETATM   15  N4  UNL     1      22.996   4.309  48.127  1.00  0.00    -0.328 N 
HETATM   16  C12 UNL     1      22.039   3.642  47.280  1.00  0.00     0.218 C 
HETATM   17  C13 UNL     1      21.774   4.268  45.940  1.00  0.00     0.117 C 
HETATM   18  O2  UNL     1      21.398   2.587  47.540  1.00  0.00    -0.274 OA
HETATM   19  H10 UNL     1      23.447   5.178  47.783  1.00  0.00     0.169 HD
ENDBRANCH  12  15
ENDBRANCH   7   9
ENDBRANCH   6   7
BRANCH   1  20
HETATM   20  C3  UNL     1      23.696   0.351  52.942  1.00  0.00     0.051 C 
HETATM   21  C2  UNL     1      22.469   0.006  53.309  1.00  0.00     0.075 C 
BRANCH  21  22
HETATM   22  O1  UNL     1      21.419   0.006  52.367  1.00  0.00    -0.358 OA
HETATM   23  C1  UNL     1      21.511   0.621  51.102  1.00  0.00     0.209 C 
ENDBRANCH  21  22
BRANCH  21  24
HETATM   24  C16 UNL     1      21.832  -0.428  54.574  1.00  0.00     0.170 C 
HETATM   25  C17 UNL     1      21.544  -1.914  54.593  1.00  0.00     0.046 C 
BRANCH  24  26
HETATM   26  O3  UNL     1      20.694   0.319  54.902  1.00  0.00    -0.389 OA
HETATM   27  H20 UNL     1      19.854  -0.162  54.840  1.00  0.00     0.210 HD
ENDBRANCH  24  26
ENDBRANCH  21  24
ENDBRANCH   1  20
TORSDOF 7
ENDMDL
MODEL 4
REMARK VINA RESULT:      -6.9      3.527      8.021
REMARK  7 active torsions:
REMARK  status: ('A' for Active; 'I' for Inactive)
REMARK    1  A    between atoms: O1_2  and  C2_3 
REMARK    2  A    between atoms: C2_3  and  C16_22 
REMARK    3  A    between atoms: C3_4  and  C4_5 
REMARK    4  A    between atoms: C7_10  and  N3_11 
REMARK    5  A    between atoms: N3_11  and  C8_12 
REMARK    6  A    between atoms: C11_15  and  N4_16 
REMARK       I    between atoms: N4_16  and  C12_17 
REMARK    7  A    between atoms: C16_22  and  O3_24 
ROOT
HETATM    1  C4  UNL     1      25.573   2.176  52.367  1.00  0.00     0.030 A 
HETATM    2  C5  UNL     1      25.758   1.772  53.668  1.00  0.00     0.133 A 
HETATM    3  N1  UNL     1      26.984   1.731  54.207  1.00  0.00    -0.253 NA
HETATM    4  C6  UNL     1      28.048   2.091  53.471  1.00  0.00     0.234 A 
HETATM    5  N2  UNL     1      27.853   2.482  52.207  1.00  0.00    -0.224 NA
HETATM    6  C7  UNL     1      26.659   2.547  51.603  1.00  0.00     0.141 A 
ENDROOT
BRANCH   6   7
HETATM    7  N3  UNL     1      26.436   2.956  50.263  1.00  0.00    -0.340 N 
HETATM    8  H7  UNL     1      26.259   2.214  49.551  1.00  0.00     0.167 HD
BRANCH   7   9
HETATM    9  C8  UNL     1      26.417   4.248  49.679  1.00  0.00     0.033 A 
HETATM   10  C9  UNL     1      25.346   5.113  49.768  1.00  0.00     0.032 A 
HETATM   11  C10 UNL     1      25.345   6.358  49.190  1.00  0.00     0.032 A 
HETATM   12  C11 UNL     1      26.427   6.822  48.478  1.00  0.00     0.034 A 
HETATM   13  C14 UNL     1      27.496   5.963  48.387  1.00  0.00     0.032 A 
HETATM   14  C15 UNL     1      27.523   4.710  48.958  1.00  0.00     0.032 A 
BRANCH  12  15
HETATM   15  N4  UNL     1      26.481   8.099  47.854  1.00  0.00    -0.328 N 
HETATM   16  C12 UNL     1      26.502   9.419  48.434  1.00  0.00     0.218 C 
HETATM   17  C13 UNL     1      26.559  10.575  47.476  1.00  0.00     0.117 C 
HETATM   18  O2  UNL     1      26.477   9.711  49.662  1.00  0.00    -0.274 OA
HETATM   19  H10 UNL     1      26.511   8.007  46.822  1.00  0.00     0.169 HD
ENDBRANCH  12  15
ENDBRANCH   7   9
ENDBRANCH   6   7
BRANCH   1  20
HETATM   20  C3  UNL     1      24.212   2.161  51.896  1.00  0.00     0.051 C 
HETATM   21  C2  UNL     1      23.124   2.918  51.922  1.00  0.00     0.075 C 
BRANCH  21  22
HETATM   22  O1  UNL     1      21.941   2.483  51.289  1.00  0.00    -0.358 OA
HETATM   23  C1  UNL     1      21.851   1.287  50.548  1.00  0.00     0.209 C 
ENDBRANCH  21  22
BRANCH  21  24
HETATM   24  C16 UNL     1      22.773   4.237  52.497  1.00  0.00     0.170 C 
HETATM   25  C17 UNL     1      21.991   5.098  51.528  1.00  0.00     0.046 C 
BRANCH  24  26
HETATM   26  O3  UNL     1      23.878   4.923  53.016  1.00  0.00    -0.389 OA
HETATM   27  H20 UNL     1      23.742   5.320  53.890  1.00  0.00     0.210 HD
ENDBRANCH  24  26
ENDBRANCH  21  24
ENDBRANCH   1  20
TORSDOF 7
ENDMDL
MODEL 5
REMARK VINA RESULT:      -6.8      2.896      5.895
REMARK  7 active torsions:
REMARK  status: ('A' for Active; 'I' for Inactive)
REMARK    1  A    between atoms: O1_2  and  C2_3 
REMARK    2  A    between atoms: C2_3  and  C16_22 
REMARK    3  A    between atoms: C3_4  and  C4_5 
REMARK    4  A    between atoms: C7_10  and  N3_11 
REMARK    5  A    between atoms: N3_11  and  C8_12 
REMARK    6  A    between atoms: C11_15  and  N4_16 
REMARK       I    between atoms: N4_16  and  C12_17 
REMARK    7  A    between atoms: C16_22  and  O3_24 
ROOT
HETATM    1  C4  UNL     1      23.696  -0.403  53.617  1.00  0.00     0.030 A 
HETATM    2  C5  UNL     1      23.784  -1.039  54.833  1.00  0.00     0.133 A 
HETATM    3  N1  UNL     1      22.697  -1.560  55.417  1.00  0.00    -0.253 NA
HETATM    4  C6  UNL     1      21.504  -1.464  54.808  1.00  0.00     0.234 A 
HETATM    5  N2  UNL     1      21.433  -0.844  53.625  1.00  0.00    -0.224 NA
HETATM    6  C7  UNL     1      22.476  -0.300  52.985  1.00  0.00     0.141 A 
ENDROOT
BRANCH   6   7
HETATM    7  N3  UNL     1      22.417   0.365  51.732  1.00  0.00    -0.340 N 
HETATM    8  H7  UNL     1      22.392  -0.225  50.871  1.00  0.00     0.167 HD
BRANCH   7   9
HETATM    9  C8  UNL     1      22.395   1.746  51.416  1.00  0.00     0.033 A 
HETATM   10  C9  UNL     1      21.667   2.682  52.121  1.00  0.00     0.032 A 
HETATM   11  C10 UNL     1      21.654   4.015  51.794  1.00  0.00     0.032 A 
HETATM   12  C11 UNL     1      22.376   4.502  50.730  1.00  0.00     0.034 A 
HETATM   13  C14 UNL     1      23.102   3.574  50.023  1.00  0.00     0.032 A 
HETATM   14  C15 UNL     1      23.133   2.231  50.331  1.00  0.00     0.032 A 
BRANCH  12  15
HETATM   15  N4  UNL     1      22.397   5.871  50.342  1.00  0.00    -0.328 N 
HETATM   16  C12 UNL     1      23.398   6.885  50.560  1.00  0.00     0.218 C 
HETATM   17  C13 UNL     1      23.100   8.253  50.014  1.00  0.00     0.117 C 
HETATM   18  O2  UNL     1      24.499   6.751  51.162  1.00  0.00    -0.274 OA
HETATM   19  H10 UNL     1      21.535   6.123  49.823  1.00  0.00     0.169 HD
ENDBRANCH  12  15
ENDBRANCH   7   9
ENDBRANCH   6   7
BRANCH   1  20
HETATM   20  C3  UNL     1      24.930   0.130  53.101  1.00  0.00     0.051 C 
HETATM   21  C2  UNL     1      26.165  -0.265  52.820  1.00  0.00     0.075 C 
BRANCH  21  22
HETATM   22  O1  UNL     1      27.101   0.650  52.296  1.00  0.00    -0.358 OA
HETATM   23  C1  UNL     1      26.741   1.774  51.524  1.00  0.00     0.209 C 
ENDBRANCH  21  22
BRANCH  21  24
HETATM   24  C16 UNL     1      26.909  -1.542  52.918  1.00  0.00     0.170 C 
HETATM   25  C17 UNL     1      28.388  -1.328  53.158  1.00  0.00     0.046 C 
BRANCH  24  26
HETATM   26  O3  UNL     1      26.683  -2.396  51.832  1.00  0.00    -0.389 OA
HETATM   27  H20 UNL     1      27.331  -2.329  51.114  1.00  0.00     0.210 HD
ENDBRANCH  24  26
ENDBRANCH  21  24
ENDBRANCH   1  20
TORSDOF 7
ENDMDL
MODEL 6
REMARK VINA RESULT:      -6.8      3.188      9.503
REMARK  7 active torsions:
REMARK  status: ('A' for Active; 'I' for Inactive)
REMARK    1  A    between atoms: O1_2  and  C2_3 
REMARK    2  A    between atoms: C2_3  and  C16_22 
REMARK    3  A    between atoms: C3_4  and  C4_5 
REMARK    4  A    between atoms: C7_10  and  N3_11 
REMARK    5  A    between atoms: N3_11  and  C8_12 
REMARK    6  A    between atoms: C11_15  and  N4_16 
REMARK       I    between atoms: N4_16  and  C12_17 
REMARK    7  A    between atoms: C16_22  and  O3_24 
ROOT
HETATM    1  C4  UNL     1      16.897  -1.340  52.653  1.00  0.00     0.030 A 
HETATM    2  C5  UNL     1      15.962  -2.296  52.330  1.00  0.00     0.133 A 
HETATM    3  N1  UNL     1      16.061  -3.543  52.808  1.00  0.00    -0.253 NA
HETATM    4  C6  UNL     1      17.085  -3.869  53.614  1.00  0.00     0.234 A 
HETATM    5  N2  UNL     1      17.987  -2.930  53.919  1.00  0.00    -0.224 NA
HETATM    6  C7  UNL     1      17.951  -1.664  53.478  1.00  0.00     0.141 A 
ENDROOT
BRANCH   6   7
HETATM    7  N3  UNL     1      18.902  -0.658  53.789  1.00  0.00    -0.340 N 
HETATM    8  H7  UNL     1      18.545   0.242  54.181  1.00  0.00     0.167 HD
BRANCH   7   9
HETATM    9  C8  UNL     1      20.313  -0.641  53.652  1.00  0.00     0.033 A 
HETATM   10  C9  UNL     1      21.177  -1.220  54.558  1.00  0.00     0.032 A 
HETATM   11  C10 UNL     1      22.541  -1.186  54.409  1.00  0.00     0.032 A 
HETATM   12  C11 UNL     1      23.134  -0.564  53.335  1.00  0.00     0.034 A 
HETATM   13  C14 UNL     1      22.277   0.014  52.431  1.00  0.00     0.032 A 
HETATM   14  C15 UNL     1      20.904  -0.006  52.555  1.00  0.00     0.032 A 
BRANCH  12  15
HETATM   15  N4  UNL     1      24.540  -0.495  53.132  1.00  0.00    -0.328 N 
HETATM   16  C12 UNL     1      25.625  -0.633  54.071  1.00  0.00     0.218 C 
HETATM   17  C13 UNL     1      27.016  -0.498  53.518  1.00  0.00     0.117 C 
HETATM   18  O2  UNL     1      25.536  -0.854  55.311  1.00  0.00    -0.274 OA
HETATM   19  H10 UNL     1      24.763  -0.317  52.135  1.00  0.00     0.169 HD
ENDBRANCH  12  15
ENDBRANCH   7   9
ENDBRANCH   6   7
BRANCH   1  20
HETATM   20  C3  UNL     1      16.691  -0.043  52.064  1.00  0.00     0.051 C 
HETATM   21  C2  UNL     1      15.801   0.941  52.067  1.00  0.00     0.075 C 
BRANCH  21  22
HETATM   22  O1  UNL     1      16.022   2.101  51.297  1.00  0.00    -0.358 OA
HETATM   23  C1  UNL     1      17.299   2.656  51.078  1.00  0.00     0.209 C 
ENDBRANCH  21  22
BRANCH  21  24
HETATM   24  C16 UNL     1      14.496   1.177  52.727  1.00  0.00     0.170 C 
HETATM   25  C17 UNL     1      14.220   2.649  52.947  1.00  0.00     0.046 C 
BRANCH  24  26
HETATM   26  O3  UNL     1      14.336   0.442  53.909  1.00  0.00    -0.389 OA
HETATM   27  H20 UNL     1      13.435   0.429  54.266  1.00  0.00     0.210 HD
ENDBRANCH  24  26
ENDBRANCH  21  24
ENDBRANCH   1  20
TORSDOF 7
ENDMDL
MODEL 7
REMARK VINA RESULT:      -6.8      3.365      7.796
REMARK  7 active torsions:
REMARK  status: ('A' for Active; 'I' for Inactive)
REMARK    1  A    between atoms: O1_2  and  C2_3 
REMARK    2  A    between atoms: C2_3  and  C16_22 
REMARK    3  A    between atoms: C3_4  and  C4_5 
REMARK    4  A    between atoms: C7_10  and  N3_11 
REMARK    5  A    between atoms: N3_11  and  C8_12 
REMARK    6  A    between atoms: C11_15  and  N4_16 
REMARK       I    between atoms: N4_16  and  C12_17 
REMARK    7  A    between atoms: C16_22  and  O3_24 
ROOT
HETATM    1  C4  UNL     1      25.692   1.823  52.227  1.00  0.00     0.030 A 
HETATM    2  C5  UNL     1      25.847   1.447  53.541  1.00  0.00     0.133 A 
HETATM    3  N1  UNL     1      27.017   1.616  54.170  1.00  0.00    -0.253 NA
HETATM    4  C6  UNL     1      28.054   2.161  53.514  1.00  0.00     0.234 A 
HETATM    5  N2  UNL     1      27.890   2.522  52.237  1.00  0.00    -0.224 NA
HETATM    6  C7  UNL     1      26.750   2.383  51.545  1.00  0.00     0.141 A 
ENDROOT
BRANCH   6   7
HETATM    7  N3  UNL     1      26.560   2.758  50.190  1.00  0.00    -0.340 N 
HETATM    8  H7  UNL     1      26.494   1.995  49.480  1.00  0.00     0.167 HD
BRANCH   7   9
HETATM    9  C8  UNL     1      26.448   4.037  49.589  1.00  0.00     0.033 A 
HETATM   10  C9  UNL     1      25.291   4.788  49.598  1.00  0.00     0.032 A 
HETATM   11  C10 UNL     1      25.201   6.022  49.005  1.00  0.00     0.032 A 
HETATM   12  C11 UNL     1      26.273   6.590  48.356  1.00  0.00     0.034 A 
HETATM   13  C14 UNL     1      27.428   5.844  48.344  1.00  0.00     0.032 A 
HETATM   14  C15 UNL     1      27.545   4.604  48.932  1.00  0.00     0.032 A 
BRANCH  12  15
HETATM   15  N4  UNL     1      26.237   7.861  47.720  1.00  0.00    -0.328 N 
HETATM   16  C12 UNL     1      25.898   9.159  48.250  1.00  0.00     0.218 C 
HETATM   17  C13 UNL     1      25.958  10.314  47.292  1.00  0.00     0.117 C 
HETATM   18  O2  UNL     1      25.553   9.431  49.433  1.00  0.00    -0.274 OA
HETATM   19  H10 UNL     1      26.508   7.785  46.722  1.00  0.00     0.169 HD
ENDBRANCH  12  15
ENDBRANCH   7   9
ENDBRANCH   6   7
BRANCH   1  20
HETATM   20  C3  UNL     1      24.393   1.575  51.656  1.00  0.00     0.051 C 
HETATM   21  C2  UNL     1      23.193   1.143  52.019  1.00  0.00     0.075 C 
BRANCH  21  22
HETATM   22  O1  UNL     1      22.152   1.059  51.073  1.00  0.00    -0.358 OA
HETATM   23  C1  UNL     1      22.224   1.629  49.786  1.00  0.00     0.209 C 
ENDBRANCH  21  22
BRANCH  21  24
HETATM   24  C16 UNL     1      22.584   0.671  53.284  1.00  0.00     0.170 C 
HETATM   25  C17 UNL     1      22.817  -0.806  53.519  1.00  0.00     0.046 C 
BRANCH  24  26
HETATM   26  O3  UNL     1      21.228   1.001  53.399  1.00  0.00    -0.389 OA
HETATM   27  H20 UNL     1      20.965   1.366  54.258  1.00  0.00     0.210 HD
ENDBRANCH  24  26
ENDBRANCH  21  24
ENDBRANCH   1  20
TORSDOF 7
ENDMDL
MODEL 8
REMARK VINA RESULT:      -6.8      3.223      7.376
REMARK  7 active torsions:
REMARK  status: ('A' for Active; 'I' for Inactive)
REMARK    1  A    between atoms: O1_2  and  C2_3 
REMARK    2  A    between atoms: C2_3  and  C16_22 
REMARK    3  A    between atoms: C3_4  and  C4_5 
REMARK    4  A    between atoms: C7_10  and  N3_11 
REMARK    5  A    between atoms: N3_11  and  C8_12 
REMARK    6  A    between atoms: C11_15  and  N4_16 
REMARK       I    between atoms: N4_16  and  C12_17 
REMARK    7  A    between atoms: C16_22  and  O3_24 
ROOT
HETATM    1  C4  UNL     1      24.825   1.669  52.278  1.00  0.00     0.030 A 
HETATM    2  C5  UNL     1      23.747   1.055  52.870  1.00  0.00     0.133 A 
HETATM    3  N1  UNL     1      22.566   0.983  52.241  1.00  0.00    -0.253 NA
HETATM    4  C6  UNL     1      22.432   1.513  51.014  1.00  0.00     0.234 A 
HETATM    5  N2  UNL     1      23.489   2.107  50.450  1.00  0.00    -0.224 NA
HETATM    6  C7  UNL     1      24.697   2.217  51.020  1.00  0.00     0.141 A 
ENDROOT
BRANCH   6   7
HETATM    7  N3  UNL     1      25.828   2.845  50.437  1.00  0.00    -0.340 N 
HETATM    8  H7  UNL     1      26.693   2.274  50.316  1.00  0.00     0.167 HD
BRANCH   7   9
HETATM    9  C8  UNL     1      26.014   4.172  49.974  1.00  0.00     0.033 A 
HETATM   10  C9  UNL     1      25.213   5.232  50.345  1.00  0.00     0.032 A 
HETATM   11  C10 UNL     1      25.407   6.509  49.880  1.00  0.00     0.032 A 
HETATM   12  C11 UNL     1      26.424   6.810  49.004  1.00  0.00     0.034 A 
HETATM   13  C14 UNL     1      27.224   5.757  48.631  1.00  0.00     0.032 A 
HETATM   14  C15 UNL     1      27.052   4.467  49.084  1.00  0.00     0.032 A 
BRANCH  12  15
HETATM   15  N4  UNL     1      26.669   8.112  48.487  1.00  0.00    -0.328 N 
HETATM   16  C12 UNL     1      26.975   9.344  49.170  1.00  0.00     0.218 C 
HETATM   17  C13 UNL     1      27.176  10.559  48.310  1.00  0.00     0.117 C 
HETATM   18  O2  UNL     1      27.091   9.516  50.415  1.00  0.00    -0.274 OA
HETATM   19  H10 UNL     1      26.608   8.117  47.451  1.00  0.00     0.169 HD
ENDBRANCH  12  15
ENDBRANCH   7   9
ENDBRANCH   6   7
BRANCH   1  20
HETATM   20  C3  UNL     1      26.033   1.698  53.061  1.00  0.00     0.051 C 
HETATM   21  C2  UNL     1      27.066   0.921  53.359  1.00  0.00     0.075 C 
BRANCH  21  22
HETATM   22  O1  UNL     1      28.082   1.388  54.218  1.00  0.00    -0.358 OA
HETATM   23  C1  UNL     1      28.968   2.430  53.878  1.00  0.00     0.209 C 
ENDBRANCH  21  22
BRANCH  21  24
HETATM   24  C16 UNL     1      27.487  -0.452  52.998  1.00  0.00     0.170 C 
HETATM   25  C17 UNL     1      26.309  -1.365  52.735  1.00  0.00     0.046 C 
BRANCH  24  26
HETATM   26  O3  UNL     1      28.376  -1.016  53.922  1.00  0.00    -0.389 OA
HETATM   27  H20 UNL     1      29.311  -0.984  53.666  1.00  0.00     0.210 HD
ENDBRANCH  24  26
ENDBRANCH  21  24
ENDBRANCH   1  20
TORSDOF 7
ENDMDL
MODEL 9
REMARK VINA RESULT:      -6.8      5.401      7.640
REMARK  7 active torsions:
REMARK  status: ('A' for Active; 'I' for Inactive)
REMARK    1  A    between atoms: O1_2  and  C2_3 
REMARK    2  A    between atoms: C2_3  and  C16_22 
REMARK    3  A    between atoms: C3_4  and  C4_5 
REMARK    4  A    between atoms: C7_10  and  N3_11 
REMARK    5  A    between atoms: N3_11  and  C8_12 
REMARK    6  A    between atoms: C11_15  and  N4_16 
REMARK       I    between atoms: N4_16  and  C12_17 
REMARK    7  A    between atoms: C16_22  and  O3_24 
ROOT
HETATM    1  C4  UNL     1      30.460   7.237  48.738  1.00  0.00     0.030 A 
HETATM    2  C5  UNL     1      31.323   8.151  49.297  1.00  0.00     0.133 A 
HETATM    3  N1  UNL     1      30.919   9.398  49.572  1.00  0.00    -0.253 NA
HETATM    4  C6  UNL     1      29.655   9.764  49.302  1.00  0.00     0.234 A 
HETATM    5  N2  UNL     1      28.827   8.865  48.759  1.00  0.00    -0.224 NA
HETATM    6  C7  UNL     1      29.162   7.603  48.456  1.00  0.00     0.141 A 
ENDROOT
BRANCH   6   7
HETATM    7  N3  UNL     1      28.297   6.639  47.877  1.00  0.00    -0.340 N 
HETATM    8  H7  UNL     1      28.383   6.465  46.851  1.00  0.00     0.167 HD
BRANCH   7   9
HETATM    9  C8  UNL     1      27.283   5.836  48.457  1.00  0.00     0.033 A 
HETATM   10  C9  UNL     1      25.994   6.273  48.680  1.00  0.00     0.032 A 
HETATM   11  C10 UNL     1      25.028   5.481  49.250  1.00  0.00     0.032 A 
HETATM   12  C11 UNL     1      25.293   4.189  49.637  1.00  0.00     0.034 A 
HETATM   13  C14 UNL     1      26.576   3.749  49.417  1.00  0.00     0.032 A 
HETATM   14  C15 UNL     1      27.564   4.522  48.847  1.00  0.00     0.032 A 
BRANCH  12  15
HETATM   15  N4  UNL     1      24.335   3.325  50.235  1.00  0.00    -0.328 N 
HETATM   16  C12 UNL     1      23.691   3.397  51.524  1.00  0.00     0.218 C 
HETATM   17  C13 UNL     1      22.715   2.302  51.851  1.00  0.00     0.117 C 
HETATM   18  O2  UNL     1      23.859   4.280  52.410  1.00  0.00    -0.274 OA
HETATM   19  H10 UNL     1      24.096   2.539  49.602  1.00  0.00     0.169 HD
ENDBRANCH  12  15
ENDBRANCH   7   9
ENDBRANCH   6   7
BRANCH   1  20
HETATM   20  C3  UNL     1      31.017   5.936  48.473  1.00  0.00     0.051 C 
HETATM   21  C2  UNL     1      32.197   5.334  48.402  1.00  0.00     0.075 C 
BRANCH  21  22
HETATM   22  O1  UNL     1      32.277   3.960  48.097  1.00  0.00    -0.358 OA
HETATM   23  C1  UNL     1      31.982   3.429  46.825  1.00  0.00     0.209 C 
ENDBRANCH  21  22
BRANCH  21  24
HETATM   24  C16 UNL     1      33.606   5.759  48.571  1.00  0.00     0.170 C 
HETATM   25  C17 UNL     1      34.147   6.461  47.343  1.00  0.00     0.046 C 
BRANCH  24  26
HETATM   26  O3  UNL     1      34.449   4.719  48.981  1.00  0.00    -0.389 OA
HETATM   27  H20 UNL     1      35.322   4.707  48.560  1.00  0.00     0.210 HD
ENDBRANCH  24  26
ENDBRANCH  21  24
ENDBRANCH   1  20
TORSDOF 7
ENDMDL
