MODEL 1
REMARK VINA RESULT:      -9.4      0.000      0.000
REMARK  4 active torsions:
REMARK  status: ('A' for Active; 'I' for Inactive)
REMARK    1  A    between atoms: C7_8  and  C8_9 
REMARK    2  A    between atoms: C8_9  and  N1_10 
REMARK    3  A    between atoms: N1_10  and  C9_11 
REMARK    4  A    between atoms: N5_19  and  C14_20 
ROOT
HETATM    1  C9  UNL     1      22.428  -1.035  54.458  1.00  0.00     0.140 A 
HETATM    2  N2  UNL     1      22.880  -1.604  55.583  1.00  0.00    -0.224 NA
HETATM    3  C10 UNL     1      24.162  -1.550  55.971  1.00  0.00     0.237 A 
HETATM    4  N3  UNL     1      25.070  -0.903  55.227  1.00  0.00    -0.221 NA
HETATM    5  C11 UNL     1      24.730  -0.299  54.089  1.00  0.00     0.168 A 
HETATM    6  C12 UNL     1      23.392  -0.371  53.708  1.00  0.00     0.077 A 
HETATM    7  C13 UNL     1      23.330   0.318  52.529  1.00  0.00     0.158 A 
HETATM    8  N4  UNL     1      24.551   0.789  52.198  1.00  0.00    -0.177 NA
HETATM    9  N5  UNL     1      25.424   0.415  53.152  1.00  0.00    -0.215 N 
ENDROOT
BRANCH   1  10
HETATM   10  N1  UNL     1      21.040  -1.085  54.059  1.00  0.00    -0.373 N 
HETATM   11  H8  UNL     1      20.645  -2.016  53.888  1.00  0.00     0.161 HD
BRANCH  10  12
HETATM   12  C8  UNL     1      20.389   0.186  53.957  1.00  0.00     0.135 C 
BRANCH  12  13
HETATM   13  C7  UNL     1      19.765   0.326  52.601  1.00  0.00     0.032 A 
HETATM   14  C4  UNL     1      18.537   0.090  51.562  1.00  0.00     0.069 A 
HETATM   15  C3  UNL     1      17.460  -0.245  50.873  1.00  0.00     0.040 A 
HETATM   16  O1  UNL     1      18.625   0.948  50.180  1.00  0.00    -0.379 OA
HETATM   17  C2  UNL     1      17.686  -0.797  52.134  1.00  0.00     0.011 A 
HETATM   18  C6  UNL     1      18.924   0.159  51.901  1.00  0.00     0.035 A 
HETATM   19  C5  UNL     1      19.849   1.301  50.869  1.00  0.00     0.183 A 
HETATM   20  C1  UNL     1      17.048  -1.654  52.883  1.00  0.00     0.015 C 
ENDBRANCH  12  13
ENDBRANCH  10  12
ENDBRANCH   1  10
BRANCH   9  21
HETATM   21  C14 UNL     1      26.838   0.602  53.364  1.00  0.00     0.061 A 
HETATM   22  C15 UNL     1      27.179   1.944  53.479  1.00  0.00     0.032 A 
HETATM   23  C16 UNL     1      28.506   2.305  53.673  1.00  0.00     0.003 A 
HETATM   24  C17 UNL     1      29.464   1.301  53.747  1.00  0.00     0.007 A 
HETATM   25  C18 UNL     1      29.118  -0.054  53.630  1.00  0.00    -0.060 A 
HETATM   26  C19 UNL     1      30.137  -1.139  53.702  1.00  0.00     0.048 C 
HETATM   27  C20 UNL     1      27.784  -0.377  53.439  1.00  0.00     0.038 A 
ENDBRANCH   9  21
TORSDOF 4
ENDMDL
MODEL 2
REMARK VINA RESULT:      -9.3      1.015      1.668
REMARK  4 active torsions:
REMARK  status: ('A' for Active; 'I' for Inactive)
REMARK    1  A    between atoms: C7_8  and  C8_9 
REMARK    2  A    between atoms: C8_9  and  N1_10 
REMARK    3  A    between atoms: N1_10  and  C9_11 
REMARK    4  A    between atoms: N5_19  and  C14_20 
ROOT
HETATM    1  C9  UNL     1      21.995  -0.377  54.127  1.00  0.00     0.140 A 
HETATM    2  N2  UNL     1      22.267  -1.145  55.190  1.00  0.00    -0.224 NA
HETATM    3  C10 UNL     1      23.514  -1.438  55.587  1.00  0.00     0.237 A 
HETATM    4  N3  UNL     1      24.570  -0.960  54.916  1.00  0.00    -0.221 NA
HETATM    5  C11 UNL     1      24.417  -0.184  53.843  1.00  0.00     0.168 A 
HETATM    6  C12 UNL     1      23.111   0.105  53.451  1.00  0.00     0.077 A 
HETATM    7  C13 UNL     1      23.248   0.899  52.348  1.00  0.00     0.158 A 
HETATM    8  N4  UNL     1      24.555   1.093  52.071  1.00  0.00    -0.177 NA
HETATM    9  N5  UNL     1      25.286   0.429  52.985  1.00  0.00    -0.215 N 
ENDROOT
BRANCH   1  10
HETATM   10  N1  UNL     1      20.648  -0.053  53.720  1.00  0.00    -0.373 N 
HETATM   11  H8  UNL     1      20.471   0.921  53.453  1.00  0.00     0.161 HD
BRANCH  10  12
HETATM   12  C8  UNL     1      19.726  -1.148  53.737  1.00  0.00     0.135 C 
BRANCH  12  13
HETATM   13  C7  UNL     1      18.544  -0.826  52.872  1.00  0.00     0.032 A 
HETATM   14  C4  UNL     1      17.894  -0.268  51.490  1.00  0.00     0.069 A 
HETATM   15  C3  UNL     1      17.572   0.266  50.325  1.00  0.00     0.040 A 
HETATM   16  O1  UNL     1      16.312  -0.601  51.285  1.00  0.00    -0.379 OA
HETATM   17  C2  UNL     1      18.880   0.357  50.801  1.00  0.00     0.011 A 
HETATM   18  C6  UNL     1      18.111  -0.442  51.928  1.00  0.00     0.035 A 
HETATM   19  C5  UNL     1      16.601  -1.149  52.595  1.00  0.00     0.183 A 
HETATM   20  C1  UNL     1      19.980   0.897  50.352  1.00  0.00     0.015 C 
ENDBRANCH  12  13
ENDBRANCH  10  12
ENDBRANCH   1  10
BRANCH   9  21
HETATM   21  C14 UNL     1      26.698   0.249  53.221  1.00  0.00     0.061 A 
HETATM   22  C15 UNL     1      27.332   1.441  53.549  1.00  0.00     0.032 A 
HETATM   23  C16 UNL     1      28.699   1.451  53.795  1.00  0.00     0.003 A 
HETATM   24  C17 UNL     1      29.399   0.254  53.703  1.00  0.00     0.007 A 
HETATM   25  C18 UNL     1      28.757  -0.948  53.371  1.00  0.00    -0.060 A 
HETATM   26  C19 UNL     1      29.499  -2.237  53.264  1.00  0.00     0.048 C 
HETATM   27  C20 UNL     1      27.392  -0.921  53.134  1.00  0.00     0.038 A 
ENDBRANCH   9  21
TORSDOF 4
ENDMDL
MODEL 3
REMARK VINA RESULT:      -9.3      2.901      8.328
REMARK  4 active torsions:
REMARK  status: ('A' for Active; 'I' for Inactive)
REMARK    1  A    between atoms: C7_8  and  C8_9 
REMARK    2  A    between atoms: C8_9  and  N1_10 
REMARK    3  A    between atoms: N1_10  and  C9_11 
REMARK    4  A    between atoms: N5_19  and  C14_20 
ROOT
HETATM    1  C9  UNL     1      24.349   2.673  52.992  1.00  0.00     0.140 A 
HETATM    2  N2  UNL     1      23.681   3.763  52.592  1.00  0.00    -0.224 NA
HETATM    3  C10 UNL     1      22.382   3.749  52.259  1.00  0.00     0.237 A 
HETATM    4  N3  UNL     1      21.679   2.610  52.317  1.00  0.00    -0.221 NA
HETATM    5  C11 UNL     1      22.242   1.466  52.703  1.00  0.00     0.168 A 
HETATM    6  C12 UNL     1      23.593   1.507  53.042  1.00  0.00     0.077 A 
HETATM    7  C13 UNL     1      23.902   0.223  53.391  1.00  0.00     0.158 A 
HETATM    8  N4  UNL     1      22.813  -0.567  53.277  1.00  0.00    -0.177 NA
HETATM    9  N5  UNL     1      21.783   0.187  52.853  1.00  0.00    -0.215 N 
ENDROOT
BRANCH   1  10
HETATM   10  N1  UNL     1      25.744   2.704  53.365  1.00  0.00    -0.373 N 
HETATM   11  H8  UNL     1      25.966   3.112  54.279  1.00  0.00     0.161 HD
BRANCH  10  12
HETATM   12  C8  UNL     1      26.645   2.148  52.401  1.00  0.00     0.135 C 
BRANCH  12  13
HETATM   13  C7  UNL     1      27.676   1.312  53.097  1.00  0.00     0.032 A 
HETATM   14  C4  UNL     1      28.402  -0.114  53.386  1.00  0.00     0.069 A 
HETATM   15  C3  UNL     1      28.815  -1.362  53.516  1.00  0.00     0.040 A 
HETATM   16  O1  UNL     1      29.818  -0.019  54.188  1.00  0.00    -0.379 OA
HETATM   17  C2  UNL     1      27.621  -1.083  52.850  1.00  0.00     0.011 A 
HETATM   18  C6  UNL     1      28.163   0.336  53.289  1.00  0.00     0.035 A 
HETATM   19  C5  UNL     1      29.379   1.360  54.126  1.00  0.00     0.183 A 
HETATM   20  C1  UNL     1      26.708  -1.812  52.270  1.00  0.00     0.015 C 
ENDBRANCH  12  13
ENDBRANCH  10  12
ENDBRANCH   1  10
BRANCH   9  21
HETATM   21  C14 UNL     1      20.397  -0.067  52.547  1.00  0.00     0.061 A 
HETATM   22  C15 UNL     1      19.769  -0.818  53.534  1.00  0.00     0.032 A 
HETATM   23  C16 UNL     1      18.433  -1.167  53.391  1.00  0.00     0.003 A 
HETATM   24  C17 UNL     1      17.755  -0.748  52.252  1.00  0.00     0.007 A 
HETATM   25  C18 UNL     1      18.390   0.011  51.257  1.00  0.00    -0.060 A 
HETATM   26  C19 UNL     1      17.674   0.460  50.029  1.00  0.00     0.048 C 
HETATM   27  C20 UNL     1      19.724   0.340  51.434  1.00  0.00     0.038 A 
ENDBRANCH   9  21
TORSDOF 4
ENDMDL
MODEL 4
REMARK VINA RESULT:      -9.2      2.567      8.494
REMARK  4 active torsions:
REMARK  status: ('A' for Active; 'I' for Inactive)
REMARK    1  A    between atoms: C7_8  and  C8_9 
REMARK    2  A    between atoms: C8_9  and  N1_10 
REMARK    3  A    between atoms: N1_10  and  C9_11 
REMARK    4  A    between atoms: N5_19  and  C14_20 
ROOT
HETATM    1  C9  UNL     1      24.002   2.488  52.838  1.00  0.00     0.140 A 
HETATM    2  N2  UNL     1      23.373   3.572  52.365  1.00  0.00    -0.224 NA
HETATM    3  C10 UNL     1      22.080   3.577  52.011  1.00  0.00     0.237 A 
HETATM    4  N3  UNL     1      21.342   2.463  52.120  1.00  0.00    -0.221 NA
HETATM    5  C11 UNL     1      21.865   1.328  52.581  1.00  0.00     0.168 A 
HETATM    6  C12 UNL     1      23.210   1.349  52.941  1.00  0.00     0.077 A 
HETATM    7  C13 UNL     1      23.475   0.078  53.368  1.00  0.00     0.158 A 
HETATM    8  N4  UNL     1      22.366  -0.685  53.280  1.00  0.00    -0.177 NA
HETATM    9  N5  UNL     1      21.365   0.073  52.795  1.00  0.00    -0.215 N 
ENDROOT
BRANCH   1  10
HETATM   10  N1  UNL     1      25.391   2.499  53.234  1.00  0.00    -0.373 N 
HETATM   11  H8  UNL     1      25.589   2.748  54.209  1.00  0.00     0.161 HD
BRANCH  10  12
HETATM   12  C8  UNL     1      26.321   2.154  52.202  1.00  0.00     0.135 C 
BRANCH  12  13
HETATM   13  C7  UNL     1      27.009   0.869  52.553  1.00  0.00     0.032 A 
HETATM   14  C4  UNL     1      28.107   0.021  53.402  1.00  0.00     0.069 A 
HETATM   15  C3  UNL     1      29.082  -0.467  54.148  1.00  0.00     0.040 A 
HETATM   16  O1  UNL     1      27.941  -1.598  53.325  1.00  0.00    -0.379 OA
HETATM   17  C2  UNL     1      28.926   0.913  54.012  1.00  0.00     0.011 A 
HETATM   18  C6  UNL     1      27.761   0.301  53.135  1.00  0.00     0.035 A 
HETATM   19  C5  UNL     1      26.894  -1.114  52.447  1.00  0.00     0.183 A 
HETATM   20  C1  UNL     1      29.565   1.954  54.470  1.00  0.00     0.015 C 
ENDBRANCH  12  13
ENDBRANCH  10  12
ENDBRANCH   1  10
BRANCH   9  21
HETATM   21  C14 UNL     1      19.977  -0.157  52.479  1.00  0.00     0.061 A 
HETATM   22  C15 UNL     1      19.328  -0.890  53.466  1.00  0.00     0.032 A 
HETATM   23  C16 UNL     1      17.986  -1.215  53.315  1.00  0.00     0.003 A 
HETATM   24  C17 UNL     1      17.326  -0.793  52.167  1.00  0.00     0.007 A 
HETATM   25  C18 UNL     1      17.983  -0.053  51.172  1.00  0.00    -0.060 A 
HETATM   26  C19 UNL     1      17.285   0.400  49.934  1.00  0.00     0.048 C 
HETATM   27  C20 UNL     1      19.321   0.253  51.357  1.00  0.00     0.038 A 
ENDBRANCH   9  21
TORSDOF 4
ENDMDL
MODEL 5
REMARK VINA RESULT:      -9.0      1.212      1.675
REMARK  4 active torsions:
REMARK  status: ('A' for Active; 'I' for Inactive)
REMARK    1  A    between atoms: C7_8  and  C8_9 
REMARK    2  A    between atoms: C8_9  and  N1_10 
REMARK    3  A    between atoms: N1_10  and  C9_11 
REMARK    4  A    between atoms: N5_19  and  C14_20 
ROOT
HETATM    1  C9  UNL     1      21.667   0.161  53.492  1.00  0.00     0.140 A 
HETATM    2  N2  UNL     1      21.694  -0.691  54.525  1.00  0.00    -0.224 NA
HETATM    3  C10 UNL     1      22.828  -1.177  55.050  1.00  0.00     0.237 A 
HETATM    4  N3  UNL     1      24.017  -0.819  54.546  1.00  0.00    -0.221 NA
HETATM    5  C11 UNL     1      24.109   0.025  53.518  1.00  0.00     0.168 A 
HETATM    6  C12 UNL     1      22.916   0.515  52.992  1.00  0.00     0.077 A 
HETATM    7  C13 UNL     1      23.300   1.337  51.970  1.00  0.00     0.158 A 
HETATM    8  N4  UNL     1      24.646   1.358  51.868  1.00  0.00    -0.177 NA
HETATM    9  N5  UNL     1      25.157   0.552  52.817  1.00  0.00    -0.215 N 
ENDROOT
BRANCH   1  10
HETATM   10  N1  UNL     1      20.440   0.693  52.947  1.00  0.00    -0.373 N 
HETATM   11  H8  UNL     1      19.946   1.386  53.519  1.00  0.00     0.161 HD
BRANCH  10  12
HETATM   12  C8  UNL     1      20.071   0.181  51.662  1.00  0.00     0.135 C 
BRANCH  12  13
HETATM   13  C7  UNL     1      18.579   0.069  51.573  1.00  0.00     0.032 A 
HETATM   14  C4  UNL     1      17.158  -0.536  52.082  1.00  0.00     0.069 A 
HETATM   15  C3  UNL     1      16.129  -1.175  52.610  1.00  0.00     0.040 A 
HETATM   16  O1  UNL     1      15.836   0.222  51.505  1.00  0.00    -0.379 OA
HETATM   17  C2  UNL     1      17.432  -1.568  52.918  1.00  0.00     0.011 A 
HETATM   18  C6  UNL     1      17.617  -0.350  51.926  1.00  0.00     0.035 A 
HETATM   19  C5  UNL     1      16.929   0.916  50.853  1.00  0.00     0.183 A 
HETATM   20  C1  UNL     1      17.952  -2.505  53.662  1.00  0.00     0.015 C 
ENDBRANCH  12  13
ENDBRANCH  10  12
ENDBRANCH   1  10
BRANCH   9  21
HETATM   21  C14 UNL     1      26.489   0.163  53.209  1.00  0.00     0.061 A 
HETATM   22  C15 UNL     1      27.137   1.159  53.930  1.00  0.00     0.032 A 
HETATM   23  C16 UNL     1      28.437   0.956  54.374  1.00  0.00     0.003 A 
HETATM   24  C17 UNL     1      29.057  -0.253  54.082  1.00  0.00     0.007 A 
HETATM   25  C18 UNL     1      28.401  -1.258  53.354  1.00  0.00    -0.060 A 
HETATM   26  C19 UNL     1      29.059  -2.556  53.030  1.00  0.00     0.048 C 
HETATM   27  C20 UNL     1      27.105  -1.020  52.928  1.00  0.00     0.038 A 
ENDBRANCH   9  21
TORSDOF 4
ENDMDL
MODEL 6
REMARK VINA RESULT:      -9.0      2.479      3.572
REMARK  4 active torsions:
REMARK  status: ('A' for Active; 'I' for Inactive)
REMARK    1  A    between atoms: C7_8  and  C8_9 
REMARK    2  A    between atoms: C8_9  and  N1_10 
REMARK    3  A    between atoms: N1_10  and  C9_11 
REMARK    4  A    between atoms: N5_19  and  C14_20 
ROOT
HETATM    1  C9  UNL     1      22.200   0.537  52.698  1.00  0.00     0.140 A 
HETATM    2  N2  UNL     1      22.139  -0.336  53.712  1.00  0.00    -0.224 NA
HETATM    3  C10 UNL     1      23.225  -0.821  54.332  1.00  0.00     0.237 A 
HETATM    4  N3  UNL     1      24.452  -0.440  53.950  1.00  0.00    -0.221 NA
HETATM    5  C11 UNL     1      24.630   0.426  52.953  1.00  0.00     0.168 A 
HETATM    6  C12 UNL     1      23.486   0.915  52.326  1.00  0.00     0.077 A 
HETATM    7  C13 UNL     1      23.955   1.763  51.362  1.00  0.00     0.158 A 
HETATM    8  N4  UNL     1      25.304   1.800  51.388  1.00  0.00    -0.177 NA
HETATM    9  N5  UNL     1      25.733   0.980  52.365  1.00  0.00    -0.215 N 
ENDROOT
BRANCH   1  10
HETATM   10  N1  UNL     1      21.023   1.067  52.050  1.00  0.00    -0.373 N 
HETATM   11  H8  UNL     1      20.768   0.650  51.148  1.00  0.00     0.161 HD
BRANCH  10  12
HETATM   12  C8  UNL     1      20.356   2.115  52.761  1.00  0.00     0.135 C 
BRANCH  12  13
HETATM   13  C7  UNL     1      20.387   3.375  51.949  1.00  0.00     0.032 A 
HETATM   14  C4  UNL     1      21.146   4.705  51.404  1.00  0.00     0.069 A 
HETATM   15  C3  UNL     1      21.915   5.742  51.121  1.00  0.00     0.040 A 
HETATM   16  O1  UNL     1      20.409   5.464  50.164  1.00  0.00    -0.379 OA
HETATM   17  C2  UNL     1      22.274   4.860  52.140  1.00  0.00     0.011 A 
HETATM   18  C6  UNL     1      20.912   4.279  51.585  1.00  0.00     0.035 A 
HETATM   19  C5  UNL     1      19.502   4.378  50.476  1.00  0.00     0.183 A 
HETATM   20  C1  UNL     1      23.270   4.791  52.979  1.00  0.00     0.015 C 
ENDBRANCH  12  13
ENDBRANCH  10  12
ENDBRANCH   1  10
BRANCH   9  21
HETATM   21  C14 UNL     1      27.027   0.597  52.874  1.00  0.00     0.061 A 
HETATM   22  C15 UNL     1      27.717   1.672  53.420  1.00  0.00     0.032 A 
HETATM   23  C16 UNL     1      28.988   1.483  53.944  1.00  0.00     0.003 A 
HETATM   24  C17 UNL     1      29.539   0.207  53.906  1.00  0.00     0.007 A 
HETATM   25  C18 UNL     1      28.841  -0.878  53.355  1.00  0.00    -0.060 A 
HETATM   26  C19 UNL     1      29.424  -2.249  53.304  1.00  0.00     0.048 C 
HETATM   27  C20 UNL     1      27.574  -0.651  52.842  1.00  0.00     0.038 A 
ENDBRANCH   9  21
TORSDOF 4
ENDMDL
MODEL 7
REMARK VINA RESULT:      -8.9      4.449      8.432
REMARK  4 active torsions:
REMARK  status: ('A' for Active; 'I' for Inactive)
REMARK    1  A    between atoms: C7_8  and  C8_9 
REMARK    2  A    between atoms: C8_9  and  N1_10 
REMARK    3  A    between atoms: N1_10  and  C9_11 
REMARK    4  A    between atoms: N5_19  and  C14_20 
ROOT
HETATM    1  C9  UNL     1      26.144   2.436  51.436  1.00  0.00     0.140 A 
HETATM    2  N2  UNL     1      26.817   1.303  51.679  1.00  0.00    -0.224 NA
HETATM    3  C10 UNL     1      26.251   0.212  52.215  1.00  0.00     0.237 A 
HETATM    4  N3  UNL     1      24.950   0.211  52.537  1.00  0.00    -0.221 NA
HETATM    5  C11 UNL     1      24.185   1.283  52.337  1.00  0.00     0.168 A 
HETATM    6  C12 UNL     1      24.798   2.403  51.780  1.00  0.00     0.077 A 
HETATM    7  C13 UNL     1      23.801   3.334  51.689  1.00  0.00     0.158 A 
HETATM    8  N4  UNL     1      22.642   2.825  52.159  1.00  0.00    -0.177 NA
HETATM    9  N5  UNL     1      22.866   1.561  52.562  1.00  0.00    -0.215 N 
ENDROOT
BRANCH   1  10
HETATM   10  N1  UNL     1      26.761   3.599  50.841  1.00  0.00    -0.373 N 
HETATM   11  H8  UNL     1      27.194   4.269  51.486  1.00  0.00     0.161 HD
BRANCH  10  12
HETATM   12  C8  UNL     1      26.689   3.664  49.413  1.00  0.00     0.135 C 
BRANCH  12  13
HETATM   13  C7  UNL     1      26.688   5.097  48.972  1.00  0.00     0.032 A 
HETATM   14  C4  UNL     1      27.402   6.374  48.265  1.00  0.00     0.069 A 
HETATM   15  C3  UNL     1      28.171   7.291  47.703  1.00  0.00     0.040 A 
HETATM   16  O1  UNL     1      26.412   7.625  47.934  1.00  0.00    -0.379 OA
HETATM   17  C2  UNL     1      28.712   6.067  48.099  1.00  0.00     0.011 A 
HETATM   18  C6  UNL     1      27.184   5.961  48.490  1.00  0.00     0.035 A 
HETATM   19  C5  UNL     1      25.541   6.678  48.600  1.00  0.00     0.183 A 
HETATM   20  C1  UNL     1      29.906   5.543  48.063  1.00  0.00     0.015 C 
ENDBRANCH  12  13
ENDBRANCH  10  12
ENDBRANCH   1  10
BRANCH   9  21
HETATM   21  C14 UNL     1      22.052   0.521  53.143  1.00  0.00     0.061 A 
HETATM   22  C15 UNL     1      22.770  -0.276  54.027  1.00  0.00     0.032 A 
HETATM   23  C16 UNL     1      22.142  -1.337  54.665  1.00  0.00     0.003 A 
HETATM   24  C17 UNL     1      20.799  -1.573  54.398  1.00  0.00     0.007 A 
HETATM   25  C18 UNL     1      20.076  -0.768  53.504  1.00  0.00    -0.060 A 
HETATM   26  C19 UNL     1      18.636  -1.015  53.206  1.00  0.00     0.048 C 
HETATM   27  C20 UNL     1      20.735   0.283  52.886  1.00  0.00     0.038 A 
ENDBRANCH   9  21
TORSDOF 4
ENDMDL
MODEL 8
REMARK VINA RESULT:      -8.7      4.474      6.425
REMARK  4 active torsions:
REMARK  status: ('A' for Active; 'I' for Inactive)
REMARK    1  A    between atoms: C7_8  and  C8_9 
REMARK    2  A    between atoms: C8_9  and  N1_10 
REMARK    3  A    between atoms: N1_10  and  C9_11 
REMARK    4  A    between atoms: N5_19  and  C14_20 
ROOT
HETATM    1  C9  UNL     1      24.908   2.326  52.740  1.00  0.00     0.140 A 
HETATM    2  N2  UNL     1      23.781   2.944  53.117  1.00  0.00    -0.224 NA
HETATM    3  C10 UNL     1      23.267   3.999  52.468  1.00  0.00     0.237 A 
HETATM    4  N3  UNL     1      23.880   4.492  51.383  1.00  0.00    -0.221 NA
HETATM    5  C11 UNL     1      25.007   3.955  50.918  1.00  0.00     0.168 A 
HETATM    6  C12 UNL     1      25.519   2.860  51.611  1.00  0.00     0.077 A 
HETATM    7  C13 UNL     1      26.655   2.519  50.930  1.00  0.00     0.158 A 
HETATM    8  N4  UNL     1      26.837   3.349  49.881  1.00  0.00    -0.177 NA
HETATM    9  N5  UNL     1      25.828   4.239  49.863  1.00  0.00    -0.215 N 
ENDROOT
BRANCH   1  10
HETATM   10  N1  UNL     1      25.441   1.178  53.436  1.00  0.00    -0.373 N 
HETATM   11  H8  UNL     1      26.103   1.369  54.196  1.00  0.00     0.161 HD
BRANCH  10  12
HETATM   12  C8  UNL     1      24.968  -0.090  52.971  1.00  0.00     0.135 C 
BRANCH  12  13
HETATM   13  C7  UNL     1      23.736  -0.479  53.733  1.00  0.00     0.032 A 
HETATM   14  C4  UNL     1      22.134  -0.739  53.821  1.00  0.00     0.069 A 
HETATM   15  C3  UNL     1      20.823  -0.844  53.696  1.00  0.00     0.040 A 
HETATM   16  O1  UNL     1      21.634  -1.528  55.157  1.00  0.00    -0.379 OA
HETATM   17  C2  UNL     1      21.576  -0.225  52.698  1.00  0.00     0.011 A 
HETATM   18  C6  UNL     1      22.644  -0.652  53.783  1.00  0.00     0.035 A 
HETATM   19  C5  UNL     1      23.059  -1.384  55.370  1.00  0.00     0.183 A 
HETATM   20  C1  UNL     1      21.291   0.345  51.560  1.00  0.00     0.015 C 
ENDBRANCH  12  13
ENDBRANCH  10  12
ENDBRANCH   1  10
BRANCH   9  21
HETATM   21  C14 UNL     1      25.469   5.351  49.017  1.00  0.00     0.061 A 
HETATM   22  C15 UNL     1      26.556   6.168  48.732  1.00  0.00     0.032 A 
HETATM   23  C16 UNL     1      26.384   7.295  47.940  1.00  0.00     0.003 A 
HETATM   24  C17 UNL     1      25.114   7.576  47.450  1.00  0.00     0.007 A 
HETATM   25  C18 UNL     1      24.017   6.750  47.738  1.00  0.00    -0.060 A 
HETATM   26  C19 UNL     1      22.650   7.044  47.223  1.00  0.00     0.048 C 
HETATM   27  C20 UNL     1      24.226   5.633  48.531  1.00  0.00     0.038 A 
ENDBRANCH   9  21
TORSDOF 4
ENDMDL
MODEL 9
REMARK VINA RESULT:      -8.7      4.388      6.269
REMARK  4 active torsions:
REMARK  status: ('A' for Active; 'I' for Inactive)
REMARK    1  A    between atoms: C7_8  and  C8_9 
REMARK    2  A    between atoms: C8_9  and  N1_10 
REMARK    3  A    between atoms: N1_10  and  C9_11 
REMARK    4  A    between atoms: N5_19  and  C14_20 
ROOT
HETATM    1  C9  UNL     1      21.923   2.133  50.682  1.00  0.00     0.140 A 
HETATM    2  N2  UNL     1      21.883   1.731  49.405  1.00  0.00    -0.224 NA
HETATM    3  C10 UNL     1      22.647   2.265  48.441  1.00  0.00     0.237 A 
HETATM    4  N3  UNL     1      23.508   3.252  48.726  1.00  0.00    -0.221 NA
HETATM    5  C11 UNL     1      23.630   3.730  49.964  1.00  0.00     0.168 A 
HETATM    6  C12 UNL     1      22.825   3.158  50.946  1.00  0.00     0.077 A 
HETATM    7  C13 UNL     1      23.151   3.826  52.093  1.00  0.00     0.158 A 
HETATM    8  N4  UNL     1      24.099   4.753  51.841  1.00  0.00    -0.177 NA
HETATM    9  N5  UNL     1      24.403   4.704  50.531  1.00  0.00    -0.215 N 
ENDROOT
BRANCH   1  10
HETATM   10  N1  UNL     1      21.108   1.538  51.716  1.00  0.00    -0.373 N 
HETATM   11  H8  UNL     1      20.702   2.179  52.406  1.00  0.00     0.161 HD
BRANCH  10  12
HETATM   12  C8  UNL     1      20.967   0.116  51.637  1.00  0.00     0.135 C 
BRANCH  12  13
HETATM   13  C7  UNL     1      21.563  -0.518  52.858  1.00  0.00     0.032 A 
HETATM   14  C4  UNL     1      22.779  -0.709  53.920  1.00  0.00     0.069 A 
HETATM   15  C3  UNL     1      23.891  -0.754  54.632  1.00  0.00     0.040 A 
HETATM   16  O1  UNL     1      22.386  -1.507  55.286  1.00  0.00    -0.379 OA
HETATM   17  C2  UNL     1      23.877  -0.115  53.392  1.00  0.00     0.011 A 
HETATM   18  C6  UNL     1      22.398  -0.643  53.575  1.00  0.00     0.035 A 
HETATM   19  C5  UNL     1      21.158  -1.538  54.518  1.00  0.00     0.183 A 
HETATM   20  C1  UNL     1      24.772   0.506  52.675  1.00  0.00     0.015 C 
ENDBRANCH  12  13
ENDBRANCH  10  12
ENDBRANCH   1  10
BRANCH   9  21
HETATM   21  C14 UNL     1      25.311   5.423  49.672  1.00  0.00     0.061 A 
HETATM   22  C15 UNL     1      24.727   6.557  49.120  1.00  0.00     0.032 A 
HETATM   23  C16 UNL     1      25.459   7.359  48.255  1.00  0.00     0.003 A 
HETATM   24  C17 UNL     1      26.769   6.999  47.963  1.00  0.00     0.007 A 
HETATM   25  C18 UNL     1      27.358   5.854  48.520  1.00  0.00    -0.060 A 
HETATM   26  C19 UNL     1      28.760   5.455  48.210  1.00  0.00     0.048 C 
HETATM   27  C20 UNL     1      26.597   5.078  49.381  1.00  0.00     0.038 A 
ENDBRANCH   9  21
TORSDOF 4
ENDMDL
