MODEL 1
REMARK VINA RESULT:      -9.1      0.000      0.000
REMARK  3 active torsions:
REMARK  status: ('A' for Active; 'I' for Inactive)
REMARK    1  A    between atoms: C2_2  and  N1_3 
REMARK    2  A    between atoms: N2_6  and  C5_7 
REMARK    3  A    between atoms: C5_7  and  C6_8 
ROOT
HETATM    1  C6  UNL     1      25.066   2.445  52.131  1.00  0.00    -0.055 C 
HETATM    2  C7  UNL     1      25.635   2.645  50.912  1.00  0.00    -0.018 C 
HETATM    3  C8  UNL     1      26.134   3.066  49.647  1.00  0.00     0.066 C 
HETATM    4  C9  UNL     1      26.227   4.441  49.180  1.00  0.00    -0.047 A 
HETATM    5  C10 UNL     1      27.592   4.676  48.828  1.00  0.00     0.008 A 
HETATM    6  C11 UNL     1      28.197   5.842  48.311  1.00  0.00     0.001 A 
HETATM    7  C12 UNL     1      27.305   6.885  48.138  1.00  0.00     0.001 A 
HETATM    8  C13 UNL     1      25.973   6.717  48.461  1.00  0.00     0.009 A 
HETATM    9  C14 UNL     1      25.427   5.558  48.964  1.00  0.00    -0.039 A 
HETATM   10  C15 UNL     1      23.963   5.606  49.266  1.00  0.00     0.010 A 
HETATM   11  C16 UNL     1      23.179   4.533  48.516  1.00  0.00     0.025 C 
HETATM   12  C17 UNL     1      23.316   6.906  49.340  1.00  0.00     0.046 A 
HETATM   13  C18 UNL     1      23.172   6.691  50.773  1.00  0.00    -0.021 A 
HETATM   14  C19 UNL     1      23.741   5.543  50.756  1.00  0.00    -0.070 A 
HETATM   15  C20 UNL     1      24.237   4.373  51.306  1.00  0.00     0.039 C 
HETATM   16  C21 UNL     1      24.121   3.612  52.526  1.00  0.00     0.040 C 
ENDROOT
BRANCH   1  17
HETATM   17  C5  UNL     1      24.894   1.490  53.236  1.00  0.00     0.306 C 
BRANCH  17  18
HETATM   18  N2  UNL     1      26.051   1.481  54.123  1.00  0.00     0.095 N 
HETATM   19  C4  UNL     1      27.133   2.055  53.368  1.00  0.00     0.303 C 
HETATM   20  C3  UNL     1      28.455   1.369  53.652  1.00  0.00     0.302 C 
HETATM   21  N1  UNL     1      28.465   0.011  53.151  1.00  0.00     0.091 N 
HETATM   22  C23 UNL     1      27.176  -0.575  53.419  1.00  0.00     0.302 C 
HETATM   23  C22 UNL     1      26.411   0.138  54.512  1.00  0.00     0.303 C 
BRANCH  21  24
HETATM   24  C2  UNL     1      29.548  -0.740  53.754  1.00  0.00     0.268 C 
HETATM   25  C1  UNL     1      29.578  -2.185  53.382  1.00  0.00     0.037 C 
ENDBRANCH  21  24
ENDBRANCH  17  18
ENDBRANCH   1  17
TORSDOF 3
ENDMDL
MODEL 2
REMARK VINA RESULT:      -9.0      4.688      6.873
REMARK  3 active torsions:
REMARK  status: ('A' for Active; 'I' for Inactive)
REMARK    1  A    between atoms: C2_2  and  N1_3 
REMARK    2  A    between atoms: N2_6  and  C5_7 
REMARK    3  A    between atoms: C5_7  and  C6_8 
ROOT
HETATM    1  C6  UNL     1      22.886  -0.504  53.686  1.00  0.00    -0.055 C 
HETATM    2  C7  UNL     1      21.574  -0.370  54.018  1.00  0.00    -0.018 C 
HETATM    3  C8  UNL     1      20.166  -0.193  54.137  1.00  0.00     0.066 C 
HETATM    4  C9  UNL     1      19.201  -0.263  53.051  1.00  0.00    -0.047 A 
HETATM    5  C10 UNL     1      18.235  -1.255  53.409  1.00  0.00     0.008 A 
HETATM    6  C11 UNL     1      17.093  -1.690  52.703  1.00  0.00     0.001 A 
HETATM    7  C12 UNL     1      16.920  -1.039  51.495  1.00  0.00     0.001 A 
HETATM    8  C13 UNL     1      17.821  -0.071  51.096  1.00  0.00     0.009 A 
HETATM    9  C14 UNL     1      18.925   0.321  51.819  1.00  0.00    -0.039 A 
HETATM   10  C15 UNL     1      19.780   1.371  51.185  1.00  0.00     0.010 A 
HETATM   11  C16 UNL     1      19.935   2.606  52.069  1.00  0.00     0.025 C 
HETATM   12  C17 UNL     1      19.600   1.644  49.768  1.00  0.00     0.046 A 
HETATM   13  C18 UNL     1      20.909   1.046  49.544  1.00  0.00    -0.021 A 
HETATM   14  C19 UNL     1      21.108   0.782  50.783  1.00  0.00    -0.070 A 
HETATM   15  C20 UNL     1      21.806   0.284  51.869  1.00  0.00     0.039 C 
HETATM   16  C21 UNL     1      23.147  -0.129  52.202  1.00  0.00     0.040 C 
ENDROOT
BRANCH   1  17
HETATM   17  C5  UNL     1      24.235  -0.775  54.203  1.00  0.00     0.306 C 
BRANCH  17  18
HETATM   18  N2  UNL     1      25.265  -0.225  53.328  1.00  0.00     0.095 N 
HETATM   19  C4  UNL     1      26.192  -1.298  53.085  1.00  0.00     0.303 C 
HETATM   20  C3  UNL     1      27.628  -0.812  53.036  1.00  0.00     0.302 C 
HETATM   21  N1  UNL     1      28.077  -0.354  54.333  1.00  0.00     0.091 N 
HETATM   22  C23 UNL     1      26.998   0.376  54.949  1.00  0.00     0.302 C 
HETATM   23  C22 UNL     1      25.967   0.868  53.958  1.00  0.00     0.303 C 
BRANCH  21  24
HETATM   24  C2  UNL     1      29.276   0.447  54.196  1.00  0.00     0.268 C 
HETATM   25  C1  UNL     1      30.372  -0.209  53.424  1.00  0.00     0.037 C 
ENDBRANCH  21  24
ENDBRANCH  17  18
ENDBRANCH   1  17
TORSDOF 3
ENDMDL
MODEL 3
REMARK VINA RESULT:      -8.7      2.906      4.277
REMARK  3 active torsions:
REMARK  status: ('A' for Active; 'I' for Inactive)
REMARK    1  A    between atoms: C2_2  and  N1_3 
REMARK    2  A    between atoms: N2_6  and  C5_7 
REMARK    3  A    between atoms: C5_7  and  C6_8 
ROOT
HETATM    1  C6  UNL     1      24.367   3.028  51.775  1.00  0.00    -0.055 C 
HETATM    2  C7  UNL     1      25.038   3.127  50.595  1.00  0.00    -0.018 C 
HETATM    3  C8  UNL     1      25.709   3.461  49.385  1.00  0.00     0.066 C 
HETATM    4  C9  UNL     1      26.226   4.774  49.029  1.00  0.00    -0.047 A 
HETATM    5  C10 UNL     1      27.618   4.615  48.744  1.00  0.00     0.008 A 
HETATM    6  C11 UNL     1      28.567   5.580  48.341  1.00  0.00     0.001 A 
HETATM    7  C12 UNL     1      28.031   6.849  48.217  1.00  0.00     0.001 A 
HETATM    8  C13 UNL     1      26.693   7.063  48.479  1.00  0.00     0.009 A 
HETATM    9  C14 UNL     1      25.803   6.089  48.872  1.00  0.00    -0.039 A 
HETATM   10  C15 UNL     1      24.403   6.549  49.126  1.00  0.00     0.010 A 
HETATM   11  C16 UNL     1      23.382   5.807  48.267  1.00  0.00     0.025 C 
HETATM   12  C17 UNL     1      24.162   7.976  49.277  1.00  0.00     0.046 A 
HETATM   13  C18 UNL     1      23.881   7.722  50.684  1.00  0.00    -0.021 A 
HETATM   14  C19 UNL     1      24.089   6.460  50.597  1.00  0.00    -0.070 A 
HETATM   15  C20 UNL     1      24.188   5.164  51.073  1.00  0.00     0.039 C 
HETATM   16  C21 UNL     1      23.786   4.395  52.225  1.00  0.00     0.040 C 
ENDROOT
BRANCH   1  17
HETATM   17  C5  UNL     1      23.861   2.099  52.795  1.00  0.00     0.306 C 
BRANCH  17  18
HETATM   18  N2  UNL     1      23.154   0.974  52.193  1.00  0.00     0.095 N 
HETATM   19  C4  UNL     1      21.911   1.505  51.702  1.00  0.00     0.303 C 
HETATM   20  C3  UNL     1      20.760   0.535  51.894  1.00  0.00     0.302 C 
HETATM   21  N1  UNL     1      20.445   0.357  53.295  1.00  0.00     0.091 N 
HETATM   22  C23 UNL     1      21.684   0.296  54.029  1.00  0.00     0.302 C 
HETATM   23  C22 UNL     1      22.873  -0.057  53.164  1.00  0.00     0.303 C 
BRANCH  21  24
HETATM   24  C2  UNL     1      19.635  -0.830  53.482  1.00  0.00     0.268 C 
HETATM   25  C1  UNL     1      18.330  -0.806  52.759  1.00  0.00     0.037 C 
ENDBRANCH  21  24
ENDBRANCH  17  18
ENDBRANCH   1  17
TORSDOF 3
ENDMDL
MODEL 4
REMARK VINA RESULT:      -8.5      3.266      7.234
REMARK  3 active torsions:
REMARK  status: ('A' for Active; 'I' for Inactive)
REMARK    1  A    between atoms: C2_2  and  N1_3 
REMARK    2  A    between atoms: N2_6  and  C5_7 
REMARK    3  A    between atoms: C5_7  and  C6_8 
ROOT
HETATM    1  C6  UNL     1      24.461   4.328  49.904  1.00  0.00    -0.055 C 
HETATM    2  C7  UNL     1      24.458   3.878  51.188  1.00  0.00    -0.018 C 
HETATM    3  C8  UNL     1      24.320   3.234  52.450  1.00  0.00     0.066 C 
HETATM    4  C9  UNL     1      23.888   1.861  52.666  1.00  0.00    -0.047 A 
HETATM    5  C10 UNL     1      24.915   1.209  53.417  1.00  0.00     0.008 A 
HETATM    6  C11 UNL     1      24.974  -0.119  53.892  1.00  0.00     0.001 A 
HETATM    7  C12 UNL     1      23.856  -0.863  53.559  1.00  0.00     0.001 A 
HETATM    8  C13 UNL     1      22.832  -0.288  52.835  1.00  0.00     0.009 A 
HETATM    9  C14 UNL     1      22.819   1.015  52.391  1.00  0.00    -0.039 A 
HETATM   10  C15 UNL     1      21.616   1.423  51.601  1.00  0.00     0.010 A 
HETATM   11  C16 UNL     1      20.894   2.619  52.217  1.00  0.00     0.025 C 
HETATM   12  C17 UNL     1      20.748   0.380  51.079  1.00  0.00     0.046 A 
HETATM   13  C18 UNL     1      21.216   0.735  49.746  1.00  0.00    -0.021 A 
HETATM   14  C19 UNL     1      21.999   1.661  50.163  1.00  0.00    -0.070 A 
HETATM   15  C20 UNL     1      22.936   2.672  50.035  1.00  0.00     0.039 C 
HETATM   16  C21 UNL     1      23.482   3.524  49.007  1.00  0.00     0.040 C 
ENDROOT
BRANCH   1  17
HETATM   17  C5  UNL     1      24.960   5.372  48.997  1.00  0.00     0.306 C 
BRANCH  17  18
HETATM   18  N2  UNL     1      26.164   6.007  49.522  1.00  0.00     0.095 N 
HETATM   19  C4  UNL     1      25.731   7.240  50.124  1.00  0.00     0.303 C 
HETATM   20  C3  UNL     1      26.722   8.365  49.897  1.00  0.00     0.302 C 
HETATM   21  N1  UNL     1      26.778   8.749  48.503  1.00  0.00     0.091 N 
HETATM   22  C23 UNL     1      26.720   7.550  47.705  1.00  0.00     0.302 C 
HETATM   23  C22 UNL     1      27.108   6.305  48.470  1.00  0.00     0.303 C 
BRANCH  21  24
HETATM   24  C2  UNL     1      27.972   9.527  48.242  1.00  0.00     0.268 C 
HETATM   25  C1  UNL     1      29.041   9.380  49.273  1.00  0.00     0.037 C 
ENDBRANCH  21  24
ENDBRANCH  17  18
ENDBRANCH   1  17
TORSDOF 3
ENDMDL
MODEL 5
REMARK VINA RESULT:      -8.4      2.828      7.831
REMARK  3 active torsions:
REMARK  status: ('A' for Active; 'I' for Inactive)
REMARK    1  A    between atoms: C2_2  and  N1_3 
REMARK    2  A    between atoms: N2_6  and  C5_7 
REMARK    3  A    between atoms: C5_7  and  C6_8 
ROOT
HETATM    1  C6  UNL     1      23.446   3.539  51.659  1.00  0.00    -0.055 C 
HETATM    2  C7  UNL     1      23.020   2.248  51.701  1.00  0.00    -0.018 C 
HETATM    3  C8  UNL     1      22.732   0.870  51.915  1.00  0.00     0.066 C 
HETATM    4  C9  UNL     1      23.105   0.090  53.085  1.00  0.00    -0.047 A 
HETATM    5  C10 UNL     1      21.902  -0.466  53.622  1.00  0.00     0.008 A 
HETATM    6  C11 UNL     1      21.725  -1.305  54.743  1.00  0.00     0.001 A 
HETATM    7  C12 UNL     1      22.911  -1.609  55.387  1.00  0.00     0.001 A 
HETATM    8  C13 UNL     1      24.104  -1.100  54.914  1.00  0.00     0.009 A 
HETATM    9  C14 UNL     1      24.229  -0.282  53.814  1.00  0.00    -0.039 A 
HETATM   10  C15 UNL     1      25.617   0.172  53.493  1.00  0.00     0.010 A 
HETATM   11  C16 UNL     1      26.043  -0.213  52.079  1.00  0.00     0.025 C 
HETATM   12  C17 UNL     1      26.646   0.019  54.511  1.00  0.00     0.046 A 
HETATM   13  C18 UNL     1      26.657   1.470  54.638  1.00  0.00    -0.021 A 
HETATM   14  C19 UNL     1      25.749   1.651  53.751  1.00  0.00    -0.070 A 
HETATM   15  C20 UNL     1      24.883   2.394  52.968  1.00  0.00     0.039 C 
HETATM   16  C21 UNL     1      24.700   3.762  52.546  1.00  0.00     0.040 C 
ENDROOT
BRANCH   1  17
HETATM   17  C5  UNL     1      23.260   4.846  51.014  1.00  0.00     0.306 C 
BRANCH  17  18
HETATM   18  N2  UNL     1      24.526   5.401  50.550  1.00  0.00     0.095 N 
HETATM   19  C4  UNL     1      24.439   6.821  50.765  1.00  0.00     0.303 C 
HETATM   20  C3  UNL     1      25.097   7.609  49.649  1.00  0.00     0.302 C 
HETATM   21  N1  UNL     1      24.368   7.477  48.406  1.00  0.00     0.091 N 
HETATM   22  C23 UNL     1      23.936   6.108  48.282  1.00  0.00     0.302 C 
HETATM   23  C22 UNL     1      24.731   5.151  49.142  1.00  0.00     0.303 C 
BRANCH  21  24
HETATM   24  C2  UNL     1      25.193   7.897  47.291  1.00  0.00     0.268 C 
HETATM   25  C1  UNL     1      26.657   7.694  47.496  1.00  0.00     0.037 C 
ENDBRANCH  21  24
ENDBRANCH  17  18
ENDBRANCH   1  17
TORSDOF 3
ENDMDL
MODEL 6
REMARK VINA RESULT:      -8.4      2.486      4.352
REMARK  3 active torsions:
REMARK  status: ('A' for Active; 'I' for Inactive)
REMARK    1  A    between atoms: C2_2  and  N1_3 
REMARK    2  A    between atoms: N2_6  and  C5_7 
REMARK    3  A    between atoms: C5_7  and  C6_8 
ROOT
HETATM    1  C6  UNL     1      24.138   3.422  49.715  1.00  0.00    -0.055 C 
HETATM    2  C7  UNL     1      23.616   4.623  49.346  1.00  0.00    -0.018 C 
HETATM    3  C8  UNL     1      23.285   5.928  48.884  1.00  0.00     0.066 C 
HETATM    4  C9  UNL     1      24.065   6.728  47.952  1.00  0.00    -0.047 A 
HETATM    5  C10 UNL     1      23.203   7.063  46.861  1.00  0.00     0.008 A 
HETATM    6  C11 UNL     1      23.473   7.832  45.708  1.00  0.00     0.001 A 
HETATM    7  C12 UNL     1      24.771   8.311  45.667  1.00  0.00     0.001 A 
HETATM    8  C13 UNL     1      25.648   8.020  46.693  1.00  0.00     0.009 A 
HETATM    9  C14 UNL     1      25.339   7.262  47.800  1.00  0.00    -0.039 A 
HETATM   10  C15 UNL     1      26.452   7.053  48.777  1.00  0.00     0.010 A 
HETATM   11  C16 UNL     1      26.094   7.540  50.179  1.00  0.00     0.025 C 
HETATM   12  C17 UNL     1      27.811   7.347  48.350  1.00  0.00     0.046 A 
HETATM   13  C18 UNL     1      28.074   5.916  48.391  1.00  0.00    -0.021 A 
HETATM   14  C19 UNL     1      26.886   5.610  48.764  1.00  0.00    -0.070 A 
HETATM   15  C20 UNL     1      25.859   4.754  49.121  1.00  0.00     0.039 C 
HETATM   16  C21 UNL     1      25.681   3.387  49.545  1.00  0.00     0.040 C 
ENDROOT
BRANCH   1  17
HETATM   17  C5  UNL     1      23.842   2.119  50.327  1.00  0.00     0.306 C 
BRANCH  17  18
HETATM   18  N2  UNL     1      24.036   2.149  51.772  1.00  0.00     0.095 N 
HETATM   19  C4  UNL     1      24.958   1.086  52.070  1.00  0.00     0.303 C 
HETATM   20  C3  UNL     1      24.616   0.380  53.368  1.00  0.00     0.302 C 
HETATM   21  N1  UNL     1      23.377  -0.359  53.259  1.00  0.00     0.091 N 
HETATM   22  C23 UNL     1      22.444   0.439  52.503  1.00  0.00     0.302 C 
HETATM   23  C22 UNL     1      22.799   1.909  52.478  1.00  0.00     0.303 C 
BRANCH  21  24
HETATM   24  C2  UNL     1      22.873  -0.695  54.575  1.00  0.00     0.268 C 
HETATM   25  C1  UNL     1      21.431  -1.079  54.604  1.00  0.00     0.037 C 
ENDBRANCH  21  24
ENDBRANCH  17  18
ENDBRANCH   1  17
TORSDOF 3
ENDMDL
MODEL 7
REMARK VINA RESULT:      -8.3      2.901      3.341
REMARK  3 active torsions:
REMARK  status: ('A' for Active; 'I' for Inactive)
REMARK    1  A    between atoms: C2_2  and  N1_3 
REMARK    2  A    between atoms: N2_6  and  C5_7 
REMARK    3  A    between atoms: C5_7  and  C6_8 
ROOT
HETATM    1  C6  UNL     1      24.184   2.696  52.452  1.00  0.00    -0.055 C 
HETATM    2  C7  UNL     1      23.433   2.194  51.435  1.00  0.00    -0.018 C 
HETATM    3  C8  UNL     1      22.587   1.892  50.331  1.00  0.00     0.066 C 
HETATM    4  C9  UNL     1      22.118   2.837  49.329  1.00  0.00    -0.047 A 
HETATM    5  C10 UNL     1      22.515   2.330  48.053  1.00  0.00     0.008 A 
HETATM    6  C11 UNL     1      22.293   2.866  46.766  1.00  0.00     0.001 A 
HETATM    7  C12 UNL     1      21.586   4.055  46.788  1.00  0.00     0.001 A 
HETATM    8  C13 UNL     1      21.176   4.593  47.991  1.00  0.00     0.009 A 
HETATM    9  C14 UNL     1      21.417   4.034  49.226  1.00  0.00    -0.039 A 
HETATM   10  C15 UNL     1      20.901   4.801  50.401  1.00  0.00     0.010 A 
HETATM   11  C16 UNL     1      19.948   3.975  51.262  1.00  0.00     0.025 C 
HETATM   12  C17 UNL     1      20.509   6.187  50.202  1.00  0.00     0.046 A 
HETATM   13  C18 UNL     1      21.666   6.571  50.999  1.00  0.00    -0.021 A 
HETATM   14  C19 UNL     1      22.052   5.364  51.196  1.00  0.00    -0.070 A 
HETATM   15  C20 UNL     1      22.881   4.370  51.686  1.00  0.00     0.039 C 
HETATM   16  C21 UNL     1      23.920   4.209  52.673  1.00  0.00     0.040 C 
ENDROOT
BRANCH   1  17
HETATM   17  C5  UNL     1      25.113   2.358  53.540  1.00  0.00     0.306 C 
BRANCH  17  18
HETATM   18  N2  UNL     1      25.780   1.084  53.300  1.00  0.00     0.095 N 
HETATM   19  C4  UNL     1      26.253   0.637  54.583  1.00  0.00     0.303 C 
HETATM   20  C3  UNL     1      27.607  -0.040  54.489  1.00  0.00     0.302 C 
HETATM   21  N1  UNL     1      28.646   0.900  54.129  1.00  0.00     0.091 N 
HETATM   22  C23 UNL     1      28.117   1.792  53.128  1.00  0.00     0.302 C 
HETATM   23  C22 UNL     1      26.908   1.234  52.411  1.00  0.00     0.303 C 
BRANCH  21  24
HETATM   24  C2  UNL     1      29.826   0.196  53.671  1.00  0.00     0.268 C 
HETATM   25  C1  UNL     1      29.628  -1.268  53.461  1.00  0.00     0.037 C 
ENDBRANCH  21  24
ENDBRANCH  17  18
ENDBRANCH   1  17
TORSDOF 3
ENDMDL
MODEL 8
REMARK VINA RESULT:      -8.3      6.881     10.228
REMARK  3 active torsions:
REMARK  status: ('A' for Active; 'I' for Inactive)
REMARK    1  A    between atoms: C2_2  and  N1_3 
REMARK    2  A    between atoms: N2_6  and  C5_7 
REMARK    3  A    between atoms: C5_7  and  C6_8 
ROOT
HETATM    1  C6  UNL     1      18.360   2.954  51.570  1.00  0.00    -0.055 C 
HETATM    2  C7  UNL     1      18.778   1.664  51.677  1.00  0.00    -0.018 C 
HETATM    3  C8  UNL     1      19.421   0.405  51.850  1.00  0.00     0.066 C 
HETATM    4  C9  UNL     1      20.659   0.171  52.578  1.00  0.00    -0.047 A 
HETATM    5  C10 UNL     1      20.380  -0.808  53.582  1.00  0.00     0.008 A 
HETATM    6  C11 UNL     1      21.244  -1.384  54.537  1.00  0.00     0.001 A 
HETATM    7  C12 UNL     1      22.539  -0.904  54.458  1.00  0.00     0.001 A 
HETATM    8  C13 UNL     1      22.868   0.043  53.508  1.00  0.00     0.009 A 
HETATM    9  C14 UNL     1      21.989   0.579  52.595  1.00  0.00    -0.039 A 
HETATM   10  C15 UNL     1      22.556   1.610  51.672  1.00  0.00     0.010 A 
HETATM   11  C16 UNL     1      22.381   1.234  50.203  1.00  0.00     0.025 C 
HETATM   12  C17 UNL     1      23.838   2.207  52.009  1.00  0.00     0.046 A 
HETATM   13  C18 UNL     1      23.127   3.450  52.274  1.00  0.00    -0.021 A 
HETATM   14  C19 UNL     1      21.975   2.964  51.991  1.00  0.00    -0.070 A 
HETATM   15  C20 UNL     1      20.600   2.989  51.840  1.00  0.00     0.039 C 
HETATM   16  C21 UNL     1      19.536   3.956  51.724  1.00  0.00     0.040 C 
ENDROOT
BRANCH   1  17
HETATM   17  C5  UNL     1      17.219   3.826  51.258  1.00  0.00     0.306 C 
BRANCH  17  18
HETATM   18  N2  UNL     1      15.979   3.067  51.141  1.00  0.00     0.095 N 
HETATM   19  C4  UNL     1      15.038   3.942  50.496  1.00  0.00     0.303 C 
HETATM   20  C3  UNL     1      13.637   3.787  51.057  1.00  0.00     0.302 C 
HETATM   21  N1  UNL     1      13.558   4.261  52.422  1.00  0.00     0.091 N 
HETATM   22  C23 UNL     1      14.754   3.847  53.111  1.00  0.00     0.302 C 
HETATM   23  C22 UNL     1      15.462   2.693  52.437  1.00  0.00     0.303 C 
BRANCH  21  24
HETATM   24  C2  UNL     1      12.355   3.762  53.058  1.00  0.00     0.268 C 
HETATM   25  C1  UNL     1      12.178   4.204  54.473  1.00  0.00     0.037 C 
ENDBRANCH  21  24
ENDBRANCH  17  18
ENDBRANCH   1  17
TORSDOF 3
ENDMDL
MODEL 9
REMARK VINA RESULT:      -8.3      3.396      8.509
REMARK  3 active torsions:
REMARK  status: ('A' for Active; 'I' for Inactive)
REMARK    1  A    between atoms: C2_2  and  N1_3 
REMARK    2  A    between atoms: N2_6  and  C5_7 
REMARK    3  A    between atoms: C5_7  and  C6_8 
ROOT
HETATM    1  C6  UNL     1      23.235   3.259  50.966  1.00  0.00    -0.055 C 
HETATM    2  C7  UNL     1      22.865   1.967  51.178  1.00  0.00    -0.018 C 
HETATM    3  C8  UNL     1      22.630   0.620  51.577  1.00  0.00     0.066 C 
HETATM    4  C9  UNL     1      22.986   0.035  52.860  1.00  0.00    -0.047 A 
HETATM    5  C10 UNL     1      21.787  -0.499  53.427  1.00  0.00     0.008 A 
HETATM    6  C11 UNL     1      21.598  -1.179  54.649  1.00  0.00     0.001 A 
HETATM    7  C12 UNL     1      22.766  -1.327  55.374  1.00  0.00     0.001 A 
HETATM    8  C13 UNL     1      23.956  -0.832  54.878  1.00  0.00     0.009 A 
HETATM    9  C14 UNL     1      24.092  -0.173  53.677  1.00  0.00    -0.039 A 
HETATM   10  C15 UNL     1      25.472   0.301  53.347  1.00  0.00     0.010 A 
HETATM   11  C16 UNL     1      25.977  -0.258  52.019  1.00  0.00     0.025 C 
HETATM   12  C17 UNL     1      26.459   0.347  54.413  1.00  0.00     0.046 A 
HETATM   13  C18 UNL     1      26.400   1.800  54.331  1.00  0.00    -0.021 A 
HETATM   14  C19 UNL     1      25.525   1.807  53.393  1.00  0.00    -0.070 A 
HETATM   15  C20 UNL     1      24.662   2.386  52.479  1.00  0.00     0.039 C 
HETATM   16  C21 UNL     1      24.437   3.669  51.859  1.00  0.00     0.040 C 
ENDROOT
BRANCH   1  17
HETATM   17  C5  UNL     1      23.018   4.450  50.133  1.00  0.00     0.306 C 
BRANCH  17  18
HETATM   18  N2  UNL     1      22.023   5.341  50.719  1.00  0.00     0.095 N 
HETATM   19  C4  UNL     1      20.926   5.374  49.789  1.00  0.00     0.303 C 
HETATM   20  C3  UNL     1      20.304   6.754  49.688  1.00  0.00     0.302 C 
HETATM   21  N1  UNL     1      21.211   7.700  49.074  1.00  0.00     0.091 N 
HETATM   22  C23 UNL     1      22.536   7.446  49.580  1.00  0.00     0.302 C 
HETATM   23  C22 UNL     1      22.540   6.679  50.884  1.00  0.00     0.303 C 
BRANCH  21  24
HETATM   24  C2  UNL     1      20.773   9.057  49.332  1.00  0.00     0.268 C 
HETATM   25  C1  UNL     1      19.520   9.159  50.136  1.00  0.00     0.037 C 
ENDBRANCH  21  24
ENDBRANCH  17  18
ENDBRANCH   1  17
TORSDOF 3
ENDMDL
