MODEL 1
REMARK VINA RESULT:      -9.5      0.000      0.000
REMARK  5 active torsions:
REMARK  status: ('A' for Active; 'I' for Inactive)
REMARK    1  A    between atoms: C1_2  and  N1_3 
REMARK    2  A    between atoms: N1_3  and  C2_4 
REMARK    3  A    between atoms: C2_4  and  C3_5 
REMARK    4  A    between atoms: N3_24  and  C21_25 
REMARK    5  A    between atoms: C21_25  and  C22_26 
ROOT
HETATM    1  C3  UNL     1      23.300   0.657  52.434  1.00  0.00    -0.047 A 
HETATM    2  C4  UNL     1      24.358   0.485  53.206  1.00  0.00     0.020 A 
HETATM    3  C5  UNL     1      25.646   1.145  53.307  1.00  0.00     0.001 A 
HETATM    4  C6  UNL     1      26.831   1.044  53.833  1.00  0.00    -0.019 C 
HETATM    5  C7  UNL     1      27.349  -0.036  54.661  1.00  0.00     0.010 C 
HETATM    6  C8  UNL     1      28.659   0.090  54.959  1.00  0.00     0.001 C 
HETATM    7  C9  UNL     1      29.427   1.243  54.503  1.00  0.00    -0.002 C 
HETATM    8  C10 UNL     1      28.910   2.277  53.811  1.00  0.00     0.003 C 
HETATM    9  C11 UNL     1      27.505   2.311  53.502  1.00  0.00     0.139 C 
HETATM   10  N2  UNL     1      26.997   2.836  52.296  1.00  0.00    -0.376 N 
HETATM   11  C12 UNL     1      25.688   2.229  52.279  1.00  0.00     0.064 A 
HETATM   12  C13 UNL     1      24.636   2.473  51.489  1.00  0.00     0.052 A 
HETATM   13  C14 UNL     1      23.356   1.780  51.532  1.00  0.00     0.104 A 
HETATM   14  C15 UNL     1      22.677   1.824  50.270  1.00  0.00    -0.017 A 
HETATM   15  C16 UNL     1      21.621   1.247  49.623  1.00  0.00     0.010 A 
HETATM   16  C17 UNL     1      21.121   1.636  48.400  1.00  0.00     0.001 A 
HETATM   17  C18 UNL     1      21.745   2.703  47.782  1.00  0.00     0.002 A 
HETATM   18  C19 UNL     1      22.818   3.310  48.407  1.00  0.00     0.030 A 
HETATM   19  C20 UNL     1      23.324   2.901  49.657  1.00  0.00     0.042 A 
HETATM   20  N3  UNL     1      24.513   3.336  50.360  1.00  0.00    -0.346 N 
HETATM   21  H11 UNL     1      27.523   3.469  51.713  1.00  0.00     0.160 HD
ENDROOT
BRANCH   1  22
HETATM   22  C2  UNL     1      22.135  -0.232  52.612  1.00  0.00     0.157 C 
BRANCH  22  23
HETATM   23  N1  UNL     1      21.468   0.008  53.888  1.00  0.00    -0.364 N 
HETATM   24  H2  UNL     1      20.991   0.704  54.499  1.00  0.00     0.162 HD
BRANCH  23  25
HETATM   25  C1  UNL     1      21.452  -1.213  54.616  1.00  0.00     0.348 C 
HETATM   26  O1  UNL     1      22.232  -1.836  55.412  1.00  0.00    -0.284 OA
ENDBRANCH  23  25
ENDBRANCH  22  23
ENDBRANCH   1  22
BRANCH  20  27
HETATM   27  C21 UNL     1      25.353   4.369  49.816  1.00  0.00     0.144 C 
BRANCH  27  28
HETATM   28  C22 UNL     1      26.581   3.748  49.193  1.00  0.00     0.135 C 
HETATM   29 CL1  UNL     1      27.661   5.001  48.533  1.00  0.00    -0.129 Cl
ENDBRANCH  27  28
ENDBRANCH  20  27
TORSDOF 5
ENDMDL
MODEL 2
REMARK VINA RESULT:      -9.0      3.020      5.473
REMARK  5 active torsions:
REMARK  status: ('A' for Active; 'I' for Inactive)
REMARK    1  A    between atoms: C1_2  and  N1_3 
REMARK    2  A    between atoms: N1_3  and  C2_4 
REMARK    3  A    between atoms: C2_4  and  C3_5 
REMARK    4  A    between atoms: N3_24  and  C21_25 
REMARK    5  A    between atoms: C21_25  and  C22_26 
ROOT
HETATM    1  C3  UNL     1      25.271   0.845  52.613  1.00  0.00    -0.047 A 
HETATM    2  C4  UNL     1      25.890   1.739  51.864  1.00  0.00     0.020 A 
HETATM    3  C5  UNL     1      25.481   2.983  51.238  1.00  0.00     0.001 A 
HETATM    4  C6  UNL     1      25.840   3.881  50.369  1.00  0.00    -0.019 C 
HETATM    5  C7  UNL     1      27.044   3.897  49.550  1.00  0.00     0.010 C 
HETATM    6  C8  UNL     1      27.078   4.905  48.654  1.00  0.00     0.001 C 
HETATM    7  C9  UNL     1      26.001   5.886  48.586  1.00  0.00    -0.002 C 
HETATM    8  C10 UNL     1      24.935   5.908  49.411  1.00  0.00     0.003 C 
HETATM    9  C11 UNL     1      24.820   4.939  50.468  1.00  0.00     0.139 C 
HETATM   10  N2  UNL     1      23.587   4.393  50.878  1.00  0.00    -0.376 N 
HETATM   11  C12 UNL     1      24.042   3.210  51.569  1.00  0.00     0.064 A 
HETATM   12  C13 UNL     1      23.369   2.357  52.350  1.00  0.00     0.052 A 
HETATM   13  C14 UNL     1      23.916   1.166  52.984  1.00  0.00     0.104 A 
HETATM   14  C15 UNL     1      22.905   0.183  53.245  1.00  0.00    -0.017 A 
HETATM   15  C16 UNL     1      22.784  -1.130  53.602  1.00  0.00     0.010 A 
HETATM   16  C17 UNL     1      21.605  -1.767  53.924  1.00  0.00     0.001 A 
HETATM   17  C18 UNL     1      20.453  -1.004  53.882  1.00  0.00     0.002 A 
HETATM   18  C19 UNL     1      20.539   0.327  53.523  1.00  0.00     0.030 A 
HETATM   19  C20 UNL     1      21.749   0.968  53.191  1.00  0.00     0.042 A 
HETATM   20  N3  UNL     1      21.978   2.296  52.662  1.00  0.00    -0.346 N 
HETATM   21  H11 UNL     1      22.702   4.834  50.677  1.00  0.00     0.160 HD
ENDROOT
BRANCH   1  22
HETATM   22  C2  UNL     1      26.021  -0.338  53.078  1.00  0.00     0.157 C 
BRANCH  22  23
HETATM   23  N1  UNL     1      26.347  -0.242  54.498  1.00  0.00    -0.364 N 
HETATM   24  H2  UNL     1      25.986  -0.285  55.475  1.00  0.00     0.162 HD
BRANCH  23  25
HETATM   25  C1  UNL     1      27.739   0.019  54.616  1.00  0.00     0.348 C 
HETATM   26  O1  UNL     1      28.479   0.972  55.032  1.00  0.00    -0.284 OA
ENDBRANCH  23  25
ENDBRANCH  22  23
ENDBRANCH   1  22
BRANCH  20  27
HETATM   27  C21 UNL     1      20.881   3.201  52.448  1.00  0.00     0.144 C 
BRANCH  27  28
HETATM   28  C22 UNL     1      20.268   2.942  51.091  1.00  0.00     0.135 C 
HETATM   29 CL1  UNL     1      18.583   2.389  51.251  1.00  0.00    -0.129 Cl
ENDBRANCH  27  28
ENDBRANCH  20  27
TORSDOF 5
ENDMDL
MODEL 3
REMARK VINA RESULT:      -9.0      2.605      5.513
REMARK  5 active torsions:
REMARK  status: ('A' for Active; 'I' for Inactive)
REMARK    1  A    between atoms: C1_2  and  N1_3 
REMARK    2  A    between atoms: N1_3  and  C2_4 
REMARK    3  A    between atoms: C2_4  and  C3_5 
REMARK    4  A    between atoms: N3_24  and  C21_25 
REMARK    5  A    between atoms: C21_25  and  C22_26 
ROOT
HETATM    1  C3  UNL     1      21.878   1.475  50.642  1.00  0.00    -0.047 A 
HETATM    2  C4  UNL     1      22.374   2.460  49.914  1.00  0.00     0.020 A 
HETATM    3  C5  UNL     1      23.679   3.090  49.831  1.00  0.00     0.001 A 
HETATM    4  C6  UNL     1      24.311   4.120  49.352  1.00  0.00    -0.019 C 
HETATM    5  C7  UNL     1      23.757   5.229  48.589  1.00  0.00     0.010 C 
HETATM    6  C8  UNL     1      24.647   6.210  48.332  1.00  0.00     0.001 C 
HETATM    7  C9  UNL     1      26.035   6.097  48.765  1.00  0.00    -0.002 C 
HETATM    8  C10 UNL     1      26.553   5.024  49.395  1.00  0.00     0.003 C 
HETATM    9  C11 UNL     1      25.731   3.871  49.653  1.00  0.00     0.139 C 
HETATM   10  N2  UNL     1      25.855   3.085  50.816  1.00  0.00    -0.376 N 
HETATM   11  C12 UNL     1      24.578   2.412  50.813  1.00  0.00     0.064 A 
HETATM   12  C13 UNL     1      24.144   1.387  51.555  1.00  0.00     0.052 A 
HETATM   13  C14 UNL     1      22.816   0.791  51.497  1.00  0.00     0.104 A 
HETATM   14  C15 UNL     1      22.456   0.158  52.731  1.00  0.00    -0.017 A 
HETATM   15  C16 UNL     1      21.364  -0.366  53.364  1.00  0.00     0.010 A 
HETATM   16  C17 UNL     1      21.386  -1.064  54.552  1.00  0.00     0.001 A 
HETATM   17  C18 UNL     1      22.620  -1.247  55.146  1.00  0.00     0.002 A 
HETATM   18  C19 UNL     1      23.745  -0.729  54.534  1.00  0.00     0.030 A 
HETATM   19  C20 UNL     1      23.712  -0.012  53.321  1.00  0.00     0.042 A 
HETATM   20  N3  UNL     1      24.770   0.706  52.642  1.00  0.00    -0.346 N 
HETATM   21  H11 UNL     1      26.684   3.089  51.391  1.00  0.00     0.160 HD
ENDROOT
BRANCH   1  22
HETATM   22  C2  UNL     1      20.464   1.097  50.460  1.00  0.00     0.157 C 
BRANCH  22  23
HETATM   23  N1  UNL     1      19.589   2.266  50.482  1.00  0.00    -0.364 N 
HETATM   24  H2  UNL     1      19.065   2.967  49.917  1.00  0.00     0.162 HD
BRANCH  23  25
HETATM   25  C1  UNL     1      19.331   2.600  51.839  1.00  0.00     0.348 C 
HETATM   26  O1  UNL     1      19.985   3.087  52.822  1.00  0.00    -0.284 OA
ENDBRANCH  23  25
ENDBRANCH  22  23
ENDBRANCH   1  22
BRANCH  20  27
HETATM   27  C21 UNL     1      26.107   0.720  53.171  1.00  0.00     0.144 C 
BRANCH  27  28
HETATM   28  C22 UNL     1      27.018  -0.078  52.268  1.00  0.00     0.135 C 
HETATM   29 CL1  UNL     1      26.724  -1.824  52.451  1.00  0.00    -0.129 Cl
ENDBRANCH  27  28
ENDBRANCH  20  27
TORSDOF 5
ENDMDL
MODEL 4
REMARK VINA RESULT:      -8.7      2.459      5.504
REMARK  5 active torsions:
REMARK  status: ('A' for Active; 'I' for Inactive)
REMARK    1  A    between atoms: C1_2  and  N1_3 
REMARK    2  A    between atoms: N1_3  and  C2_4 
REMARK    3  A    between atoms: C2_4  and  C3_5 
REMARK    4  A    between atoms: N3_24  and  C21_25 
REMARK    5  A    between atoms: C21_25  and  C22_26 
ROOT
HETATM    1  C3  UNL     1      25.348   1.978  51.267  1.00  0.00    -0.047 A 
HETATM    2  C4  UNL     1      24.621   1.139  51.983  1.00  0.00     0.020 A 
HETATM    3  C5  UNL     1      23.204   0.830  52.035  1.00  0.00     0.001 A 
HETATM    4  C6  UNL     1      22.296   0.214  52.733  1.00  0.00    -0.019 C 
HETATM    5  C7  UNL     1      22.472  -0.506  53.986  1.00  0.00     0.010 C 
HETATM    6  C8  UNL     1      21.315  -0.940  54.530  1.00  0.00     0.001 C 
HETATM    7  C9  UNL     1      20.039  -0.717  53.859  1.00  0.00    -0.002 C 
HETATM    8  C10 UNL     1      19.904  -0.126  52.655  1.00  0.00     0.003 C 
HETATM    9  C11 UNL     1      21.066   0.306  51.927  1.00  0.00     0.139 C 
HETATM   10  N2  UNL     1      21.086   1.472  51.135  1.00  0.00    -0.376 N 
HETATM   11  C12 UNL     1      22.509   1.694  51.033  1.00  0.00     0.064 A 
HETATM   12  C13 UNL     1      23.195   2.539  50.255  1.00  0.00     0.052 A 
HETATM   13  C14 UNL     1      24.641   2.710  50.246  1.00  0.00     0.104 A 
HETATM   14  C15 UNL     1      25.026   4.013  49.788  1.00  0.00    -0.017 A 
HETATM   15  C16 UNL     1      26.121   4.827  49.735  1.00  0.00     0.010 A 
HETATM   16  C17 UNL     1      26.195   6.029  49.064  1.00  0.00     0.001 A 
HETATM   17  C18 UNL     1      25.061   6.436  48.388  1.00  0.00     0.002 A 
HETATM   18  C19 UNL     1      23.934   5.637  48.421  1.00  0.00     0.030 A 
HETATM   19  C20 UNL     1      23.868   4.412  49.114  1.00  0.00     0.042 A 
HETATM   20  N3  UNL     1      22.732   3.548  49.359  1.00  0.00    -0.346 N 
HETATM   21  H11 UNL     1      20.246   1.913  50.793  1.00  0.00     0.160 HD
ENDROOT
BRANCH   1  22
HETATM   22  C2  UNL     1      26.805   2.031  51.494  1.00  0.00     0.157 C 
BRANCH  22  23
HETATM   23  N1  UNL     1      27.135   2.826  52.674  1.00  0.00    -0.364 N 
HETATM   24  H2  UNL     1      26.907   3.668  53.243  1.00  0.00     0.162 HD
BRANCH  23  25
HETATM   25  C1  UNL     1      28.225   2.200  53.338  1.00  0.00     0.348 C 
HETATM   26  O1  UNL     1      28.990   2.460  54.327  1.00  0.00    -0.284 OA
ENDBRANCH  23  25
ENDBRANCH  22  23
ENDBRANCH   1  22
BRANCH  20  27
HETATM   27  C21 UNL     1      21.436   3.866  48.822  1.00  0.00     0.144 C 
BRANCH  27  28
HETATM   28  C22 UNL     1      21.125   2.944  47.667  1.00  0.00     0.135 C 
HETATM   29 CL1  UNL     1      21.905   3.514  46.171  1.00  0.00    -0.129 Cl
ENDBRANCH  27  28
ENDBRANCH  20  27
TORSDOF 5
ENDMDL
MODEL 5
REMARK VINA RESULT:      -8.3      3.488      5.088
REMARK  5 active torsions:
REMARK  status: ('A' for Active; 'I' for Inactive)
REMARK    1  A    between atoms: C1_2  and  N1_3 
REMARK    2  A    between atoms: N1_3  and  C2_4 
REMARK    3  A    between atoms: C2_4  and  C3_5 
REMARK    4  A    between atoms: N3_24  and  C21_25 
REMARK    5  A    between atoms: C21_25  and  C22_26 
ROOT
HETATM    1  C3  UNL     1      24.334   3.484  51.210  1.00  0.00    -0.047 A 
HETATM    2  C4  UNL     1      25.534   3.158  51.656  1.00  0.00     0.020 A 
HETATM    3  C5  UNL     1      26.062   2.011  52.372  1.00  0.00     0.001 A 
HETATM    4  C6  UNL     1      27.098   1.578  53.028  1.00  0.00    -0.019 C 
HETATM    5  C7  UNL     1      28.326   2.299  53.331  1.00  0.00     0.010 C 
HETATM    6  C8  UNL     1      29.171   1.618  54.133  1.00  0.00     0.001 C 
HETATM    7  C9  UNL     1      28.853   0.270  54.589  1.00  0.00    -0.002 C 
HETATM    8  C10 UNL     1      27.751  -0.416  54.228  1.00  0.00     0.003 C 
HETATM    9  C11 UNL     1      26.809   0.161  53.307  1.00  0.00     0.139 C 
HETATM   10  N2  UNL     1      25.417  -0.045  53.402  1.00  0.00    -0.376 N 
HETATM   11  C12 UNL     1      24.935   1.059  52.607  1.00  0.00     0.064 A 
HETATM   12  C13 UNL     1      23.705   1.318  52.151  1.00  0.00     0.052 A 
HETATM   13  C14 UNL     1      23.309   2.484  51.373  1.00  0.00     0.104 A 
HETATM   14  C15 UNL     1      21.916   2.787  51.528  1.00  0.00    -0.017 A 
HETATM   15  C16 UNL     1      21.022   3.785  51.262  1.00  0.00     0.010 A 
HETATM   16  C17 UNL     1      19.656   3.699  51.419  1.00  0.00     0.001 A 
HETATM   17  C18 UNL     1      19.156   2.497  51.883  1.00  0.00     0.002 A 
HETATM   18  C19 UNL     1      20.032   1.466  52.163  1.00  0.00     0.030 A 
HETATM   19  C20 UNL     1      21.429   1.566  52.004  1.00  0.00     0.042 A 
HETATM   20  N3  UNL     1      22.472   0.639  52.388  1.00  0.00    -0.346 N 
HETATM   21  H11 UNL     1      25.014  -0.814  53.916  1.00  0.00     0.160 HD
ENDROOT
BRANCH   1  22
HETATM   22  C2  UNL     1      24.160   4.772  50.512  1.00  0.00     0.157 C 
BRANCH  22  23
HETATM   23  N1  UNL     1      24.338   5.903  51.419  1.00  0.00    -0.364 N 
HETATM   24  H2  UNL     1      24.252   6.250  52.397  1.00  0.00     0.162 HD
BRANCH  23  25
HETATM   25  C1  UNL     1      24.844   6.998  50.668  1.00  0.00     0.348 C 
HETATM   26  O1  UNL     1      25.988   7.498  50.400  1.00  0.00    -0.284 OA
ENDBRANCH  23  25
ENDBRANCH  22  23
ENDBRANCH   1  22
BRANCH  20  27
HETATM   27  C21 UNL     1      22.147  -0.627  52.989  1.00  0.00     0.144 C 
BRANCH  27  28
HETATM   28  C22 UNL     1      21.884  -0.436  54.464  1.00  0.00     0.135 C 
HETATM   29 CL1  UNL     1      22.979  -1.444  55.440  1.00  0.00    -0.129 Cl
ENDBRANCH  27  28
ENDBRANCH  20  27
TORSDOF 5
ENDMDL
MODEL 6
REMARK VINA RESULT:      -7.9      3.410      5.144
REMARK  5 active torsions:
REMARK  status: ('A' for Active; 'I' for Inactive)
REMARK    1  A    between atoms: C1_2  and  N1_3 
REMARK    2  A    between atoms: N1_3  and  C2_4 
REMARK    3  A    between atoms: C2_4  and  C3_5 
REMARK    4  A    between atoms: N3_24  and  C21_25 
REMARK    5  A    between atoms: C21_25  and  C22_26 
ROOT
HETATM    1  C3  UNL     1      25.894   3.806  49.782  1.00  0.00    -0.047 A 
HETATM    2  C4  UNL     1      26.739   3.236  50.622  1.00  0.00     0.020 A 
HETATM    3  C5  UNL     1      26.617   2.174  51.605  1.00  0.00     0.001 A 
HETATM    4  C6  UNL     1      27.223   1.602  52.603  1.00  0.00    -0.019 C 
HETATM    5  C7  UNL     1      28.508   1.960  53.187  1.00  0.00     0.010 C 
HETATM    6  C8  UNL     1      28.817   1.251  54.293  1.00  0.00     0.001 C 
HETATM    7  C9  UNL     1      27.929   0.205  54.788  1.00  0.00    -0.002 C 
HETATM    8  C10 UNL     1      26.785  -0.172  54.184  1.00  0.00     0.003 C 
HETATM    9  C11 UNL     1      26.382   0.445  52.948  1.00  0.00     0.139 C 
HETATM   10  N2  UNL     1      25.035   0.703  52.623  1.00  0.00    -0.376 N 
HETATM   11  C12 UNL     1      25.203   1.693  51.586  1.00  0.00     0.064 A 
HETATM   12  C13 UNL     1      24.308   2.209  50.735  1.00  0.00     0.052 A 
HETATM   13  C14 UNL     1      24.572   3.234  49.735  1.00  0.00     0.104 A 
HETATM   14  C15 UNL     1      23.392   3.978  49.403  1.00  0.00    -0.017 A 
HETATM   15  C16 UNL     1      23.017   5.115  48.747  1.00  0.00     0.010 A 
HETATM   16  C17 UNL     1      21.720   5.491  48.472  1.00  0.00     0.001 A 
HETATM   17  C18 UNL     1      20.720   4.638  48.899  1.00  0.00     0.002 A 
HETATM   18  C19 UNL     1      21.063   3.479  49.567  1.00  0.00     0.030 A 
HETATM   19  C20 UNL     1      22.393   3.106  49.847  1.00  0.00     0.042 A 
HETATM   20  N3  UNL     1      22.897   2.014  50.653  1.00  0.00    -0.346 N 
HETATM   21  H11 UNL     1      24.265   0.232  53.073  1.00  0.00     0.160 HD
ENDROOT
BRANCH   1  22
HETATM   22  C2  UNL     1      26.379   4.894  48.912  1.00  0.00     0.157 C 
BRANCH  22  23
HETATM   23  N1  UNL     1      26.740   6.079  49.685  1.00  0.00    -0.364 N 
HETATM   24  H2  UNL     1      27.304   6.461  50.473  1.00  0.00     0.162 HD
BRANCH  23  25
HETATM   25  C1  UNL     1      26.036   7.190  49.147  1.00  0.00     0.348 C 
HETATM   26  O1  UNL     1      25.614   8.320  49.564  1.00  0.00    -0.284 OA
ENDBRANCH  23  25
ENDBRANCH  22  23
ENDBRANCH   1  22
BRANCH  20  27
HETATM   27  C21 UNL     1      21.996   1.079  51.271  1.00  0.00     0.144 C 
BRANCH  27  28
HETATM   28  C22 UNL     1      21.578   1.597  52.627  1.00  0.00     0.135 C 
HETATM   29 CL1  UNL     1      21.565   0.287  53.832  1.00  0.00    -0.129 Cl
ENDBRANCH  27  28
ENDBRANCH  20  27
TORSDOF 5
ENDMDL
MODEL 7
REMARK VINA RESULT:      -7.8      3.615      7.659
REMARK  5 active torsions:
REMARK  status: ('A' for Active; 'I' for Inactive)
REMARK    1  A    between atoms: C1_2  and  N1_3 
REMARK    2  A    between atoms: N1_3  and  C2_4 
REMARK    3  A    between atoms: C2_4  and  C3_5 
REMARK    4  A    between atoms: N3_24  and  C21_25 
REMARK    5  A    between atoms: C21_25  and  C22_26 
ROOT
HETATM    1  C3  UNL     1      25.056   3.076  50.085  1.00  0.00    -0.047 A 
HETATM    2  C4  UNL     1      24.080   3.649  49.404  1.00  0.00     0.020 A 
HETATM    3  C5  UNL     1      22.635   3.666  49.541  1.00  0.00     0.001 A 
HETATM    4  C6  UNL     1      21.534   3.990  48.930  1.00  0.00    -0.019 C 
HETATM    5  C7  UNL     1      21.387   4.548  47.593  1.00  0.00     0.010 C 
HETATM    6  C8  UNL     1      20.104   4.668  47.193  1.00  0.00     0.001 C 
HETATM    7  C9  UNL     1      19.004   4.298  48.076  1.00  0.00    -0.002 C 
HETATM    8  C10 UNL     1      19.155   3.865  49.343  1.00  0.00     0.003 C 
HETATM    9  C11 UNL     1      20.468   3.774  49.924  1.00  0.00     0.139 C 
HETATM   10  N2  UNL     1      20.839   2.757  50.826  1.00  0.00    -0.376 N 
HETATM   11  C12 UNL     1      22.277   2.832  50.728  1.00  0.00     0.064 A 
HETATM   12  C13 UNL     1      23.223   2.254  51.477  1.00  0.00     0.052 A 
HETATM   13  C14 UNL     1      24.661   2.370  51.278  1.00  0.00     0.104 A 
HETATM   14  C15 UNL     1      25.371   1.244  51.811  1.00  0.00    -0.017 A 
HETATM   15  C16 UNL     1      26.611   0.674  51.781  1.00  0.00     0.010 A 
HETATM   16  C17 UNL     1      27.026  -0.384  52.560  1.00  0.00     0.001 A 
HETATM   17  C18 UNL     1      26.102  -0.905  53.446  1.00  0.00     0.002 A 
HETATM   18  C19 UNL     1      24.837  -0.354  53.502  1.00  0.00     0.030 A 
HETATM   19  C20 UNL     1      24.422   0.726  52.698  1.00  0.00     0.042 A 
HETATM   20  N3  UNL     1      23.106   1.309  52.540  1.00  0.00    -0.346 N 
HETATM   21  H11 UNL     1      20.164   2.213  51.342  1.00  0.00     0.160 HD
ENDROOT
BRANCH   1  22
HETATM   22  C2  UNL     1      26.448   3.276  49.640  1.00  0.00     0.157 C 
BRANCH  22  23
HETATM   23  N1  UNL     1      26.852   4.675  49.749  1.00  0.00    -0.364 N 
HETATM   24  H2  UNL     1      26.797   5.551  50.311  1.00  0.00     0.162 HD
BRANCH  23  25
HETATM   25  C1  UNL     1      27.662   4.992  48.626  1.00  0.00     0.348 C 
HETATM   26  O1  UNL     1      28.890   4.877  48.297  1.00  0.00    -0.284 OA
ENDBRANCH  23  25
ENDBRANCH  22  23
ENDBRANCH   1  22
BRANCH  20  27
HETATM   27  C21 UNL     1      21.989   0.823  53.305  1.00  0.00     0.144 C 
BRANCH  27  28
HETATM   28  C22 UNL     1      21.292  -0.278  52.541  1.00  0.00     0.135 C 
HETATM   29 CL1  UNL     1      19.535  -0.234  52.827  1.00  0.00    -0.129 Cl
ENDBRANCH  27  28
ENDBRANCH  20  27
TORSDOF 5
ENDMDL
MODEL 8
REMARK VINA RESULT:      -7.8      2.367      2.556
REMARK  5 active torsions:
REMARK  status: ('A' for Active; 'I' for Inactive)
REMARK    1  A    between atoms: C1_2  and  N1_3 
REMARK    2  A    between atoms: N1_3  and  C2_4 
REMARK    3  A    between atoms: C2_4  and  C3_5 
REMARK    4  A    between atoms: N3_24  and  C21_25 
REMARK    5  A    between atoms: C21_25  and  C22_26 
ROOT
HETATM    1  C3  UNL     1      21.740   0.963  52.417  1.00  0.00    -0.047 A 
HETATM    2  C4  UNL     1      22.892   0.411  52.753  1.00  0.00     0.020 A 
HETATM    3  C5  UNL     1      24.239   0.923  52.928  1.00  0.00     0.001 A 
HETATM    4  C6  UNL     1      25.481   0.564  53.073  1.00  0.00    -0.019 C 
HETATM    5  C7  UNL     1      26.022  -0.787  53.082  1.00  0.00     0.010 C 
HETATM    6  C8  UNL     1      27.369  -0.832  53.133  1.00  0.00     0.001 C 
HETATM    7  C9  UNL     1      28.159   0.392  53.214  1.00  0.00    -0.002 C 
HETATM    8  C10 UNL     1      27.638   1.632  53.293  1.00  0.00     0.003 C 
HETATM    9  C11 UNL     1      26.212   1.815  53.335  1.00  0.00     0.139 C 
HETATM   10  N2  UNL     1      25.559   2.903  52.720  1.00  0.00    -0.376 N 
HETATM   11  C12 UNL     1      24.212   2.390  52.645  1.00  0.00     0.064 A 
HETATM   12  C13 UNL     1      23.070   3.012  52.332  1.00  0.00     0.052 A 
HETATM   13  C14 UNL     1      21.753   2.395  52.256  1.00  0.00     0.104 A 
HETATM   14  C15 UNL     1      20.875   3.107  51.373  1.00  0.00    -0.017 A 
HETATM   15  C16 UNL     1      19.671   2.960  50.745  1.00  0.00     0.010 A 
HETATM   16  C17 UNL     1      19.010   3.942  50.041  1.00  0.00     0.001 A 
HETATM   17  C18 UNL     1      19.623   5.179  49.971  1.00  0.00     0.002 A 
HETATM   18  C19 UNL     1      20.842   5.363  50.594  1.00  0.00     0.030 A 
HETATM   19  C20 UNL     1      21.513   4.349  51.308  1.00  0.00     0.042 A 
HETATM   20  N3  UNL     1      22.842   4.347  51.881  1.00  0.00    -0.346 N 
HETATM   21  H11 UNL     1      26.037   3.754  52.468  1.00  0.00     0.160 HD
ENDROOT
BRANCH   1  22
HETATM   22  C2  UNL     1      20.540   0.109  52.327  1.00  0.00     0.157 C 
BRANCH  22  23
HETATM   23  N1  UNL     1      20.034  -0.247  53.649  1.00  0.00    -0.364 N 
HETATM   24  H2  UNL     1      20.160  -0.153  54.679  1.00  0.00     0.162 HD
BRANCH  23  25
HETATM   25  C1  UNL     1      18.886  -1.067  53.478  1.00  0.00     0.348 C 
HETATM   26  O1  UNL     1      17.619  -0.914  53.487  1.00  0.00    -0.284 OA
ENDBRANCH  23  25
ENDBRANCH  22  23
ENDBRANCH   1  22
BRANCH  20  27
HETATM   27  C21 UNL     1      23.676   5.516  51.811  1.00  0.00     0.144 C 
BRANCH  27  28
HETATM   28  C22 UNL     1      24.057   5.783  50.373  1.00  0.00     0.135 C 
HETATM   29 CL1  UNL     1      25.066   4.466  49.729  1.00  0.00    -0.129 Cl
ENDBRANCH  27  28
ENDBRANCH  20  27
TORSDOF 5
ENDMDL
MODEL 9
REMARK VINA RESULT:      -7.6      1.976      2.712
REMARK  5 active torsions:
REMARK  status: ('A' for Active; 'I' for Inactive)
REMARK    1  A    between atoms: C1_2  and  N1_3 
REMARK    2  A    between atoms: N1_3  and  C2_4 
REMARK    3  A    between atoms: C2_4  and  C3_5 
REMARK    4  A    between atoms: N3_24  and  C21_25 
REMARK    5  A    between atoms: C21_25  and  C22_26 
ROOT
HETATM    1  C3  UNL     1      21.813   1.621  50.569  1.00  0.00    -0.047 A 
HETATM    2  C4  UNL     1      22.485   1.013  51.530  1.00  0.00     0.020 A 
HETATM    3  C5  UNL     1      23.692   1.334  52.270  1.00  0.00     0.001 A 
HETATM    4  C6  UNL     1      24.580   0.840  53.082  1.00  0.00    -0.019 C 
HETATM    5  C7  UNL     1      24.658  -0.520  53.595  1.00  0.00     0.010 C 
HETATM    6  C8  UNL     1      25.766  -0.762  54.327  1.00  0.00     0.001 C 
HETATM    7  C9  UNL     1      26.741   0.292  54.583  1.00  0.00    -0.002 C 
HETATM    8  C10 UNL     1      26.610   1.569  54.173  1.00  0.00     0.003 C 
HETATM    9  C11 UNL     1      25.432   1.981  53.457  1.00  0.00     0.139 C 
HETATM   10  N2  UNL     1      25.458   2.935  52.420  1.00  0.00    -0.376 N 
HETATM   11  C12 UNL     1      24.206   2.642  51.765  1.00  0.00     0.064 A 
HETATM   12  C13 UNL     1      23.552   3.322  50.816  1.00  0.00     0.052 A 
HETATM   13  C14 UNL     1      22.296   2.926  50.193  1.00  0.00     0.104 A 
HETATM   14  C15 UNL     1      22.147   3.484  48.880  1.00  0.00    -0.017 A 
HETATM   15  C16 UNL     1      21.367   3.356  47.766  1.00  0.00     0.010 A 
HETATM   16  C17 UNL     1      21.397   4.187  46.668  1.00  0.00     0.001 A 
HETATM   17  C18 UNL     1      22.294   5.238  46.705  1.00  0.00     0.002 A 
HETATM   18  C19 UNL     1      23.100   5.397  47.816  1.00  0.00     0.030 A 
HETATM   19  C20 UNL     1      23.064   4.538  48.933  1.00  0.00     0.042 A 
HETATM   20  N3  UNL     1      23.934   4.489  50.090  1.00  0.00    -0.346 N 
HETATM   21  H11 UNL     1      26.215   3.591  52.302  1.00  0.00     0.160 HD
ENDROOT
BRANCH   1  22
HETATM   22  C2  UNL     1      20.598   0.979  50.034  1.00  0.00     0.157 C 
BRANCH  22  23
HETATM   23  N1  UNL     1      19.406   1.382  50.775  1.00  0.00    -0.364 N 
HETATM   24  H2  UNL     1      18.859   2.176  51.170  1.00  0.00     0.162 HD
BRANCH  23  25
HETATM   25  C1  UNL     1      18.671   0.211  51.103  1.00  0.00     0.348 C 
HETATM   26  O1  UNL     1      18.063  -0.255  52.124  1.00  0.00    -0.284 OA
ENDBRANCH  23  25
ENDBRANCH  22  23
ENDBRANCH   1  22
BRANCH  20  27
HETATM   27  C21 UNL     1      24.999   5.442  50.250  1.00  0.00     0.144 C 
BRANCH  27  28
HETATM   28  C22 UNL     1      26.042   5.221  49.180  1.00  0.00     0.135 C 
HETATM   29 CL1  UNL     1      26.779   3.608  49.335  1.00  0.00    -0.129 Cl
ENDBRANCH  27  28
ENDBRANCH  20  27
TORSDOF 5
ENDMDL
