MODEL 1
REMARK VINA RESULT:      -8.6      0.000      0.000
REMARK  4 active torsions:
REMARK  status: ('A' for Active; 'I' for Inactive)
REMARK    1  A    between atoms: C3_4  and  N2_5 
REMARK    2  A    between atoms: N2_5  and  C4_6 
REMARK    3  A    between atoms: C6_8  and  N3_9 
REMARK       I    between atoms: N3_9  and  C7_10 
REMARK    4  A    between atoms: C14_19  and  C15_20 
ROOT
HETATM    1  N2  UNL     1      20.361  -0.435  54.165  1.00  0.00    -0.343 N 
HETATM    2  H3  UNL     1      19.886  -0.686  55.048  1.00  0.00     0.167 HD
ENDROOT
BRANCH   1   3
HETATM    3  C3  UNL     1      21.769  -0.348  54.011  1.00  0.00     0.125 A 
HETATM    4  N1  UNL     1      22.336   0.401  53.132  1.00  0.00    -0.232 NA
HETATM    5  C2  UNL     1      23.772   0.423  53.055  1.00  0.00     0.078 A 
HETATM    6  C1  UNL     1      24.273   1.192  52.147  1.00  0.00     0.048 C 
HETATM    7  C14 UNL     1      24.602  -0.363  53.925  1.00  0.00     0.091 A 
HETATM    8  N4  UNL     1      23.971  -1.069  54.755  1.00  0.00    -0.279 NA
HETATM    9  C13 UNL     1      22.570  -1.173  54.925  1.00  0.00     0.227 A 
BRANCH   7  10
HETATM   10  C15 UNL     1      26.046  -0.402  53.911  1.00  0.00     0.012 A 
HETATM   11  C16 UNL     1      26.918  -1.072  53.090  1.00  0.00     0.017 A 
HETATM   12  C17 UNL     1      28.274  -1.006  53.207  1.00  0.00     0.020 A 
HETATM   13  C18 UNL     1      28.886  -0.246  54.179  1.00  0.00     0.116 A 
HETATM   14  N5  UNL     1      28.059   0.414  54.988  1.00  0.00    -0.272 NA
HETATM   15  C19 UNL     1      26.742   0.339  54.860  1.00  0.00     0.130 A 
ENDBRANCH   7  10
ENDBRANCH   1   3
BRANCH   1  16
HETATM   16  C4  UNL     1      19.506  -0.168  53.062  1.00  0.00     0.041 A 
HETATM   17  C5  UNL     1      19.716   0.869  52.178  1.00  0.00     0.059 A 
HETATM   18  C6  UNL     1      18.840   1.063  51.128  1.00  0.00     0.036 A 
HETATM   19  C9  UNL     1      17.733   0.254  50.906  1.00  0.00     0.030 A 
HETATM   20  C10 UNL     1      17.498  -0.791  51.775  1.00  0.00     0.011 A 
HETATM   21  C11 UNL     1      18.399  -0.959  52.820  1.00  0.00    -0.035 A 
HETATM   22  C12 UNL     1      18.091  -2.104  53.731  1.00  0.00     0.050 C 
BRANCH  18  23
HETATM   23  N3  UNL     1      19.030   2.130  50.180  1.00  0.00    -0.327 N 
HETATM   24  C7  UNL     1      18.426   3.280  50.778  1.00  0.00     0.218 C 
HETATM   25  C8  UNL     1      18.298   4.686  50.284  1.00  0.00     0.117 C 
HETATM   26  O1  UNL     1      17.890   3.138  51.928  1.00  0.00    -0.274 OA
HETATM   27  H5  UNL     1      19.434   2.375  49.241  1.00  0.00     0.169 HD
ENDBRANCH  18  23
ENDBRANCH   1  16
TORSDOF 4
ENDMDL
MODEL 2
REMARK VINA RESULT:      -8.6      4.117      7.273
REMARK  4 active torsions:
REMARK  status: ('A' for Active; 'I' for Inactive)
REMARK    1  A    between atoms: C3_4  and  N2_5 
REMARK    2  A    between atoms: N2_5  and  C4_6 
REMARK    3  A    between atoms: C6_8  and  N3_9 
REMARK       I    between atoms: N3_9  and  C7_10 
REMARK    4  A    between atoms: C14_19  and  C15_20 
ROOT
HETATM    1  N2  UNL     1      22.499   0.511  52.125  1.00  0.00    -0.343 N 
HETATM    2  H3  UNL     1      21.711  -0.060  51.777  1.00  0.00     0.167 HD
ENDROOT
BRANCH   1   3
HETATM    3  C3  UNL     1      22.829   1.803  51.638  1.00  0.00     0.125 A 
HETATM    4  N1  UNL     1      22.871   2.093  50.386  1.00  0.00    -0.232 NA
HETATM    5  C2  UNL     1      23.214   3.432  49.990  1.00  0.00     0.078 A 
HETATM    6  C1  UNL     1      23.243   3.651  48.718  1.00  0.00     0.048 C 
HETATM    7  C14 UNL     1      23.512   4.464  50.944  1.00  0.00     0.091 A 
HETATM    8  N4  UNL     1      23.450   4.100  52.147  1.00  0.00    -0.279 NA
HETATM    9  C13 UNL     1      23.126   2.819  52.656  1.00  0.00     0.227 A 
BRANCH   7  10
HETATM   10  C15 UNL     1      23.868   5.829  50.632  1.00  0.00     0.012 A 
HETATM   11  C16 UNL     1      23.092   6.955  50.518  1.00  0.00     0.017 A 
HETATM   12  C17 UNL     1      23.585   8.189  50.213  1.00  0.00     0.020 A 
HETATM   13  C18 UNL     1      24.927   8.404  49.992  1.00  0.00     0.116 A 
HETATM   14  N5  UNL     1      25.700   7.325  50.098  1.00  0.00    -0.272 NA
HETATM   15  C19 UNL     1      25.204   6.132  50.395  1.00  0.00     0.130 A 
ENDBRANCH   7  10
ENDBRANCH   1   3
BRANCH   1  16
HETATM   16  C4  UNL     1      23.275  -0.079  53.160  1.00  0.00     0.041 A 
HETATM   17  C5  UNL     1      24.639  -0.255  53.073  1.00  0.00     0.059 A 
HETATM   18  C6  UNL     1      25.323  -0.836  54.122  1.00  0.00     0.036 A 
HETATM   19  C9  UNL     1      24.701  -1.263  55.288  1.00  0.00     0.030 A 
HETATM   20  C10 UNL     1      23.336  -1.100  55.402  1.00  0.00     0.011 A 
HETATM   21  C11 UNL     1      22.678  -0.512  54.329  1.00  0.00    -0.035 A 
HETATM   22  C12 UNL     1      21.201  -0.365  54.508  1.00  0.00     0.050 C 
BRANCH  18  23
HETATM   23  N3  UNL     1      26.750  -1.030  54.073  1.00  0.00    -0.327 N 
HETATM   24  C7  UNL     1      27.315   0.181  54.578  1.00  0.00     0.218 C 
HETATM   25  C8  UNL     1      28.741   0.589  54.773  1.00  0.00     0.117 C 
HETATM   26  O1  UNL     1      26.512   1.106  54.938  1.00  0.00    -0.274 OA
HETATM   27  H5  UNL     1      27.509  -1.709  53.812  1.00  0.00     0.169 HD
ENDBRANCH  18  23
ENDBRANCH   1  16
TORSDOF 4
ENDMDL
MODEL 3
REMARK VINA RESULT:      -8.5      5.301      7.972
REMARK  4 active torsions:
REMARK  status: ('A' for Active; 'I' for Inactive)
REMARK    1  A    between atoms: C3_4  and  N2_5 
REMARK    2  A    between atoms: N2_5  and  C4_6 
REMARK    3  A    between atoms: C6_8  and  N3_9 
REMARK       I    between atoms: N3_9  and  C7_10 
REMARK    4  A    between atoms: C14_19  and  C15_20 
ROOT
HETATM    1  N2  UNL     1      23.359   2.833  51.795  1.00  0.00    -0.343 N 
HETATM    2  H3  UNL     1      22.326   2.862  51.816  1.00  0.00     0.167 HD
ENDROOT
BRANCH   1   3
HETATM    3  C3  UNL     1      24.170   3.739  51.063  1.00  0.00     0.125 A 
HETATM    4  N1  UNL     1      24.163   5.010  51.263  1.00  0.00    -0.232 NA
HETATM    5  C2  UNL     1      25.023   5.846  50.470  1.00  0.00     0.078 A 
HETATM    6  C1  UNL     1      24.960   7.111  50.720  1.00  0.00     0.048 C 
HETATM    7  C14 UNL     1      25.894   5.316  49.458  1.00  0.00     0.091 A 
HETATM    8  N4  UNL     1      25.841   4.065  49.324  1.00  0.00    -0.279 NA
HETATM    9  C13 UNL     1      25.040   3.143  50.040  1.00  0.00     0.227 A 
BRANCH   7  10
HETATM   10  C15 UNL     1      26.783   6.083  48.618  1.00  0.00     0.012 A 
HETATM   11  C16 UNL     1      26.562   7.218  47.878  1.00  0.00     0.017 A 
HETATM   12  C17 UNL     1      27.519   7.832  47.125  1.00  0.00     0.020 A 
HETATM   13  C18 UNL     1      28.806   7.351  47.048  1.00  0.00     0.116 A 
HETATM   14  N5  UNL     1      29.045   6.250  47.760  1.00  0.00    -0.272 NA
HETATM   15  C19 UNL     1      28.102   5.666  48.486  1.00  0.00     0.130 A 
ENDBRANCH   7  10
ENDBRANCH   1   3
BRANCH   1  16
HETATM   16  C4  UNL     1      23.961   1.802  52.565  1.00  0.00     0.041 A 
HETATM   17  C5  UNL     1      25.175   1.946  53.203  1.00  0.00     0.059 A 
HETATM   18  C6  UNL     1      25.694   0.897  53.935  1.00  0.00     0.036 A 
HETATM   19  C9  UNL     1      25.048  -0.325  54.069  1.00  0.00     0.030 A 
HETATM   20  C10 UNL     1      23.832  -0.498  53.441  1.00  0.00     0.011 A 
HETATM   21  C11 UNL     1      23.338   0.577  52.713  1.00  0.00    -0.035 A 
HETATM   22  C12 UNL     1      22.020   0.330  52.052  1.00  0.00     0.050 C 
BRANCH  18  23
HETATM   23  N3  UNL     1      26.955   1.012  54.622  1.00  0.00    -0.327 N 
HETATM   24  C7  UNL     1      27.919   0.432  53.741  1.00  0.00     0.218 C 
HETATM   25  C8  UNL     1      29.397   0.254  53.889  1.00  0.00     0.117 C 
HETATM   26  O1  UNL     1      27.503  -0.028  52.625  1.00  0.00    -0.274 OA
HETATM   27  H5  UNL     1      27.418   1.352  55.501  1.00  0.00     0.169 HD
ENDBRANCH  18  23
ENDBRANCH   1  16
TORSDOF 4
ENDMDL
MODEL 4
REMARK VINA RESULT:      -8.5      6.917      9.691
REMARK  4 active torsions:
REMARK  status: ('A' for Active; 'I' for Inactive)
REMARK    1  A    between atoms: C3_4  and  N2_5 
REMARK    2  A    between atoms: N2_5  and  C4_6 
REMARK    3  A    between atoms: C6_8  and  N3_9 
REMARK       I    between atoms: N3_9  and  C7_10 
REMARK    4  A    between atoms: C14_19  and  C15_20 
ROOT
HETATM    1  N2  UNL     1      25.772   3.243  49.754  1.00  0.00    -0.343 N 
HETATM    2  H3  UNL     1      25.176   2.653  49.149  1.00  0.00     0.167 HD
ENDROOT
BRANCH   1   3
HETATM    3  C3  UNL     1      26.469   4.397  49.309  1.00  0.00     0.125 A 
HETATM    4  N1  UNL     1      27.673   4.363  48.861  1.00  0.00    -0.232 NA
HETATM    5  C2  UNL     1      28.294   5.588  48.432  1.00  0.00     0.078 A 
HETATM    6  C1  UNL     1      29.505   5.480  47.999  1.00  0.00     0.048 C 
HETATM    7  C14 UNL     1      27.617   6.853  48.486  1.00  0.00     0.091 A 
HETATM    8  N4  UNL     1      26.443   6.802  48.937  1.00  0.00    -0.279 NA
HETATM    9  C13 UNL     1      25.730   5.665  49.388  1.00  0.00     0.227 A 
BRANCH   7  10
HETATM   10  C15 UNL     1      28.167   8.126  48.080  1.00  0.00     0.012 A 
HETATM   11  C16 UNL     1      28.249   8.716  46.844  1.00  0.00     0.017 A 
HETATM   12  C17 UNL     1      28.806   9.940  46.621  1.00  0.00     0.020 A 
HETATM   13  C18 UNL     1      29.340  10.694  47.641  1.00  0.00     0.116 A 
HETATM   14  N5  UNL     1      29.272  10.142  48.852  1.00  0.00    -0.272 NA
HETATM   15  C19 UNL     1      28.727   8.950  49.050  1.00  0.00     0.130 A 
ENDBRANCH   7  10
ENDBRANCH   1   3
BRANCH   1  16
HETATM   16  C4  UNL     1      25.870   2.830  51.110  1.00  0.00     0.041 A 
HETATM   17  C5  UNL     1      27.039   2.367  51.676  1.00  0.00     0.059 A 
HETATM   18  C6  UNL     1      27.054   1.986  53.002  1.00  0.00     0.036 A 
HETATM   19  C9  UNL     1      25.932   2.043  53.820  1.00  0.00     0.030 A 
HETATM   20  C10 UNL     1      24.749   2.502  53.280  1.00  0.00     0.011 A 
HETATM   21  C11 UNL     1      24.768   2.878  51.943  1.00  0.00    -0.035 A 
HETATM   22  C12 UNL     1      23.457   3.362  51.413  1.00  0.00     0.050 C 
BRANCH  18  23
HETATM   23  N3  UNL     1      28.257   1.504  53.631  1.00  0.00    -0.327 N 
HETATM   24  C7  UNL     1      28.318   0.112  53.314  1.00  0.00     0.218 C 
HETATM   25  C8  UNL     1      29.327  -0.931  53.678  1.00  0.00     0.117 C 
HETATM   26  O1  UNL     1      27.379  -0.376  52.601  1.00  0.00    -0.274 OA
HETATM   27  H5  UNL     1      29.082   1.783  54.218  1.00  0.00     0.169 HD
ENDBRANCH  18  23
ENDBRANCH   1  16
TORSDOF 4
ENDMDL
MODEL 5
REMARK VINA RESULT:      -8.1      4.125      7.459
REMARK  4 active torsions:
REMARK  status: ('A' for Active; 'I' for Inactive)
REMARK    1  A    between atoms: C3_4  and  N2_5 
REMARK    2  A    between atoms: N2_5  and  C4_6 
REMARK    3  A    between atoms: C6_8  and  N3_9 
REMARK       I    between atoms: N3_9  and  C7_10 
REMARK    4  A    between atoms: C14_19  and  C15_20 
ROOT
HETATM    1  N2  UNL     1      22.471   0.759  52.447  1.00  0.00    -0.343 N 
HETATM    2  H3  UNL     1      21.563   0.296  52.275  1.00  0.00     0.167 HD
ENDROOT
BRANCH   1   3
HETATM    3  C3  UNL     1      22.910   1.933  51.781  1.00  0.00     0.125 A 
HETATM    4  N1  UNL     1      23.020   3.073  52.365  1.00  0.00    -0.232 NA
HETATM    5  C2  UNL     1      23.476   4.206  51.605  1.00  0.00     0.078 A 
HETATM    6  C1  UNL     1      23.557   5.319  52.253  1.00  0.00     0.048 C 
HETATM    7  C14 UNL     1      23.814   4.113  50.212  1.00  0.00     0.091 A 
HETATM    8  N4  UNL     1      23.677   2.964  49.715  1.00  0.00    -0.279 NA
HETATM    9  C13 UNL     1      23.240   1.781  50.358  1.00  0.00     0.227 A 
BRANCH   7  10
HETATM   10  C15 UNL     1      24.273   5.199  49.377  1.00  0.00     0.012 A 
HETATM   11  C16 UNL     1      25.532   5.708  49.180  1.00  0.00     0.017 A 
HETATM   12  C17 UNL     1      25.807   6.752  48.347  1.00  0.00     0.020 A 
HETATM   13  C18 UNL     1      24.822   7.387  47.625  1.00  0.00     0.116 A 
HETATM   14  N5  UNL     1      23.591   6.908  47.800  1.00  0.00    -0.272 NA
HETATM   15  C19 UNL     1      23.342   5.893  48.614  1.00  0.00     0.130 A 
ENDBRANCH   7  10
ENDBRANCH   1   3
BRANCH   1  16
HETATM   16  C4  UNL     1      23.300   0.141  53.421  1.00  0.00     0.041 A 
HETATM   17  C5  UNL     1      24.659   0.360  53.505  1.00  0.00     0.059 A 
HETATM   18  C6  UNL     1      25.397  -0.277  54.483  1.00  0.00     0.036 A 
HETATM   19  C9  UNL     1      24.836  -1.147  55.409  1.00  0.00     0.030 A 
HETATM   20  C10 UNL     1      23.478  -1.386  55.348  1.00  0.00     0.011 A 
HETATM   21  C11 UNL     1      22.765  -0.728  54.353  1.00  0.00    -0.035 A 
HETATM   22  C12 UNL     1      21.301  -1.029  54.334  1.00  0.00     0.050 C 
BRANCH  18  23
HETATM   23  N3  UNL     1      26.816  -0.068  54.607  1.00  0.00    -0.327 N 
HETATM   24  C7  UNL     1      27.415  -0.968  53.671  1.00  0.00     0.218 C 
HETATM   25  C8  UNL     1      28.851  -1.218  53.336  1.00  0.00     0.117 C 
HETATM   26  O1  UNL     1      26.638  -1.706  52.978  1.00  0.00    -0.274 OA
HETATM   27  H5  UNL     1      27.556   0.481  55.113  1.00  0.00     0.169 HD
ENDBRANCH  18  23
ENDBRANCH   1  16
TORSDOF 4
ENDMDL
MODEL 6
REMARK VINA RESULT:      -8.0      5.587      8.315
REMARK  4 active torsions:
REMARK  status: ('A' for Active; 'I' for Inactive)
REMARK    1  A    between atoms: C3_4  and  N2_5 
REMARK    2  A    between atoms: N2_5  and  C4_6 
REMARK    3  A    between atoms: C6_8  and  N3_9 
REMARK       I    between atoms: N3_9  and  C7_10 
REMARK    4  A    between atoms: C14_19  and  C15_20 
ROOT
HETATM    1  N2  UNL     1      23.048   3.166  51.872  1.00  0.00    -0.343 N 
HETATM    2  H3  UNL     1      22.023   3.033  51.835  1.00  0.00     0.167 HD
ENDROOT
BRANCH   1   3
HETATM    3  C3  UNL     1      23.733   4.269  51.301  1.00  0.00     0.125 A 
HETATM    4  N1  UNL     1      24.652   4.143  50.409  1.00  0.00    -0.232 NA
HETATM    5  C2  UNL     1      25.287   5.323  49.889  1.00  0.00     0.078 A 
HETATM    6  C1  UNL     1      26.204   5.121  49.002  1.00  0.00     0.048 C 
HETATM    7  C14 UNL     1      24.935   6.644  50.328  1.00  0.00     0.091 A 
HETATM    8  N4  UNL     1      24.029   6.683  51.202  1.00  0.00    -0.279 NA
HETATM    9  C13 UNL     1      23.334   5.597  51.787  1.00  0.00     0.227 A 
BRANCH   7  10
HETATM   10  C15 UNL     1      25.524   7.878  49.862  1.00  0.00     0.012 A 
HETATM   11  C16 UNL     1      26.739   8.453  50.138  1.00  0.00     0.017 A 
HETATM   12  C17 UNL     1      27.157   9.639  49.611  1.00  0.00     0.020 A 
HETATM   13  C18 UNL     1      26.373  10.366  48.743  1.00  0.00     0.116 A 
HETATM   14  N5  UNL     1      25.189   9.827  48.459  1.00  0.00    -0.272 NA
HETATM   15  C19 UNL     1      24.800   8.672  48.981  1.00  0.00     0.130 A 
ENDBRANCH   7  10
ENDBRANCH   1   3
BRANCH   1  16
HETATM   16  C4  UNL     1      23.774   2.150  52.550  1.00  0.00     0.041 A 
HETATM   17  C5  UNL     1      24.930   2.394  53.260  1.00  0.00     0.059 A 
HETATM   18  C6  UNL     1      25.579   1.353  53.894  1.00  0.00     0.036 A 
HETATM   19  C9  UNL     1      25.123   0.042  53.856  1.00  0.00     0.030 A 
HETATM   20  C10 UNL     1      23.969  -0.232  53.152  1.00  0.00     0.011 A 
HETATM   21  C11 UNL     1      23.341   0.838  52.527  1.00  0.00    -0.035 A 
HETATM   22  C12 UNL     1      22.098   0.479  51.776  1.00  0.00     0.050 C 
BRANCH  18  23
HETATM   23  N3  UNL     1      26.785   1.570  54.651  1.00  0.00    -0.327 N 
HETATM   24  C7  UNL     1      27.788   1.886  53.683  1.00  0.00     0.218 C 
HETATM   25  C8  UNL     1      29.239   2.209  53.848  1.00  0.00     0.117 C 
HETATM   26  O1  UNL     1      27.441   1.909  52.455  1.00  0.00    -0.274 OA
HETATM   27  H5  UNL     1      27.192   1.583  55.619  1.00  0.00     0.169 HD
ENDBRANCH  18  23
ENDBRANCH   1  16
TORSDOF 4
ENDMDL
MODEL 7
REMARK VINA RESULT:      -7.9      8.079     12.124
REMARK  4 active torsions:
REMARK  status: ('A' for Active; 'I' for Inactive)
REMARK    1  A    between atoms: C3_4  and  N2_5 
REMARK    2  A    between atoms: N2_5  and  C4_6 
REMARK    3  A    between atoms: C6_8  and  N3_9 
REMARK       I    between atoms: N3_9  and  C7_10 
REMARK    4  A    between atoms: C14_19  and  C15_20 
ROOT
HETATM    1  N2  UNL     1      28.873   6.602  47.573  1.00  0.00    -0.343 N 
HETATM    2  H3  UNL     1      28.810   7.113  46.677  1.00  0.00     0.167 HD
ENDROOT
BRANCH   1   3
HETATM    3  C3  UNL     1      27.756   6.093  48.285  1.00  0.00     0.125 A 
HETATM    4  N1  UNL     1      27.638   4.857  48.619  1.00  0.00    -0.232 NA
HETATM    5  C2  UNL     1      26.468   4.438  49.343  1.00  0.00     0.078 A 
HETATM    6  C1  UNL     1      26.413   3.183  49.640  1.00  0.00     0.048 C 
HETATM    7  C14 UNL     1      25.421   5.351  49.709  1.00  0.00     0.091 A 
HETATM    8  N4  UNL     1      25.611   6.541  49.345  1.00  0.00    -0.279 NA
HETATM    9  C13 UNL     1      26.715   7.070  48.632  1.00  0.00     0.227 A 
BRANCH   7  10
HETATM   10  C15 UNL     1      24.215   5.012  50.429  1.00  0.00     0.012 A 
HETATM   11  C16 UNL     1      23.968   4.929  51.776  1.00  0.00     0.017 A 
HETATM   12  C17 UNL     1      22.759   4.592  52.307  1.00  0.00     0.020 A 
HETATM   13  C18 UNL     1      21.670   4.303  51.515  1.00  0.00     0.116 A 
HETATM   14  N5  UNL     1      21.886   4.379  50.203  1.00  0.00    -0.272 NA
HETATM   15  C19 UNL     1      23.069   4.708  49.704  1.00  0.00     0.130 A 
ENDBRANCH   7  10
ENDBRANCH   1   3
BRANCH   1  16
HETATM   16  C4  UNL     1      30.187   6.422  48.085  1.00  0.00     0.041 A 
HETATM   17  C5  UNL     1      30.917   5.267  47.899  1.00  0.00     0.059 A 
HETATM   18  C6  UNL     1      32.189   5.169  48.427  1.00  0.00     0.036 A 
HETATM   19  C9  UNL     1      32.790   6.190  49.153  1.00  0.00     0.030 A 
HETATM   20  C10 UNL     1      32.081   7.356  49.355  1.00  0.00     0.011 A 
HETATM   21  C11 UNL     1      30.805   7.423  48.810  1.00  0.00    -0.035 A 
HETATM   22  C12 UNL     1      30.085   8.708  49.065  1.00  0.00     0.050 C 
BRANCH  18  23
HETATM   23  N3  UNL     1      32.986   3.983  48.248  1.00  0.00    -0.327 N 
HETATM   24  C7  UNL     1      33.776   4.229  47.082  1.00  0.00     0.218 C 
HETATM   25  C8  UNL     1      34.794   3.378  46.392  1.00  0.00     0.117 C 
HETATM   26  O1  UNL     1      33.626   5.350  46.491  1.00  0.00    -0.274 OA
HETATM   27  H5  UNL     1      33.200   3.032  48.642  1.00  0.00     0.169 HD
ENDBRANCH  18  23
ENDBRANCH   1  16
TORSDOF 4
ENDMDL
MODEL 8
REMARK VINA RESULT:      -7.8      5.219      6.985
REMARK  4 active torsions:
REMARK  status: ('A' for Active; 'I' for Inactive)
REMARK    1  A    between atoms: C3_4  and  N2_5 
REMARK    2  A    between atoms: N2_5  and  C4_6 
REMARK    3  A    between atoms: C6_8  and  N3_9 
REMARK       I    between atoms: N3_9  and  C7_10 
REMARK    4  A    between atoms: C14_19  and  C15_20 
ROOT
HETATM    1  N2  UNL     1      23.891   4.162  49.015  1.00  0.00    -0.343 N 
HETATM    2  H3  UNL     1      23.409   3.771  48.188  1.00  0.00     0.167 HD
ENDROOT
BRANCH   1   3
HETATM    3  C3  UNL     1      24.601   3.386  49.968  1.00  0.00     0.125 A 
HETATM    4  N1  UNL     1      24.021   2.692  50.882  1.00  0.00    -0.232 NA
HETATM    5  C2  UNL     1      24.827   1.936  51.802  1.00  0.00     0.078 A 
HETATM    6  C1  UNL     1      24.179   1.267  52.696  1.00  0.00     0.048 C 
HETATM    7  C14 UNL     1      26.262   1.926  51.740  1.00  0.00     0.091 A 
HETATM    8  N4  UNL     1      26.752   2.631  50.819  1.00  0.00    -0.279 NA
HETATM    9  C13 UNL     1      26.065   3.414  49.860  1.00  0.00     0.227 A 
BRANCH   7  10
HETATM   10  C15 UNL     1      27.143   1.200  52.625  1.00  0.00     0.012 A 
HETATM   11  C16 UNL     1      27.468  -0.132  52.673  1.00  0.00     0.017 A 
HETATM   12  C17 UNL     1      28.329  -0.672  53.582  1.00  0.00     0.020 A 
HETATM   13  C18 UNL     1      28.952   0.096  54.541  1.00  0.00     0.116 A 
HETATM   14  N5  UNL     1      28.652   1.393  54.513  1.00  0.00    -0.272 NA
HETATM   15  C19 UNL     1      27.812   1.901  53.621  1.00  0.00     0.130 A 
ENDBRANCH   7  10
ENDBRANCH   1   3
BRANCH   1  16
HETATM   16  C4  UNL     1      23.811   5.573  49.163  1.00  0.00     0.041 A 
HETATM   17  C5  UNL     1      24.778   6.438  48.696  1.00  0.00     0.059 A 
HETATM   18  C6  UNL     1      24.627   7.798  48.877  1.00  0.00     0.036 A 
HETATM   19  C9  UNL     1      23.530   8.359  49.518  1.00  0.00     0.030 A 
HETATM   20  C10 UNL     1      22.547   7.518  49.997  1.00  0.00     0.011 A 
HETATM   21  C11 UNL     1      22.730   6.155  49.797  1.00  0.00    -0.035 A 
HETATM   22  C12 UNL     1      21.635   5.294  50.340  1.00  0.00     0.050 C 
BRANCH  18  23
HETATM   23  N3  UNL     1      25.612   8.733  48.397  1.00  0.00    -0.327 N 
HETATM   24  C7  UNL     1      26.596   8.809  49.430  1.00  0.00     0.218 C 
HETATM   25  C8  UNL     1      27.859   9.607  49.522  1.00  0.00     0.117 C 
HETATM   26  O1  UNL     1      26.418   8.097  50.474  1.00  0.00    -0.274 OA
HETATM   27  H5  UNL     1      25.871   9.362  47.596  1.00  0.00     0.169 HD
ENDBRANCH  18  23
ENDBRANCH   1  16
TORSDOF 4
ENDMDL
MODEL 9
REMARK VINA RESULT:      -7.8      2.673      3.777
REMARK  4 active torsions:
REMARK  status: ('A' for Active; 'I' for Inactive)
REMARK    1  A    between atoms: C3_4  and  N2_5 
REMARK    2  A    between atoms: N2_5  and  C4_6 
REMARK    3  A    between atoms: C6_8  and  N3_9 
REMARK       I    between atoms: N3_9  and  C7_10 
REMARK    4  A    between atoms: C14_19  and  C15_20 
ROOT
HETATM    1  N2  UNL     1      23.246   3.365  51.225  1.00  0.00    -0.343 N 
HETATM    2  H3  UNL     1      23.435   4.381  51.246  1.00  0.00     0.167 HD
ENDROOT
BRANCH   1   3
HETATM    3  C3  UNL     1      24.153   2.373  51.678  1.00  0.00     0.125 A 
HETATM    4  N1  UNL     1      23.843   1.483  52.554  1.00  0.00    -0.232 NA
HETATM    5  C2  UNL     1      24.832   0.516  52.948  1.00  0.00     0.078 A 
HETATM    6  C1  UNL     1      24.454  -0.343  53.834  1.00  0.00     0.048 C 
HETATM    7  C14 UNL     1      26.159   0.506  52.400  1.00  0.00     0.091 A 
HETATM    8  N4  UNL     1      26.384   1.409  51.552  1.00  0.00    -0.279 NA
HETATM    9  C13 UNL     1      25.497   2.409  51.086  1.00  0.00     0.227 A 
BRANCH   7  10
HETATM   10  C15 UNL     1      27.211  -0.423  52.744  1.00  0.00     0.012 A 
HETATM   11  C16 UNL     1      28.448  -0.214  53.298  1.00  0.00     0.017 A 
HETATM   12  C17 UNL     1      29.340  -1.209  53.566  1.00  0.00     0.020 A 
HETATM   13  C18 UNL     1      29.060  -2.530  53.293  1.00  0.00     0.116 A 
HETATM   14  N5  UNL     1      27.864  -2.758  52.754  1.00  0.00    -0.272 NA
HETATM   15  C19 UNL     1      27.009  -1.777  52.501  1.00  0.00     0.130 A 
ENDBRANCH   7  10
ENDBRANCH   1   3
BRANCH   1  16
HETATM   16  C4  UNL     1      21.981   2.987  50.699  1.00  0.00     0.041 A 
HETATM   17  C5  UNL     1      20.836   2.916  51.463  1.00  0.00     0.059 A 
HETATM   18  C6  UNL     1      19.643   2.542  50.878  1.00  0.00     0.036 A 
HETATM   19  C9  UNL     1      19.527   2.224  49.531  1.00  0.00     0.030 A 
HETATM   20  C10 UNL     1      20.657   2.285  48.742  1.00  0.00     0.011 A 
HETATM   21  C11 UNL     1      21.840   2.666  49.362  1.00  0.00    -0.035 A 
HETATM   22  C12 UNL     1      23.031   2.711  48.458  1.00  0.00     0.050 C 
BRANCH  18  23
HETATM   23  N3  UNL     1      18.424   2.464  51.642  1.00  0.00    -0.327 N 
HETATM   24  C7  UNL     1      17.737   3.691  51.386  1.00  0.00     0.218 C 
HETATM   25  C8  UNL     1      16.423   4.200  51.888  1.00  0.00     0.117 C 
HETATM   26  O1  UNL     1      18.294   4.530  50.602  1.00  0.00    -0.274 OA
HETATM   27  H5  UNL     1      17.866   1.861  52.297  1.00  0.00     0.169 HD
ENDBRANCH  18  23
ENDBRANCH   1  16
TORSDOF 4
ENDMDL
