MODEL 1
REMARK VINA RESULT:      -8.4      0.000      0.000
REMARK  1 active torsions:
REMARK  status: ('A' for Active; 'I' for Inactive)
REMARK    1  A    between atoms: C13_16  and  N3_17 
ROOT
HETATM    1  C1  UNL     1      20.961   3.542  50.383  1.00  0.00     0.044 C 
HETATM    2  C2  UNL     1      20.945   3.144  51.785  1.00  0.00     0.237 C 
HETATM    3  N1  UNL     1      20.245   1.945  52.165  1.00  0.00     0.092 N 
HETATM    4  C3  UNL     1      19.018   1.512  51.679  1.00  0.00     0.297 C 
HETATM    5  C4  UNL     1      18.667   0.131  52.304  1.00  0.00     0.003 C 
HETATM    6  C5  UNL     1      19.118  -0.881  53.072  1.00  0.00    -0.002 C 
HETATM    7  C6  UNL     1      20.223  -1.435  53.850  1.00  0.00    -0.000 C 
HETATM    8  C7  UNL     1      21.438  -1.496  54.351  1.00  0.00     0.002 C 
HETATM    9  C8  UNL     1      22.702  -0.784  54.334  1.00  0.00     0.029 C 
HETATM   10  C9  UNL     1      23.107   0.301  53.589  1.00  0.00     0.057 C 
HETATM   11  N2  UNL     1      21.815   0.183  52.983  1.00  0.00    -0.257 NA
HETATM   12  C10 UNL     1      21.785   0.241  51.567  1.00  0.00     0.162 C 
HETATM   13  S1  UNL     1      22.378   1.798  50.848  1.00  0.00    -0.108 SA
HETATM   14  C11 UNL     1      22.382   2.939  52.327  1.00  0.00     0.070 C 
HETATM   15  C12 UNL     1      23.657   2.551  52.585  1.00  0.00     0.045 C 
HETATM   16  C13 UNL     1      24.129   1.338  53.313  1.00  0.00     0.138 C 
HETATM   17  H5  UNL     1      20.106   2.038  53.270  1.00  0.00     0.316 HD
ENDROOT
BRANCH  16  18
HETATM   18  N3  UNL     1      25.310   0.747  52.826  1.00  0.00    -0.397 N 
HETATM   19  C14 UNL     1      25.978   1.263  51.705  1.00  0.00     0.145 C 
HETATM   20  C15 UNL     1      27.076   2.216  52.051  1.00  0.00    -0.010 C 
HETATM   21  C16 UNL     1      27.569   1.849  53.241  1.00  0.00    -0.008 C 
HETATM   22  C17 UNL     1      27.280   0.779  54.213  1.00  0.00     0.122 C 
HETATM   23 CL1  UNL     1      28.710  -0.268  54.456  1.00  0.00    -0.119 Cl
HETATM   24  C18 UNL     1      26.097  -0.017  53.732  1.00  0.00     0.142 C 
ENDBRANCH  16  18
TORSDOF 1
ENDMDL
MODEL 2
REMARK VINA RESULT:      -8.1      2.710      3.942
REMARK  1 active torsions:
REMARK  status: ('A' for Active; 'I' for Inactive)
REMARK    1  A    between atoms: C13_16  and  N3_17 
ROOT
HETATM    1  C1  UNL     1      18.948   2.062  51.782  1.00  0.00     0.044 C 
HETATM    2  C2  UNL     1      20.049   2.344  52.694  1.00  0.00     0.237 C 
HETATM    3  N1  UNL     1      20.773   1.247  53.280  1.00  0.00     0.092 N 
HETATM    4  C3  UNL     1      20.232   0.062  53.763  1.00  0.00     0.297 C 
HETATM    5  C4  UNL     1      21.378  -0.877  54.242  1.00  0.00     0.003 C 
HETATM    6  C5  UNL     1      22.713  -1.052  54.297  1.00  0.00    -0.002 C 
HETATM    7  C6  UNL     1      24.035  -0.531  53.958  1.00  0.00    -0.000 C 
HETATM    8  C7  UNL     1      24.909   0.293  53.422  1.00  0.00     0.002 C 
HETATM    9  C8  UNL     1      24.977   1.492  52.609  1.00  0.00     0.029 C 
HETATM   10  C9  UNL     1      23.982   2.195  51.967  1.00  0.00     0.057 C 
HETATM   11  N2  UNL     1      23.131   1.155  52.460  1.00  0.00    -0.257 NA
HETATM   12  C10 UNL     1      22.228   0.594  51.523  1.00  0.00     0.162 C 
HETATM   13  S1  UNL     1      21.015   1.753  50.832  1.00  0.00    -0.108 SA
HETATM   14  C11 UNL     1      21.142   3.201  52.006  1.00  0.00     0.070 C 
HETATM   15  C12 UNL     1      22.115   3.719  51.214  1.00  0.00     0.045 C 
HETATM   16  C13 UNL     1      23.570   3.393  51.198  1.00  0.00     0.138 C 
HETATM   17  H5  UNL     1      21.314   1.697  54.149  1.00  0.00     0.316 HD
ENDROOT
BRANCH  16  18
HETATM   18  N3  UNL     1      24.191   3.402  49.935  1.00  0.00    -0.397 N 
HETATM   19  C14 UNL     1      23.523   3.875  48.795  1.00  0.00     0.145 C 
HETATM   20  C15 UNL     1      23.800   5.313  48.495  1.00  0.00    -0.010 C 
HETATM   21  C16 UNL     1      25.036   5.586  48.930  1.00  0.00    -0.008 C 
HETATM   22  C17 UNL     1      26.108   4.822  49.594  1.00  0.00     0.122 C 
HETATM   23 CL1  UNL     1      27.586   4.784  48.587  1.00  0.00    -0.119 Cl
HETATM   24  C18 UNL     1      25.612   3.432  49.889  1.00  0.00     0.142 C 
ENDBRANCH  16  18
TORSDOF 1
ENDMDL
MODEL 3
REMARK VINA RESULT:      -7.9      3.848      6.416
REMARK  1 active torsions:
REMARK  status: ('A' for Active; 'I' for Inactive)
REMARK    1  A    between atoms: C13_16  and  N3_17 
ROOT
HETATM    1  C1  UNL     1      21.333   5.948  50.045  1.00  0.00     0.044 C 
HETATM    2  C2  UNL     1      22.270   5.355  49.100  1.00  0.00     0.237 C 
HETATM    3  N1  UNL     1      23.364   6.148  48.606  1.00  0.00     0.092 N 
HETATM    4  C3  UNL     1      23.317   7.487  48.236  1.00  0.00     0.297 C 
HETATM    5  C4  UNL     1      24.741   7.967  47.832  1.00  0.00     0.003 C 
HETATM    6  C5  UNL     1      26.046   7.634  47.778  1.00  0.00    -0.002 C 
HETATM    7  C6  UNL     1      27.069   6.629  48.054  1.00  0.00    -0.000 C 
HETATM    8  C7  UNL     1      27.560   5.495  48.506  1.00  0.00     0.002 C 
HETATM    9  C8  UNL     1      27.156   4.291  49.207  1.00  0.00     0.029 C 
HETATM   10  C9  UNL     1      25.956   3.959  49.795  1.00  0.00     0.057 C 
HETATM   11  N2  UNL     1      25.566   5.280  49.406  1.00  0.00    -0.257 NA
HETATM   12  C10 UNL     1      24.916   6.055  50.399  1.00  0.00     0.162 C 
HETATM   13  S1  UNL     1      23.342   5.378  50.996  1.00  0.00    -0.108 SA
HETATM   14  C11 UNL     1      22.947   4.095  49.697  1.00  0.00     0.070 C 
HETATM   15  C12 UNL     1      23.638   3.185  50.429  1.00  0.00     0.045 C 
HETATM   16  C13 UNL     1      25.108   2.940  50.458  1.00  0.00     0.138 C 
HETATM   17  H5  UNL     1      23.718   5.606  47.695  1.00  0.00     0.316 HD
ENDROOT
BRANCH  16  18
HETATM   18  N3  UNL     1      25.651   2.590  51.709  1.00  0.00    -0.397 N 
HETATM   19  C14 UNL     1      24.850   2.516  52.859  1.00  0.00     0.145 C 
HETATM   20  C15 UNL     1      24.342   1.140  53.145  1.00  0.00    -0.010 C 
HETATM   21  C16 UNL     1      25.249   0.270  52.684  1.00  0.00    -0.008 C 
HETATM   22  C17 UNL     1      26.553   0.375  52.003  1.00  0.00     0.122 C 
HETATM   23 CL1  UNL     1      27.849  -0.378  52.981  1.00  0.00    -0.119 Cl
HETATM   24  C18 UNL     1      26.849   1.824  51.727  1.00  0.00     0.142 C 
ENDBRANCH  16  18
TORSDOF 1
ENDMDL
MODEL 4
REMARK VINA RESULT:      -7.9      2.656      5.102
REMARK  1 active torsions:
REMARK  status: ('A' for Active; 'I' for Inactive)
REMARK    1  A    between atoms: C13_16  and  N3_17 
ROOT
HETATM    1  C1  UNL     1      20.680   3.619  51.495  1.00  0.00     0.044 C 
HETATM    2  C2  UNL     1      21.613   3.254  50.436  1.00  0.00     0.237 C 
HETATM    3  N1  UNL     1      22.421   4.279  49.831  1.00  0.00     0.092 N 
HETATM    4  C3  UNL     1      22.014   5.564  49.492  1.00  0.00     0.297 C 
HETATM    5  C4  UNL     1      23.225   6.363  48.930  1.00  0.00     0.003 C 
HETATM    6  C5  UNL     1      24.556   6.349  48.717  1.00  0.00    -0.002 C 
HETATM    7  C6  UNL     1      25.814   5.620  48.854  1.00  0.00    -0.000 C 
HETATM    8  C7  UNL     1      26.610   4.640  49.225  1.00  0.00     0.002 C 
HETATM    9  C8  UNL     1      26.589   3.383  49.949  1.00  0.00     0.029 C 
HETATM   10  C9  UNL     1      25.580   2.782  50.668  1.00  0.00     0.057 C 
HETATM   11  N2  UNL     1      24.845   3.968  50.350  1.00  0.00    -0.257 NA
HETATM   12  C10 UNL     1      24.152   4.578  51.426  1.00  0.00     0.162 C 
HETATM   13  S1  UNL     1      22.866   3.553  52.193  1.00  0.00    -0.108 SA
HETATM   14  C11 UNL     1      22.636   2.198  50.927  1.00  0.00     0.070 C 
HETATM   15  C12 UNL     1      23.604   1.486  51.557  1.00  0.00     0.045 C 
HETATM   16  C13 UNL     1      25.084   1.598  51.409  1.00  0.00     0.138 C 
HETATM   17  H5  UNL     1      22.783   3.826  48.875  1.00  0.00     0.316 HD
ENDROOT
BRANCH  16  18
HETATM   18  N3  UNL     1      25.838   1.401  52.581  1.00  0.00    -0.397 N 
HETATM   19  C14 UNL     1      25.226   1.051  53.795  1.00  0.00     0.145 C 
HETATM   20  C15 UNL     1      25.199  -0.422  54.046  1.00  0.00    -0.010 C 
HETATM   21  C16 UNL     1      26.275  -0.953  53.452  1.00  0.00    -0.008 C 
HETATM   22  C17 UNL     1      27.403  -0.429  52.660  1.00  0.00     0.122 C 
HETATM   23 CL1  UNL     1      28.964  -0.766  53.467  1.00  0.00    -0.119 Cl
HETATM   24  C18 UNL     1      27.208   1.047  52.442  1.00  0.00     0.142 C 
ENDBRANCH  16  18
TORSDOF 1
ENDMDL
MODEL 5
REMARK VINA RESULT:      -7.7      8.947     10.872
REMARK  1 active torsions:
REMARK  status: ('A' for Active; 'I' for Inactive)
REMARK    1  A    between atoms: C13_16  and  N3_17 
ROOT
HETATM    1  C1  UNL     1      30.905  11.045  48.846  1.00  0.00     0.044 C 
HETATM    2  C2  UNL     1      30.351   9.927  49.600  1.00  0.00     0.237 C 
HETATM    3  N1  UNL     1      28.997   9.514  49.345  1.00  0.00     0.092 N 
HETATM    4  C3  UNL     1      27.904  10.343  49.123  1.00  0.00     0.297 C 
HETATM    5  C4  UNL     1      26.647   9.479  48.817  1.00  0.00     0.003 C 
HETATM    6  C5  UNL     1      26.192   8.232  48.585  1.00  0.00    -0.002 C 
HETATM    7  C6  UNL     1      26.515   6.815  48.438  1.00  0.00    -0.000 C 
HETATM    8  C7  UNL     1      27.286   5.751  48.365  1.00  0.00     0.002 C 
HETATM    9  C8  UNL     1      28.685   5.368  48.392  1.00  0.00     0.029 C 
HETATM   10  C9  UNL     1      29.824   6.142  48.410  1.00  0.00     0.057 C 
HETATM   11  N2  UNL     1      28.905   7.237  48.320  1.00  0.00    -0.257 NA
HETATM   12  C10 UNL     1      29.215   8.232  47.359  1.00  0.00     0.162 C 
HETATM   13  S1  UNL     1      30.785   9.101  47.631  1.00  0.00    -0.108 SA
HETATM   14  C11 UNL     1      31.191   8.640  49.395  1.00  0.00     0.070 C 
HETATM   15  C12 UNL     1      31.853   7.553  48.926  1.00  0.00     0.045 C 
HETATM   16  C13 UNL     1      31.298   6.225  48.534  1.00  0.00     0.138 C 
HETATM   17  H5  UNL     1      28.718   8.895  50.233  1.00  0.00     0.316 HD
ENDROOT
BRANCH  16  18
HETATM   18  N3  UNL     1      31.919   5.596  47.439  1.00  0.00    -0.397 N 
HETATM   19  C14 UNL     1      33.100   6.104  46.877  1.00  0.00     0.145 C 
HETATM   20  C15 UNL     1      34.341   5.476  47.425  1.00  0.00    -0.010 C 
HETATM   21  C16 UNL     1      34.037   4.219  47.774  1.00  0.00    -0.008 C 
HETATM   22  C17 UNL     1      32.824   3.382  47.733  1.00  0.00     0.122 C 
HETATM   23 CL1  UNL     1      33.076   1.938  46.706  1.00  0.00    -0.119 Cl
HETATM   24  C18 UNL     1      31.670   4.210  47.235  1.00  0.00     0.142 C 
ENDBRANCH  16  18
TORSDOF 1
ENDMDL
MODEL 6
REMARK VINA RESULT:      -7.5      3.300      5.394
REMARK  1 active torsions:
REMARK  status: ('A' for Active; 'I' for Inactive)
REMARK    1  A    between atoms: C13_16  and  N3_17 
ROOT
HETATM    1  C1  UNL     1      27.033   0.646  54.242  1.00  0.00     0.044 C 
HETATM    2  C2  UNL     1      26.409   0.306  52.969  1.00  0.00     0.237 C 
HETATM    3  N1  UNL     1      25.023  -0.077  52.950  1.00  0.00     0.092 N 
HETATM    4  C3  UNL     1      24.374  -0.892  53.869  1.00  0.00     0.297 C 
HETATM    5  C4  UNL     1      22.863  -0.986  53.510  1.00  0.00     0.003 C 
HETATM    6  C5  UNL     1      21.887  -0.518  52.707  1.00  0.00    -0.002 C 
HETATM    7  C6  UNL     1      21.516   0.395  51.629  1.00  0.00    -0.000 C 
HETATM    8  C7  UNL     1      21.688   1.345  50.735  1.00  0.00     0.002 C 
HETATM    9  C8  UNL     1      22.697   2.269  50.252  1.00  0.00     0.029 C 
HETATM   10  C9  UNL     1      23.962   2.539  50.724  1.00  0.00     0.057 C 
HETATM   11  N2  UNL     1      23.617   1.609  51.756  1.00  0.00    -0.257 NA
HETATM   12  C10 UNL     1      23.909   2.014  53.083  1.00  0.00     0.162 C 
HETATM   13  S1  UNL     1      25.666   2.302  53.431  1.00  0.00    -0.108 SA
HETATM   14  C11 UNL     1      26.496   1.487  51.968  1.00  0.00     0.070 C 
HETATM   15  C12 UNL     1      26.416   2.667  51.304  1.00  0.00     0.045 C 
HETATM   16  C13 UNL     1      25.261   3.229  50.545  1.00  0.00     0.138 C 
HETATM   17  H5  UNL     1      24.883  -0.582  51.962  1.00  0.00     0.316 HD
ENDROOT
BRANCH  16  18
HETATM   18  N3  UNL     1      25.092   4.624  50.622  1.00  0.00    -0.397 N 
HETATM   19  C14 UNL     1      25.707   5.487  49.702  1.00  0.00     0.145 C 
HETATM   20  C15 UNL     1      24.832   5.849  48.546  1.00  0.00    -0.010 C 
HETATM   21  C16 UNL     1      23.565   5.830  48.977  1.00  0.00    -0.008 C 
HETATM   22  C17 UNL     1      22.896   5.548  50.260  1.00  0.00     0.122 C 
HETATM   23 CL1  UNL     1      21.981   6.975  50.832  1.00  0.00    -0.119 Cl
HETATM   24  C18 UNL     1      23.927   5.121  51.269  1.00  0.00     0.142 C 
ENDBRANCH  16  18
TORSDOF 1
ENDMDL
MODEL 7
REMARK VINA RESULT:      -7.4      3.056      5.384
REMARK  1 active torsions:
REMARK  status: ('A' for Active; 'I' for Inactive)
REMARK    1  A    between atoms: C13_16  and  N3_17 
ROOT
HETATM    1  C1  UNL     1      19.296   0.317  52.092  1.00  0.00     0.044 C 
HETATM    2  C2  UNL     1      20.138   0.996  53.069  1.00  0.00     0.237 C 
HETATM    3  N1  UNL     1      21.439   0.457  53.367  1.00  0.00     0.092 N 
HETATM    4  C3  UNL     1      21.767  -0.885  53.516  1.00  0.00     0.297 C 
HETATM    5  C4  UNL     1      23.297  -1.024  53.759  1.00  0.00     0.003 C 
HETATM    6  C5  UNL     1      24.475  -0.370  53.796  1.00  0.00    -0.002 C 
HETATM    7  C6  UNL     1      25.181   0.898  53.632  1.00  0.00    -0.000 C 
HETATM    8  C7  UNL     1      25.324   2.175  53.345  1.00  0.00     0.002 C 
HETATM    9  C8  UNL     1      24.565   3.317  52.872  1.00  0.00     0.029 C 
HETATM   10  C9  UNL     1      23.269   3.400  52.412  1.00  0.00     0.057 C 
HETATM   11  N2  UNL     1      23.265   1.981  52.602  1.00  0.00    -0.257 NA
HETATM   12  C10 UNL     1      22.741   1.213  51.532  1.00  0.00     0.162 C 
HETATM   13  S1  UNL     1      20.997   1.529  51.139  1.00  0.00    -0.108 SA
HETATM   14  C11 UNL     1      20.416   2.462  52.649  1.00  0.00     0.070 C 
HETATM   15  C12 UNL     1      20.782   3.617  52.039  1.00  0.00     0.045 C 
HETATM   16  C13 UNL     1      22.134   4.243  51.970  1.00  0.00     0.138 C 
HETATM   17  H5  UNL     1      21.729   0.938  54.334  1.00  0.00     0.316 HD
ENDROOT
BRANCH  16  18
HETATM   18  N3  UNL     1      22.449   4.900  50.766  1.00  0.00    -0.397 N 
HETATM   19  C14 UNL     1      21.481   5.109  49.772  1.00  0.00     0.145 C 
HETATM   20  C15 UNL     1      20.817   6.445  49.857  1.00  0.00    -0.010 C 
HETATM   21  C16 UNL     1      21.703   7.305  50.375  1.00  0.00    -0.008 C 
HETATM   22  C17 UNL     1      23.098   7.219  50.844  1.00  0.00     0.122 C 
HETATM   23 CL1  UNL     1      24.162   8.300  49.894  1.00  0.00    -0.119 Cl
HETATM   24  C18 UNL     1      23.559   5.789  50.761  1.00  0.00     0.142 C 
ENDBRANCH  16  18
TORSDOF 1
ENDMDL
MODEL 8
REMARK VINA RESULT:      -7.2      2.985      5.500
REMARK  1 active torsions:
REMARK  status: ('A' for Active; 'I' for Inactive)
REMARK    1  A    between atoms: C13_16  and  N3_17 
ROOT
HETATM    1  C1  UNL     1      19.591  -0.518  53.092  1.00  0.00     0.044 C 
HETATM    2  C2  UNL     1      20.424   0.468  53.769  1.00  0.00     0.237 C 
HETATM    3  N1  UNL     1      21.825   0.196  53.949  1.00  0.00     0.092 N 
HETATM    4  C3  UNL     1      22.395  -1.022  54.299  1.00  0.00     0.297 C 
HETATM    5  C4  UNL     1      23.945  -0.889  54.313  1.00  0.00     0.003 C 
HETATM    6  C5  UNL     1      24.988  -0.082  54.030  1.00  0.00    -0.002 C 
HETATM    7  C6  UNL     1      25.438   1.206  53.510  1.00  0.00    -0.000 C 
HETATM    8  C7  UNL     1      25.321   2.397  52.962  1.00  0.00     0.002 C 
HETATM    9  C8  UNL     1      24.323   3.290  52.407  1.00  0.00     0.029 C 
HETATM   10  C9  UNL     1      22.984   3.089  52.157  1.00  0.00     0.057 C 
HETATM   11  N2  UNL     1      23.247   1.759  52.616  1.00  0.00    -0.257 NA
HETATM   12  C10 UNL     1      22.728   0.711  51.815  1.00  0.00     0.162 C 
HETATM   13  S1  UNL     1      20.920   0.685  51.658  1.00  0.00    -0.108 SA
HETATM   14  C11 UNL     1      20.389   1.832  53.033  1.00  0.00     0.070 C 
HETATM   15  C12 UNL     1      20.469   2.867  52.159  1.00  0.00     0.045 C 
HETATM   16  C13 UNL     1      21.672   3.648  51.751  1.00  0.00     0.138 C 
HETATM   17  H5  UNL     1      22.152   0.911  54.744  1.00  0.00     0.316 HD
ENDROOT
BRANCH  16  18
HETATM   18  N3  UNL     1      21.711   4.065  50.408  1.00  0.00    -0.397 N 
HETATM   19  C14 UNL     1      22.914   4.097  49.686  1.00  0.00     0.145 C 
HETATM   20  C15 UNL     1      23.164   2.858  48.888  1.00  0.00    -0.010 C 
HETATM   21  C16 UNL     1      21.973   2.357  48.535  1.00  0.00    -0.008 C 
HETATM   22  C17 UNL     1      20.567   2.743  48.749  1.00  0.00     0.122 C 
HETATM   23 CL1  UNL     1      19.742   3.050  47.191  1.00  0.00    -0.119 Cl
HETATM   24  C18 UNL     1      20.519   3.955  49.640  1.00  0.00     0.142 C 
ENDBRANCH  16  18
TORSDOF 1
ENDMDL
MODEL 9
REMARK VINA RESULT:      -6.8     10.301     12.424
REMARK  1 active torsions:
REMARK  status: ('A' for Active; 'I' for Inactive)
REMARK    1  A    between atoms: C13_16  and  N3_17 
ROOT
HETATM    1  C1  UNL     1      33.042  10.296  45.213  1.00  0.00     0.044 C 
HETATM    2  C2  UNL     1      32.605   9.751  46.492  1.00  0.00     0.237 C 
HETATM    3  N1  UNL     1      31.196   9.653  46.767  1.00  0.00     0.092 N 
HETATM    4  C3  UNL     1      30.222  10.593  46.452  1.00  0.00     0.297 C 
HETATM    5  C4  UNL     1      28.822  10.052  46.862  1.00  0.00     0.003 C 
HETATM    6  C5  UNL     1      28.142   8.984  47.326  1.00  0.00    -0.002 C 
HETATM    7  C6  UNL     1      28.192   7.591  47.761  1.00  0.00    -0.000 C 
HETATM    8  C7  UNL     1      28.737   6.417  48.000  1.00  0.00     0.002 C 
HETATM    9  C8  UNL     1      29.999   5.713  47.876  1.00  0.00     0.029 C 
HETATM   10  C9  UNL     1      31.181   6.096  47.284  1.00  0.00     0.057 C 
HETATM   11  N2  UNL     1      30.451   7.273  46.925  1.00  0.00    -0.257 NA
HETATM   12  C10 UNL     1      30.575   7.695  45.577  1.00  0.00     0.162 C 
HETATM   13  S1  UNL     1      32.257   8.144  45.063  1.00  0.00    -0.108 SA
HETATM   14  C11 UNL     1      33.139   8.311  46.701  1.00  0.00     0.070 C 
HETATM   15  C12 UNL     1      33.450   6.992  46.633  1.00  0.00     0.045 C 
HETATM   16  C13 UNL     1      32.613   5.819  47.017  1.00  0.00     0.138 C 
HETATM   17  H5  UNL     1      31.132   9.527  47.876  1.00  0.00     0.316 HD
ENDROOT
BRANCH  16  18
HETATM   18  N3  UNL     1      32.750   4.673  46.212  1.00  0.00    -0.397 N 
HETATM   19  C14 UNL     1      33.907   4.448  45.451  1.00  0.00     0.145 C 
HETATM   20  C15 UNL     1      34.918   3.590  46.142  1.00  0.00    -0.010 C 
HETATM   21  C16 UNL     1      34.254   2.753  46.948  1.00  0.00    -0.008 C 
HETATM   22  C17 UNL     1      32.836   2.512  47.274  1.00  0.00     0.122 C 
HETATM   23 CL1  UNL     1      32.356   0.841  46.852  1.00  0.00    -0.119 Cl
HETATM   24  C18 UNL     1      31.986   3.522  46.552  1.00  0.00     0.142 C 
ENDBRANCH  16  18
TORSDOF 1
ENDMDL
