MODEL 1
REMARK VINA RESULT:      -8.6      0.000      0.000
REMARK  4 active torsions:
REMARK  status: ('A' for Active; 'I' for Inactive)
REMARK    1  A    between atoms: C9_11  and  N2_12 
REMARK    2  A    between atoms: N2_12  and  C10_13 
REMARK    3  A    between atoms: C10_13  and  C11_14 
REMARK    4  A    between atoms: C11_14  and  C12_15 
ROOT
HETATM    1 BR1  UNL     1      29.091  -1.240  53.442  1.00  0.00    -0.051 Br
HETATM    2  C1  UNL     1      27.352  -0.529  53.121  1.00  0.00     0.011 A 
HETATM    3  C2  UNL     1      26.184  -1.172  53.488  1.00  0.00     0.022 A 
HETATM    4  C3  UNL     1      24.940  -0.600  53.224  1.00  0.00     0.039 A 
HETATM    5  C4  UNL     1      24.869   0.640  52.581  1.00  0.00     0.086 A 
HETATM    6  C5  UNL     1      26.061   1.277  52.217  1.00  0.00    -0.005 A 
HETATM    7  C6  UNL     1      27.283   0.701  52.484  1.00  0.00     0.030 A 
HETATM    8  C7  UNL     1      26.225   2.594  51.527  1.00  0.00     0.161 C 
HETATM    9  N1  UNL     1      25.281   3.570  52.019  1.00  0.00    -0.379 N 
HETATM   10  C8  UNL     1      23.867   3.520  52.098  1.00  0.00     0.128 A 
HETATM   11  C9  UNL     1      23.299   4.767  51.981  1.00  0.00     0.155 A 
HETATM   12  N3  UNL     1      21.960   4.796  52.055  1.00  0.00    -0.222 NA
HETATM   13  C17 UNL     1      21.194   3.711  52.230  1.00  0.00     0.238 A 
HETATM   14  N4  UNL     1      21.760   2.477  52.346  1.00  0.00    -0.215 NA
HETATM   15  C18 UNL     1      23.118   2.349  52.282  1.00  0.00     0.202 A 
HETATM   16  O1  UNL     1      23.527   1.029  52.416  1.00  0.00    -0.289 OA
HETATM   17  H6  UNL     1      25.641   4.487  52.395  1.00  0.00     0.160 HD
ENDROOT
BRANCH  11  18
HETATM   18  N2  UNL     1      24.050   5.956  51.781  1.00  0.00    -0.372 N 
HETATM   19  H7  UNL     1      24.777   6.435  52.304  1.00  0.00     0.161 HD
BRANCH  18  20
HETATM   20  C10 UNL     1      23.768   6.688  50.577  1.00  0.00     0.126 C 
BRANCH  20  21
HETATM   21  C11 UNL     1      24.077   5.992  49.298  1.00  0.00     0.059 C 
BRANCH  21  22
HETATM   22  C12 UNL     1      25.499   5.988  48.945  1.00  0.00    -0.043 A 
HETATM   23  C13 UNL     1      26.372   4.920  48.964  1.00  0.00     0.008 A 
HETATM   24  C14 UNL     1      27.697   4.937  48.638  1.00  0.00     0.001 A 
HETATM   25  C15 UNL     1      28.436   6.005  48.226  1.00  0.00     0.001 A 
HETATM   26  C16 UNL     1      27.948   7.286  48.067  1.00  0.00     0.016 A 
HETATM   27  P1  UNL     1      26.247   7.489  48.437  1.00  0.00    -0.027 P 
ENDBRANCH  21  22
ENDBRANCH  20  21
ENDBRANCH  18  20
ENDBRANCH  11  18
TORSDOF 4
ENDMDL
MODEL 2
REMARK VINA RESULT:      -8.1      4.204      6.350
REMARK  4 active torsions:
REMARK  status: ('A' for Active; 'I' for Inactive)
REMARK    1  A    between atoms: C9_11  and  N2_12 
REMARK    2  A    between atoms: N2_12  and  C10_13 
REMARK    3  A    between atoms: C10_13  and  C11_14 
REMARK    4  A    between atoms: C11_14  and  C12_15 
ROOT
HETATM    1 BR1  UNL     1      16.965  -0.107  50.198  1.00  0.00    -0.051 Br
HETATM    2  C1  UNL     1      18.253  -0.361  51.580  1.00  0.00     0.011 A 
HETATM    3  C2  UNL     1      18.024  -1.129  52.707  1.00  0.00     0.022 A 
HETATM    4  C3  UNL     1      19.007  -1.277  53.685  1.00  0.00     0.039 A 
HETATM    5  C4  UNL     1      20.242  -0.641  53.526  1.00  0.00     0.086 A 
HETATM    6  C5  UNL     1      20.458   0.132  52.381  1.00  0.00    -0.005 A 
HETATM    7  C6  UNL     1      19.479   0.269  51.423  1.00  0.00     0.030 A 
HETATM    8  C7  UNL     1      21.689   0.895  52.005  1.00  0.00     0.161 C 
HETATM    9  N1  UNL     1      22.887   0.157  52.329  1.00  0.00    -0.379 N 
HETATM   10  C8  UNL     1      23.320  -0.398  53.558  1.00  0.00     0.128 A 
HETATM   11  C9  UNL     1      24.691  -0.424  53.659  1.00  0.00     0.155 A 
HETATM   12  N3  UNL     1      25.172  -0.946  54.798  1.00  0.00    -0.222 NA
HETATM   13  C17 UNL     1      24.405  -1.417  55.791  1.00  0.00     0.238 A 
HETATM   14  N4  UNL     1      23.048  -1.389  55.687  1.00  0.00    -0.215 NA
HETATM   15  C18 UNL     1      22.467  -0.876  54.563  1.00  0.00     0.202 A 
HETATM   16  O1  UNL     1      21.080  -0.922  54.622  1.00  0.00    -0.289 OA
HETATM   17  H6  UNL     1      23.592  -0.034  51.568  1.00  0.00     0.160 HD
ENDROOT
BRANCH  11  18
HETATM   18  N2  UNL     1      25.562   0.071  52.652  1.00  0.00    -0.372 N 
HETATM   19  H7  UNL     1      25.866  -0.270  51.745  1.00  0.00     0.161 HD
BRANCH  18  20
HETATM   20  C10 UNL     1      26.177   1.342  52.916  1.00  0.00     0.126 C 
BRANCH  20  21
HETATM   21  C11 UNL     1      26.150   2.329  51.802  1.00  0.00     0.059 C 
BRANCH  21  22
HETATM   22  C12 UNL     1      24.890   3.069  51.687  1.00  0.00    -0.043 A 
HETATM   23  C13 UNL     1      24.136   3.619  52.702  1.00  0.00     0.008 A 
HETATM   24  C14 UNL     1      22.960   4.300  52.576  1.00  0.00     0.001 A 
HETATM   25  C15 UNL     1      22.284   4.580  51.426  1.00  0.00     0.001 A 
HETATM   26  C16 UNL     1      22.692   4.209  50.161  1.00  0.00     0.016 A 
HETATM   27  P1  UNL     1      24.198   3.314  50.095  1.00  0.00    -0.027 P 
ENDBRANCH  21  22
ENDBRANCH  20  21
ENDBRANCH  18  20
ENDBRANCH  11  18
TORSDOF 4
ENDMDL
MODEL 3
REMARK VINA RESULT:      -7.6      5.138      7.264
REMARK  4 active torsions:
REMARK  status: ('A' for Active; 'I' for Inactive)
REMARK    1  A    between atoms: C9_11  and  N2_12 
REMARK    2  A    between atoms: N2_12  and  C10_13 
REMARK    3  A    between atoms: C10_13  and  C11_14 
REMARK    4  A    between atoms: C11_14  and  C12_15 
ROOT
HETATM    1 BR1  UNL     1      15.848   0.390  49.076  1.00  0.00    -0.051 Br
HETATM    2  C1  UNL     1      17.012   0.027  50.542  1.00  0.00     0.011 A 
HETATM    3  C2  UNL     1      16.691  -0.832  51.577  1.00  0.00     0.022 A 
HETATM    4  C3  UNL     1      17.586  -1.056  52.624  1.00  0.00     0.039 A 
HETATM    5  C4  UNL     1      18.824  -0.406  52.628  1.00  0.00     0.086 A 
HETATM    6  C5  UNL     1      19.132   0.459  51.572  1.00  0.00    -0.005 A 
HETATM    7  C6  UNL     1      18.240   0.671  50.546  1.00  0.00     0.030 A 
HETATM    8  C7  UNL     1      20.383   1.253  51.371  1.00  0.00     0.161 C 
HETATM    9  N1  UNL     1      21.556   0.495  51.739  1.00  0.00    -0.379 N 
HETATM   10  C8  UNL     1      21.884  -0.157  52.953  1.00  0.00     0.128 A 
HETATM   11  C9  UNL     1      23.241  -0.188  53.172  1.00  0.00     0.155 A 
HETATM   12  N3  UNL     1      23.625  -0.800  54.303  1.00  0.00    -0.222 NA
HETATM   13  C17 UNL     1      22.779  -1.354  55.182  1.00  0.00     0.238 A 
HETATM   14  N4  UNL     1      21.435  -1.321  54.961  1.00  0.00    -0.215 NA
HETATM   15  C18 UNL     1      20.951  -0.719  53.835  1.00  0.00     0.202 A 
HETATM   16  O1  UNL     1      19.565  -0.774  53.766  1.00  0.00    -0.289 OA
HETATM   17  H6  UNL     1      22.327   0.369  51.030  1.00  0.00     0.160 HD
ENDROOT
BRANCH  11  18
HETATM   18  N2  UNL     1      24.193   0.390  52.290  1.00  0.00    -0.372 N 
HETATM   19  H7  UNL     1      24.761   0.037  51.526  1.00  0.00     0.161 HD
BRANCH  18  20
HETATM   20  C10 UNL     1      24.446   1.794  52.464  1.00  0.00     0.126 C 
BRANCH  20  21
HETATM   21  C11 UNL     1      25.103   2.190  53.740  1.00  0.00     0.059 C 
BRANCH  21  22
HETATM   22  C12 UNL     1      26.503   1.771  53.849  1.00  0.00    -0.043 A 
HETATM   23  C13 UNL     1      27.616   2.396  53.327  1.00  0.00     0.008 A 
HETATM   24  C14 UNL     1      28.913   1.987  53.434  1.00  0.00     0.001 A 
HETATM   25  C15 UNL     1      29.383   0.880  54.077  1.00  0.00     0.001 A 
HETATM   26  C16 UNL     1      28.598  -0.036  54.745  1.00  0.00     0.016 A 
HETATM   27  P1  UNL     1      26.878   0.304  54.731  1.00  0.00    -0.027 P 
ENDBRANCH  21  22
ENDBRANCH  20  21
ENDBRANCH  18  20
ENDBRANCH  11  18
TORSDOF 4
ENDMDL
MODEL 4
REMARK VINA RESULT:      -7.6      1.846      2.728
REMARK  4 active torsions:
REMARK  status: ('A' for Active; 'I' for Inactive)
REMARK    1  A    between atoms: C9_11  and  N2_12 
REMARK    2  A    between atoms: N2_12  and  C10_13 
REMARK    3  A    between atoms: C10_13  and  C11_14 
REMARK    4  A    between atoms: C11_14  and  C12_15 
ROOT
HETATM    1 BR1  UNL     1      29.334  -0.884  53.457  1.00  0.00    -0.051 Br
HETATM    2  C1  UNL     1      27.538  -0.328  53.143  1.00  0.00     0.011 A 
HETATM    3  C2  UNL     1      26.432  -1.087  53.479  1.00  0.00     0.022 A 
HETATM    4  C3  UNL     1      25.142  -0.625  53.223  1.00  0.00     0.039 A 
HETATM    5  C4  UNL     1      24.961   0.623  52.619  1.00  0.00     0.086 A 
HETATM    6  C5  UNL     1      26.089   1.379  52.285  1.00  0.00    -0.005 A 
HETATM    7  C6  UNL     1      27.358   0.911  52.544  1.00  0.00     0.030 A 
HETATM    8  C7  UNL     1      26.135   2.727  51.638  1.00  0.00     0.161 C 
HETATM    9  N1  UNL     1      25.101   3.595  52.151  1.00  0.00    -0.379 N 
HETATM   10  C8  UNL     1      23.698   3.411  52.217  1.00  0.00     0.128 A 
HETATM   11  C9  UNL     1      23.017   4.603  52.134  1.00  0.00     0.155 A 
HETATM   12  N3  UNL     1      21.681   4.507  52.198  1.00  0.00    -0.222 NA
HETATM   13  C17 UNL     1      21.018   3.350  52.332  1.00  0.00     0.238 A 
HETATM   14  N4  UNL     1      21.695   2.171  52.413  1.00  0.00    -0.215 NA
HETATM   15  C18 UNL     1      23.060   2.172  52.357  1.00  0.00     0.202 A 
HETATM   16  O1  UNL     1      23.589   0.891  52.454  1.00  0.00    -0.289 OA
HETATM   17  H6  UNL     1      25.372   4.529  52.559  1.00  0.00     0.160 HD
ENDROOT
BRANCH  11  18
HETATM   18  N2  UNL     1      23.656   5.863  51.977  1.00  0.00    -0.372 N 
HETATM   19  H7  UNL     1      24.251   6.437  52.567  1.00  0.00     0.161 HD
BRANCH  18  20
HETATM   20  C10 UNL     1      23.458   6.521  50.715  1.00  0.00     0.126 C 
BRANCH  20  21
HETATM   21  C11 UNL     1      24.245   5.993  49.568  1.00  0.00     0.059 C 
BRANCH  21  22
HETATM   22  C12 UNL     1      23.429   5.516  48.448  1.00  0.00    -0.043 A 
HETATM   23  C13 UNL     1      23.007   6.228  47.345  1.00  0.00     0.008 A 
HETATM   24  C14 UNL     1      22.241   5.768  46.314  1.00  0.00     0.001 A 
HETATM   25  C15 UNL     1      21.731   4.514  46.156  1.00  0.00     0.001 A 
HETATM   26  C16 UNL     1      21.914   3.471  47.041  1.00  0.00     0.016 A 
HETATM   27  P1  UNL     1      22.881   3.851  48.453  1.00  0.00    -0.027 P 
ENDBRANCH  21  22
ENDBRANCH  20  21
ENDBRANCH  18  20
ENDBRANCH  11  18
TORSDOF 4
ENDMDL
MODEL 5
REMARK VINA RESULT:      -7.5      4.953      7.933
REMARK  4 active torsions:
REMARK  status: ('A' for Active; 'I' for Inactive)
REMARK    1  A    between atoms: C9_11  and  N2_12 
REMARK    2  A    between atoms: N2_12  and  C10_13 
REMARK    3  A    between atoms: C10_13  and  C11_14 
REMARK    4  A    between atoms: C11_14  and  C12_15 
ROOT
HETATM    1 BR1  UNL     1      28.978  -1.194  53.490  1.00  0.00    -0.051 Br
HETATM    2  C1  UNL     1      27.531   0.038  53.343  1.00  0.00     0.011 A 
HETATM    3  C2  UNL     1      27.701   1.402  53.202  1.00  0.00     0.022 A 
HETATM    4  C3  UNL     1      26.601   2.254  53.101  1.00  0.00     0.039 A 
HETATM    5  C4  UNL     1      25.308   1.722  53.141  1.00  0.00     0.086 A 
HETATM    6  C5  UNL     1      25.154   0.339  53.284  1.00  0.00    -0.005 A 
HETATM    7  C6  UNL     1      26.249  -0.490  53.383  1.00  0.00     0.030 A 
HETATM    8  C7  UNL     1      23.880  -0.442  53.351  1.00  0.00     0.161 C 
HETATM    9  N1  UNL     1      22.900   0.064  52.419  1.00  0.00    -0.379 N 
HETATM   10  C8  UNL     1      22.369   1.369  52.263  1.00  0.00     0.128 A 
HETATM   11  C9  UNL     1      21.078   1.348  51.790  1.00  0.00     0.155 A 
HETATM   12  N3  UNL     1      20.513   2.551  51.611  1.00  0.00    -0.222 NA
HETATM   13  C17 UNL     1      21.130   3.715  51.863  1.00  0.00     0.238 A 
HETATM   14  N4  UNL     1      22.408   3.731  52.331  1.00  0.00    -0.215 NA
HETATM   15  C18 UNL     1      23.064   2.553  52.545  1.00  0.00     0.202 A 
HETATM   16  O1  UNL     1      24.353   2.750  53.022  1.00  0.00    -0.289 OA
HETATM   17  H6  UNL     1      22.476  -0.595  51.713  1.00  0.00     0.160 HD
ENDROOT
BRANCH  11  18
HETATM   18  N2  UNL     1      20.362   0.152  51.516  1.00  0.00    -0.372 N 
HETATM   19  H7  UNL     1      20.590  -0.725  51.057  1.00  0.00     0.161 HD
BRANCH  18  20
HETATM   20  C10 UNL     1      19.000   0.110  51.973  1.00  0.00     0.126 C 
BRANCH  20  21
HETATM   21  C11 UNL     1      18.760  -0.604  53.257  1.00  0.00     0.059 C 
BRANCH  21  22
HETATM   22  C12 UNL     1      17.774  -1.685  53.167  1.00  0.00    -0.043 A 
HETATM   23  C13 UNL     1      17.883  -2.971  53.652  1.00  0.00     0.008 A 
HETATM   24  C14 UNL     1      16.955  -3.967  53.553  1.00  0.00     0.001 A 
HETATM   25  C15 UNL     1      15.731  -3.903  52.958  1.00  0.00     0.001 A 
HETATM   26  C16 UNL     1      15.213  -2.784  52.338  1.00  0.00     0.016 A 
HETATM   27  P1  UNL     1      16.254  -1.374  52.351  1.00  0.00    -0.027 P 
ENDBRANCH  21  22
ENDBRANCH  20  21
ENDBRANCH  18  20
ENDBRANCH  11  18
TORSDOF 4
ENDMDL
MODEL 6
REMARK VINA RESULT:      -7.4      3.554      6.213
REMARK  4 active torsions:
REMARK  status: ('A' for Active; 'I' for Inactive)
REMARK    1  A    between atoms: C9_11  and  N2_12 
REMARK    2  A    between atoms: N2_12  and  C10_13 
REMARK    3  A    between atoms: C10_13  and  C11_14 
REMARK    4  A    between atoms: C11_14  and  C12_15 
ROOT
HETATM    1 BR1  UNL     1      27.175   9.070  46.955  1.00  0.00    -0.051 Br
HETATM    2  C1  UNL     1      27.178   7.344  47.764  1.00  0.00     0.011 A 
HETATM    3  C2  UNL     1      28.308   6.554  47.875  1.00  0.00     0.022 A 
HETATM    4  C3  UNL     1      28.246   5.298  48.477  1.00  0.00     0.039 A 
HETATM    5  C4  UNL     1      27.027   4.829  48.977  1.00  0.00     0.086 A 
HETATM    6  C5  UNL     1      25.894   5.640  48.856  1.00  0.00    -0.005 A 
HETATM    7  C6  UNL     1      25.969   6.879  48.260  1.00  0.00     0.030 A 
HETATM    8  C7  UNL     1      24.500   5.347  49.313  1.00  0.00     0.161 C 
HETATM    9  N1  UNL     1      24.492   4.687  50.597  1.00  0.00    -0.379 N 
HETATM   10  C8  UNL     1      25.135   3.498  51.022  1.00  0.00     0.128 A 
HETATM   11  C9  UNL     1      24.425   2.849  52.004  1.00  0.00     0.155 A 
HETATM   12  N3  UNL     1      24.980   1.716  52.461  1.00  0.00    -0.222 NA
HETATM   13  C17 UNL     1      26.142   1.218  52.017  1.00  0.00     0.238 A 
HETATM   14  N4  UNL     1      26.843   1.863  51.043  1.00  0.00    -0.215 NA
HETATM   15  C18 UNL     1      26.354   3.025  50.518  1.00  0.00     0.202 A 
HETATM   16  O1  UNL     1      27.189   3.549  49.539  1.00  0.00    -0.289 OA
HETATM   17  H6  UNL     1      23.939   5.111  51.388  1.00  0.00     0.160 HD
ENDROOT
BRANCH  11  18
HETATM   18  N2  UNL     1      23.181   3.314  52.511  1.00  0.00    -0.372 N 
HETATM   19  H7  UNL     1      22.888   4.133  53.035  1.00  0.00     0.161 HD
BRANCH  18  20
HETATM   20  C10 UNL     1      22.039   2.482  52.248  1.00  0.00     0.126 C 
BRANCH  20  21
HETATM   21  C11 UNL     1      20.996   3.061  51.358  1.00  0.00     0.059 C 
BRANCH  21  22
HETATM   22  C12 UNL     1      21.348   3.053  49.936  1.00  0.00    -0.043 A 
HETATM   23  C13 UNL     1      22.119   2.131  49.260  1.00  0.00     0.008 A 
HETATM   24  C14 UNL     1      22.441   2.144  47.934  1.00  0.00     0.001 A 
HETATM   25  C15 UNL     1      22.073   3.067  47.001  1.00  0.00     0.001 A 
HETATM   26  C16 UNL     1      21.288   4.173  47.253  1.00  0.00     0.016 A 
HETATM   27  P1  UNL     1      20.757   4.349  48.914  1.00  0.00    -0.027 P 
ENDBRANCH  21  22
ENDBRANCH  20  21
ENDBRANCH  18  20
ENDBRANCH  11  18
TORSDOF 4
ENDMDL
MODEL 7
REMARK VINA RESULT:      -7.3      3.415      4.491
REMARK  4 active torsions:
REMARK  status: ('A' for Active; 'I' for Inactive)
REMARK    1  A    between atoms: C9_11  and  N2_12 
REMARK    2  A    between atoms: N2_12  and  C10_13 
REMARK    3  A    between atoms: C10_13  and  C11_14 
REMARK    4  A    between atoms: C11_14  and  C12_15 
ROOT
HETATM    1 BR1  UNL     1      28.715  -2.355  53.117  1.00  0.00    -0.051 Br
HETATM    2  C1  UNL     1      27.622  -0.793  53.142  1.00  0.00     0.011 A 
HETATM    3  C2  UNL     1      28.123   0.491  53.033  1.00  0.00     0.022 A 
HETATM    4  C3  UNL     1      27.271   1.595  53.059  1.00  0.00     0.039 A 
HETATM    5  C4  UNL     1      25.893   1.404  53.197  1.00  0.00     0.086 A 
HETATM    6  C5  UNL     1      25.403   0.098  53.306  1.00  0.00    -0.005 A 
HETATM    7  C6  UNL     1      26.255  -0.984  53.278  1.00  0.00     0.030 A 
HETATM    8  C7  UNL     1      23.981  -0.341  53.460  1.00  0.00     0.161 C 
HETATM    9  N1  UNL     1      23.093   0.446  52.637  1.00  0.00    -0.379 N 
HETATM   10  C8  UNL     1      22.902   1.848  52.574  1.00  0.00     0.128 A 
HETATM   11  C9  UNL     1      21.615   2.178  52.217  1.00  0.00     0.155 A 
HETATM   12  N3  UNL     1      21.364   3.493  52.130  1.00  0.00    -0.222 NA
HETATM   13  C17 UNL     1      22.274   4.449  52.365  1.00  0.00     0.238 A 
HETATM   14  N4  UNL     1      23.547   4.118  52.718  1.00  0.00    -0.215 NA
HETATM   15  C18 UNL     1      23.895   2.802  52.832  1.00  0.00     0.202 A 
HETATM   16  O1  UNL     1      25.225   2.643  53.199  1.00  0.00    -0.289 OA
HETATM   17  H6  UNL     1      22.462  -0.045  51.950  1.00  0.00     0.160 HD
ENDROOT
BRANCH  11  18
HETATM   18  N2  UNL     1      20.599   1.218  51.967  1.00  0.00    -0.372 N 
HETATM   19  H7  UNL     1      20.491   0.228  52.167  1.00  0.00     0.161 HD
BRANCH  18  20
HETATM   20  C10 UNL     1      19.428   1.698  51.285  1.00  0.00     0.126 C 
BRANCH  20  21
HETATM   21  C11 UNL     1      19.260   1.250  49.875  1.00  0.00     0.059 C 
BRANCH  21  22
HETATM   22  C12 UNL     1      20.216   1.846  48.938  1.00  0.00    -0.043 A 
HETATM   23  C13 UNL     1      21.469   1.380  48.597  1.00  0.00     0.008 A 
HETATM   24  C14 UNL     1      22.348   1.953  47.725  1.00  0.00     0.001 A 
HETATM   25  C15 UNL     1      22.178   3.101  47.011  1.00  0.00     0.001 A 
HETATM   26  C16 UNL     1      21.052   3.896  47.053  1.00  0.00     0.016 A 
HETATM   27  P1  UNL     1      19.781   3.336  48.123  1.00  0.00    -0.027 P 
ENDBRANCH  21  22
ENDBRANCH  20  21
ENDBRANCH  18  20
ENDBRANCH  11  18
TORSDOF 4
ENDMDL
MODEL 8
REMARK VINA RESULT:      -7.3      3.944      7.463
REMARK  4 active torsions:
REMARK  status: ('A' for Active; 'I' for Inactive)
REMARK    1  A    between atoms: C9_11  and  N2_12 
REMARK    2  A    between atoms: N2_12  and  C10_13 
REMARK    3  A    between atoms: C10_13  and  C11_14 
REMARK    4  A    between atoms: C11_14  and  C12_15 
ROOT
HETATM    1 BR1  UNL     1      27.509   9.439  46.853  1.00  0.00    -0.051 Br
HETATM    2  C1  UNL     1      27.460   7.699  47.629  1.00  0.00     0.011 A 
HETATM    3  C2  UNL     1      28.570   6.881  47.742  1.00  0.00     0.022 A 
HETATM    4  C3  UNL     1      28.471   5.616  48.319  1.00  0.00     0.039 A 
HETATM    5  C4  UNL     1      27.234   5.165  48.790  1.00  0.00     0.086 A 
HETATM    6  C5  UNL     1      26.121   6.004  48.668  1.00  0.00    -0.005 A 
HETATM    7  C6  UNL     1      26.233   7.252  48.097  1.00  0.00     0.030 A 
HETATM    8  C7  UNL     1      24.715   5.733  49.098  1.00  0.00     0.161 C 
HETATM    9  N1  UNL     1      24.672   5.049  50.369  1.00  0.00    -0.379 N 
HETATM   10  C8  UNL     1      25.282   3.838  50.780  1.00  0.00     0.128 A 
HETATM   11  C9  UNL     1      24.542   3.187  51.739  1.00  0.00     0.155 A 
HETATM   12  N3  UNL     1      25.064   2.034  52.182  1.00  0.00    -0.222 NA
HETATM   13  C17 UNL     1      26.222   1.518  51.746  1.00  0.00     0.238 A 
HETATM   14  N4  UNL     1      26.952   2.165  50.796  1.00  0.00    -0.215 NA
HETATM   15  C18 UNL     1      26.498   3.348  50.286  1.00  0.00     0.202 A 
HETATM   16  O1  UNL     1      27.359   3.871  49.330  1.00  0.00    -0.289 OA
HETATM   17  H6  UNL     1      24.117   5.471  51.160  1.00  0.00     0.160 HD
ENDROOT
BRANCH  11  18
HETATM   18  N2  UNL     1      23.301   3.670  52.236  1.00  0.00    -0.372 N 
HETATM   19  H7  UNL     1      23.033   4.309  52.978  1.00  0.00     0.161 HD
BRANCH  18  20
HETATM   20  C10 UNL     1      22.122   3.185  51.573  1.00  0.00     0.126 C 
BRANCH  20  21
HETATM   21  C11 UNL     1      22.166   1.774  51.103  1.00  0.00     0.059 C 
BRANCH  21  22
HETATM   22  C12 UNL     1      21.672   0.800  52.081  1.00  0.00    -0.043 A 
HETATM   23  C13 UNL     1      22.409   0.043  52.968  1.00  0.00     0.008 A 
HETATM   24  C14 UNL     1      21.931  -0.864  53.868  1.00  0.00     0.001 A 
HETATM   25  C15 UNL     1      20.632  -1.214  54.081  1.00  0.00     0.001 A 
HETATM   26  C16 UNL     1      19.552  -0.691  53.400  1.00  0.00     0.016 A 
HETATM   27  P1  UNL     1      19.947   0.508  52.183  1.00  0.00    -0.027 P 
ENDBRANCH  21  22
ENDBRANCH  20  21
ENDBRANCH  18  20
ENDBRANCH  11  18
TORSDOF 4
ENDMDL
MODEL 9
REMARK VINA RESULT:      -7.2      2.923      4.282
REMARK  4 active torsions:
REMARK  status: ('A' for Active; 'I' for Inactive)
REMARK    1  A    between atoms: C9_11  and  N2_12 
REMARK    2  A    between atoms: N2_12  and  C10_13 
REMARK    3  A    between atoms: C10_13  and  C11_14 
REMARK    4  A    between atoms: C11_14  and  C12_15 
ROOT
HETATM    1 BR1  UNL     1      27.200  -0.559  52.824  1.00  0.00    -0.051 Br
HETATM    2  C1  UNL     1      26.107   0.954  52.438  1.00  0.00     0.011 A 
HETATM    3  C2  UNL     1      24.972   1.281  53.158  1.00  0.00     0.022 A 
HETATM    4  C3  UNL     1      24.212   2.402  52.827  1.00  0.00     0.039 A 
HETATM    5  C4  UNL     1      24.601   3.209  51.753  1.00  0.00     0.086 A 
HETATM    6  C5  UNL     1      25.751   2.865  51.035  1.00  0.00    -0.005 A 
HETATM    7  C6  UNL     1      26.492   1.755  51.373  1.00  0.00     0.030 A 
HETATM    8  C7  UNL     1      26.349   3.574  49.861  1.00  0.00     0.161 C 
HETATM    9  N1  UNL     1      26.284   5.008  50.021  1.00  0.00    -0.379 N 
HETATM   10  C8  UNL     1      25.176   5.855  50.269  1.00  0.00     0.128 A 
HETATM   11  C9  UNL     1      25.350   7.106  49.726  1.00  0.00     0.155 A 
HETATM   12  N3  UNL     1      24.341   7.965  49.929  1.00  0.00    -0.222 NA
HETATM   13  C17 UNL     1      23.225   7.665  50.608  1.00  0.00     0.238 A 
HETATM   14  N4  UNL     1      23.056   6.425  51.145  1.00  0.00    -0.215 NA
HETATM   15  C18 UNL     1      24.032   5.483  50.988  1.00  0.00     0.202 A 
HETATM   16  O1  UNL     1      23.700   4.279  51.594  1.00  0.00    -0.289 OA
HETATM   17  H6  UNL     1      27.173   5.571  49.956  1.00  0.00     0.160 HD
ENDROOT
BRANCH  11  18
HETATM   18  N2  UNL     1      26.501   7.486  48.984  1.00  0.00    -0.372 N 
HETATM   19  H7  UNL     1      26.889   7.216  48.085  1.00  0.00     0.161 HD
BRANCH  18  20
HETATM   20  C10 UNL     1      27.342   8.483  49.587  1.00  0.00     0.126 C 
BRANCH  20  21
HETATM   21  C11 UNL     1      28.699   8.641  48.997  1.00  0.00     0.059 C 
BRANCH  21  22
HETATM   22  C12 UNL     1      29.174  10.027  48.947  1.00  0.00    -0.043 A 
HETATM   23  C13 UNL     1      30.453  10.492  49.172  1.00  0.00     0.008 A 
HETATM   24  C14 UNL     1      30.875  11.789  49.126  1.00  0.00     0.001 A 
HETATM   25  C15 UNL     1      30.128  12.895  48.851  1.00  0.00     0.001 A 
HETATM   26  C16 UNL     1      28.778  12.883  48.564  1.00  0.00     0.016 A 
HETATM   27  P1  UNL     1      28.028  11.298  48.569  1.00  0.00    -0.027 P 
ENDBRANCH  21  22
ENDBRANCH  20  21
ENDBRANCH  18  20
ENDBRANCH  11  18
TORSDOF 4
ENDMDL
