MODEL 1
REMARK VINA RESULT:      -8.8      0.000      0.000
REMARK  5 active torsions:
REMARK  status: ('A' for Active; 'I' for Inactive)
REMARK    1  A    between atoms: C5_6  and  C6_7 
REMARK    2  A    between atoms: C6_7  and  S1_8 
REMARK    3  A    between atoms: S1_8  and  C7_9 
REMARK    4  A    between atoms: C15_18  and  C16_19 
REMARK    5  A    between atoms: C17_20  and  C18_21 
ROOT
HETATM    1  C7  UNL     1      24.836   2.422  52.024  1.00  0.00     0.009 A 
HETATM    2  C8  UNL     1      24.210   3.579  52.150  1.00  0.00     0.019 A 
HETATM    3  C9  UNL     1      22.773   3.398  52.329  1.00  0.00     0.029 A 
HETATM    4  C10 UNL     1      22.539   2.071  52.308  1.00  0.00     0.041 A 
HETATM    5  N1  UNL     1      21.232   1.474  52.454  1.00  0.00    -0.341 N 
HETATM    6  C11 UNL     1      20.961   0.165  52.944  1.00  0.00     0.146 C 
HETATM    7  C12 UNL     1      19.628  -0.314  52.780  1.00  0.00     0.052 A 
HETATM    8  C13 UNL     1      18.728  -1.161  53.472  1.00  0.00     0.025 A 
HETATM    9  C14 UNL     1      17.487  -1.368  52.948  1.00  0.00     0.029 A 
HETATM   10  C15 UNL     1      17.162  -0.741  51.763  1.00  0.00     0.059 A 
HETATM   11  S2  UNL     1      18.639   0.221  51.287  1.00  0.00    -0.077 SA
HETATM   12  N3  UNL     1      21.827  -0.630  53.532  1.00  0.00    -0.223 NA
HETATM   13  C22 UNL     1      23.221  -0.334  53.796  1.00  0.00     0.230 C 
HETATM   14  N4  UNL     1      24.031   0.470  53.218  1.00  0.00    -0.266 NA
HETATM   15  C23 UNL     1      23.822   1.350  52.109  1.00  0.00     0.198 A 
HETATM   16  H8  UNL     1      20.453   2.075  52.168  1.00  0.00     0.167 HD
ENDROOT
BRANCH  10  17
HETATM   17  C16 UNL     1      15.918  -0.812  51.028  1.00  0.00    -0.057 C 
HETATM   18  C17 UNL     1      14.878  -0.882  50.435  1.00  0.00    -0.065 C 
BRANCH  18  19
HETATM   19  C18 UNL     1      13.613  -0.957  49.696  1.00  0.00     0.299 C 
HETATM   20  C19 UNL     1      13.885  -1.447  48.304  1.00  0.00     0.050 C 
HETATM   21  C20 UNL     1      13.086  -2.739  48.236  1.00  0.00     0.033 C 
HETATM   22  C21 UNL     1      12.017  -2.498  49.266  1.00  0.00     0.271 C 
HETATM   23  N2  UNL     1      12.780  -1.924  50.361  1.00  0.00     0.099 N 
HETATM   24  H18 UNL     1      12.185  -1.447  51.070  1.00  0.00     0.317 HD
ENDBRANCH  18  19
ENDBRANCH  10  17
BRANCH   1  25
HETATM   25  S1  UNL     1      26.578   2.099  51.786  1.00  0.00    -0.127 SA
BRANCH  25  26
HETATM   26  C6  UNL     1      27.431   1.934  53.362  1.00  0.00     0.117 C 
BRANCH  26  27
HETATM   27  C5  UNL     1      28.160   0.661  53.363  1.00  0.00    -0.046 A 
HETATM   28  C4  UNL     1      29.458   0.430  53.757  1.00  0.00     0.008 A 
HETATM   29  C3  UNL     1      29.970  -0.860  53.682  1.00  0.00     0.004 A 
HETATM   30  C2  UNL     1      29.185  -1.920  53.211  1.00  0.00     0.042 A 
HETATM   31  C1  UNL     1      27.880  -1.689  52.815  1.00  0.00     0.117 A 
HETATM   32  F1  UNL     1      27.143  -2.736  52.363  1.00  0.00    -0.206 F 
HETATM   33  C24 UNL     1      27.380  -0.400  52.894  1.00  0.00     0.050 A 
ENDBRANCH  26  27
ENDBRANCH  25  26
ENDBRANCH   1  25
TORSDOF 5
ENDMDL
MODEL 2
REMARK VINA RESULT:      -8.6      5.475     12.152
REMARK  5 active torsions:
REMARK  status: ('A' for Active; 'I' for Inactive)
REMARK    1  A    between atoms: C5_6  and  C6_7 
REMARK    2  A    between atoms: C6_7  and  S1_8 
REMARK    3  A    between atoms: S1_8  and  C7_9 
REMARK    4  A    between atoms: C15_18  and  C16_19 
REMARK    5  A    between atoms: C17_20  and  C18_21 
ROOT
HETATM    1  C7  UNL     1      21.756   3.347  51.412  1.00  0.00     0.009 A 
HETATM    2  C8  UNL     1      22.425   3.409  52.550  1.00  0.00     0.019 A 
HETATM    3  C9  UNL     1      23.738   4.019  52.371  1.00  0.00     0.029 A 
HETATM    4  C10 UNL     1      23.851   4.333  51.065  1.00  0.00     0.041 A 
HETATM    5  N1  UNL     1      25.012   4.960  50.476  1.00  0.00    -0.341 N 
HETATM    6  C11 UNL     1      25.023   5.760  49.298  1.00  0.00     0.146 C 
HETATM    7  C12 UNL     1      26.303   6.079  48.757  1.00  0.00     0.052 A 
HETATM    8  C13 UNL     1      26.904   7.152  48.056  1.00  0.00     0.025 A 
HETATM    9  C14 UNL     1      28.217   7.054  47.703  1.00  0.00     0.029 A 
HETATM   10  C15 UNL     1      28.904   5.908  48.047  1.00  0.00     0.059 A 
HETATM   11  S2  UNL     1      27.702   4.850  48.924  1.00  0.00    -0.077 SA
HETATM   12  N3  UNL     1      23.964   6.226  48.677  1.00  0.00    -0.223 NA
HETATM   13  C22 UNL     1      22.582   6.020  49.064  1.00  0.00     0.230 C 
HETATM   14  N4  UNL     1      22.033   5.088  49.745  1.00  0.00    -0.266 NA
HETATM   15  C23 UNL     1      22.610   3.929  50.355  1.00  0.00     0.198 A 
HETATM   16  H8  UNL     1      25.889   4.790  50.978  1.00  0.00     0.167 HD
ENDROOT
BRANCH  10  17
HETATM   17  C16 UNL     1      30.289   5.584  47.782  1.00  0.00    -0.057 C 
HETATM   18  C17 UNL     1      31.442   5.336  47.568  1.00  0.00    -0.065 C 
BRANCH  18  19
HETATM   19  C18 UNL     1      32.849   5.014  47.301  1.00  0.00     0.299 C 
HETATM   20  C19 UNL     1      33.544   6.239  46.786  1.00  0.00     0.050 C 
HETATM   21  C20 UNL     1      34.621   6.485  47.831  1.00  0.00     0.033 C 
HETATM   22  C21 UNL     1      34.821   5.107  48.400  1.00  0.00     0.271 C 
HETATM   23  N2  UNL     1      33.453   4.645  48.554  1.00  0.00     0.099 N 
HETATM   24  H18 UNL     1      33.380   3.614  48.690  1.00  0.00     0.317 HD
ENDBRANCH  18  19
ENDBRANCH  10  17
BRANCH   1  25
HETATM   25  S1  UNL     1      20.122   2.697  51.095  1.00  0.00    -0.127 SA
BRANCH  25  26
HETATM   26  C6  UNL     1      20.124   0.898  51.093  1.00  0.00     0.117 C 
BRANCH  26  27
HETATM   27  C5  UNL     1      20.728   0.435  52.346  1.00  0.00    -0.046 A 
HETATM   28  C4  UNL     1      20.196   0.489  53.614  1.00  0.00     0.008 A 
HETATM   29  C3  UNL     1      20.933  -0.009  54.681  1.00  0.00     0.004 A 
HETATM   30  C2  UNL     1      22.205  -0.560  54.483  1.00  0.00     0.042 A 
HETATM   31  C1  UNL     1      22.742  -0.616  53.210  1.00  0.00     0.117 A 
HETATM   32  F1  UNL     1      23.977  -1.157  53.047  1.00  0.00    -0.206 F 
HETATM   33  C24 UNL     1      21.998  -0.118  52.153  1.00  0.00     0.050 A 
ENDBRANCH  26  27
ENDBRANCH  25  26
ENDBRANCH   1  25
TORSDOF 5
ENDMDL
MODEL 3
REMARK VINA RESULT:      -8.4      6.890     11.927
REMARK  5 active torsions:
REMARK  status: ('A' for Active; 'I' for Inactive)
REMARK    1  A    between atoms: C5_6  and  C6_7 
REMARK    2  A    between atoms: C6_7  and  S1_8 
REMARK    3  A    between atoms: S1_8  and  C7_9 
REMARK    4  A    between atoms: C15_18  and  C16_19 
REMARK    5  A    between atoms: C17_20  and  C18_21 
ROOT
HETATM    1  C7  UNL     1      23.158   2.710  50.388  1.00  0.00     0.009 A 
HETATM    2  C8  UNL     1      22.333   3.197  49.478  1.00  0.00     0.019 A 
HETATM    3  C9  UNL     1      22.926   4.316  48.755  1.00  0.00     0.029 A 
HETATM    4  C10 UNL     1      24.162   4.500  49.261  1.00  0.00     0.041 A 
HETATM    5  N1  UNL     1      25.082   5.518  48.811  1.00  0.00    -0.341 N 
HETATM    6  C11 UNL     1      26.502   5.462  48.903  1.00  0.00     0.146 C 
HETATM    7  C12 UNL     1      27.207   6.669  48.623  1.00  0.00     0.052 A 
HETATM    8  C13 UNL     1      28.450   7.048  48.060  1.00  0.00     0.025 A 
HETATM    9  C14 UNL     1      28.756   8.373  47.974  1.00  0.00     0.029 A 
HETATM   10  C15 UNL     1      27.836   9.290  48.441  1.00  0.00     0.059 A 
HETATM   11  S2  UNL     1      26.424   8.310  49.057  1.00  0.00    -0.077 SA
HETATM   12  N3  UNL     1      27.210   4.400  49.217  1.00  0.00    -0.223 NA
HETATM   13  C22 UNL     1      26.689   3.084  49.532  1.00  0.00     0.230 C 
HETATM   14  N4  UNL     1      25.550   2.720  49.986  1.00  0.00    -0.266 NA
HETATM   15  C23 UNL     1      24.404   3.503  50.335  1.00  0.00     0.198 A 
HETATM   16  H8  UNL     1      24.637   6.341  48.394  1.00  0.00     0.167 HD
ENDROOT
BRANCH  10  17
HETATM   17  C16 UNL     1      27.942  10.733  48.453  1.00  0.00    -0.057 C 
HETATM   18  C17 UNL     1      28.014  11.929  48.479  1.00  0.00    -0.065 C 
BRANCH  18  19
HETATM   19  C18 UNL     1      28.116  13.393  48.498  1.00  0.00     0.299 C 
HETATM   20  C19 UNL     1      29.182  13.824  47.535  1.00  0.00     0.050 C 
HETATM   21  C20 UNL     1      28.416  14.682  46.540  1.00  0.00     0.033 C 
HETATM   22  C21 UNL     1      27.246  15.143  47.364  1.00  0.00     0.271 C 
HETATM   23  N2  UNL     1      26.857  13.920  48.043  1.00  0.00     0.099 N 
HETATM   24  H18 UNL     1      26.229  14.085  48.858  1.00  0.00     0.317 HD
ENDBRANCH  18  19
ENDBRANCH  10  17
BRANCH   1  25
HETATM   25  S1  UNL     1      22.914   1.354  51.526  1.00  0.00    -0.127 SA
BRANCH  25  26
HETATM   26  C6  UNL     1      23.699   1.683  53.111  1.00  0.00     0.117 C 
BRANCH  26  27
HETATM   27  C5  UNL     1      25.082   1.195  53.054  1.00  0.00    -0.046 A 
HETATM   28  C4  UNL     1      25.527  -0.042  52.647  1.00  0.00     0.008 A 
HETATM   29  C3  UNL     1      26.890  -0.312  52.666  1.00  0.00     0.004 A 
HETATM   30  C2  UNL     1      27.809   0.653  53.092  1.00  0.00     0.042 A 
HETATM   31  C1  UNL     1      27.364   1.897  53.502  1.00  0.00     0.117 A 
HETATM   32  F1  UNL     1      28.279   2.814  53.910  1.00  0.00    -0.206 F 
HETATM   33  C24 UNL     1      26.004   2.157  53.479  1.00  0.00     0.050 A 
ENDBRANCH  26  27
ENDBRANCH  25  26
ENDBRANCH   1  25
TORSDOF 5
ENDMDL
MODEL 4
REMARK VINA RESULT:      -8.3      5.504     12.364
REMARK  5 active torsions:
REMARK  status: ('A' for Active; 'I' for Inactive)
REMARK    1  A    between atoms: C5_6  and  C6_7 
REMARK    2  A    between atoms: C6_7  and  S1_8 
REMARK    3  A    between atoms: S1_8  and  C7_9 
REMARK    4  A    between atoms: C15_18  and  C16_19 
REMARK    5  A    between atoms: C17_20  and  C18_21 
ROOT
HETATM    1  C7  UNL     1      22.743   1.251  51.876  1.00  0.00     0.009 A 
HETATM    2  C8  UNL     1      23.575   1.315  52.900  1.00  0.00     0.019 A 
HETATM    3  C9  UNL     1      24.637   2.288  52.672  1.00  0.00     0.029 A 
HETATM    4  C10 UNL     1      24.424   2.826  51.455  1.00  0.00     0.041 A 
HETATM    5  N1  UNL     1      25.261   3.838  50.854  1.00  0.00    -0.341 N 
HETATM    6  C11 UNL     1      24.853   4.787  49.874  1.00  0.00     0.146 C 
HETATM    7  C12 UNL     1      25.889   5.534  49.240  1.00  0.00     0.052 A 
HETATM    8  C13 UNL     1      26.062   6.829  48.697  1.00  0.00     0.025 A 
HETATM    9  C14 UNL     1      27.269   7.160  48.156  1.00  0.00     0.029 A 
HETATM   10  C15 UNL     1      28.271   6.212  48.162  1.00  0.00     0.059 A 
HETATM   11  S2  UNL     1      27.555   4.735  48.961  1.00  0.00    -0.077 SA
HETATM   12  N3  UNL     1      23.614   5.032  49.511  1.00  0.00    -0.223 NA
HETATM   13  C22 UNL     1      22.424   4.388  50.032  1.00  0.00     0.230 C 
HETATM   14  N4  UNL     1      22.261   3.243  50.577  1.00  0.00    -0.266 NA
HETATM   15  C23 UNL     1      23.213   2.210  50.854  1.00  0.00     0.198 A 
HETATM   16  H8  UNL     1      26.230   3.843  51.187  1.00  0.00     0.167 HD
ENDROOT
BRANCH  10  17
HETATM   17  C16 UNL     1      29.619   6.336  47.650  1.00  0.00    -0.057 C 
HETATM   18  C17 UNL     1      30.743   6.435  47.246  1.00  0.00    -0.065 C 
BRANCH  18  19
HETATM   19  C18 UNL     1      32.112   6.558  46.733  1.00  0.00     0.299 C 
HETATM   20  C19 UNL     1      33.036   6.879  47.871  1.00  0.00     0.050 C 
HETATM   21  C20 UNL     1      33.991   5.696  47.879  1.00  0.00     0.033 C 
HETATM   22  C21 UNL     1      33.917   5.228  46.452  1.00  0.00     0.271 C 
HETATM   23  N2  UNL     1      32.489   5.279  46.193  1.00  0.00     0.099 N 
HETATM   24  H18 UNL     1      32.253   5.242  45.179  1.00  0.00     0.317 HD
ENDBRANCH  18  19
ENDBRANCH  10  17
BRANCH   1  25
HETATM   25  S1  UNL     1      21.292   0.230  51.658  1.00  0.00    -0.127 SA
BRANCH  25  26
HETATM   26  C6  UNL     1      20.408   0.014  53.210  1.00  0.00     0.117 C 
BRANCH  26  27
HETATM   27  C5  UNL     1      19.091  -0.561  52.917  1.00  0.00    -0.046 A 
HETATM   28  C4  UNL     1      18.128  -0.078  52.061  1.00  0.00     0.008 A 
HETATM   29  C3  UNL     1      16.935  -0.776  51.920  1.00  0.00     0.004 A 
HETATM   30  C2  UNL     1      16.701  -1.956  52.635  1.00  0.00     0.042 A 
HETATM   31  C1  UNL     1      17.668  -2.444  53.497  1.00  0.00     0.117 A 
HETATM   32  F1  UNL     1      17.414  -3.591  54.178  1.00  0.00    -0.206 F 
HETATM   33  C24 UNL     1      18.854  -1.741  53.629  1.00  0.00     0.050 A 
ENDBRANCH  26  27
ENDBRANCH  25  26
ENDBRANCH   1  25
TORSDOF 5
ENDMDL
MODEL 5
REMARK VINA RESULT:      -8.3      2.812      3.717
REMARK  5 active torsions:
REMARK  status: ('A' for Active; 'I' for Inactive)
REMARK    1  A    between atoms: C5_6  and  C6_7 
REMARK    2  A    between atoms: C6_7  and  S1_8 
REMARK    3  A    between atoms: S1_8  and  C7_9 
REMARK    4  A    between atoms: C15_18  and  C16_19 
REMARK    5  A    between atoms: C17_20  and  C18_21 
ROOT
HETATM    1  C7  UNL     1      23.592   1.295  52.661  1.00  0.00     0.009 A 
HETATM    2  C8  UNL     1      23.577   0.146  53.315  1.00  0.00     0.019 A 
HETATM    3  C9  UNL     1      22.291  -0.531  53.185  1.00  0.00     0.029 A 
HETATM    4  C10 UNL     1      21.509   0.253  52.417  1.00  0.00     0.041 A 
HETATM    5  N1  UNL     1      20.149  -0.065  52.049  1.00  0.00    -0.341 N 
HETATM    6  C11 UNL     1      19.465   0.402  50.891  1.00  0.00     0.146 C 
HETATM    7  C12 UNL     1      18.059   0.166  50.843  1.00  0.00     0.052 A 
HETATM    8  C13 UNL     1      17.076  -0.095  49.858  1.00  0.00     0.025 A 
HETATM    9  C14 UNL     1      15.782  -0.264  50.251  1.00  0.00     0.029 A 
HETATM   10  C15 UNL     1      15.487  -0.173  51.596  1.00  0.00     0.059 A 
HETATM   11  S2  UNL     1      17.074   0.171  52.431  1.00  0.00    -0.077 SA
HETATM   12  N3  UNL     1      20.016   1.021  49.871  1.00  0.00    -0.223 NA
HETATM   13  C22 UNL     1      21.420   1.352  49.725  1.00  0.00     0.230 C 
HETATM   14  N4  UNL     1      22.333   1.534  50.600  1.00  0.00    -0.266 NA
HETATM   15  C23 UNL     1      22.267   1.470  52.029  1.00  0.00     0.198 A 
HETATM   16  H8  UNL     1      19.663  -0.684  52.706  1.00  0.00     0.167 HD
ENDROOT
BRANCH  10  17
HETATM   17  C16 UNL     1      14.199  -0.315  52.239  1.00  0.00    -0.057 C 
HETATM   18  C17 UNL     1      13.124  -0.419  52.758  1.00  0.00    -0.065 C 
BRANCH  18  19
HETATM   19  C18 UNL     1      11.814  -0.559  53.405  1.00  0.00     0.299 C 
HETATM   20  C19 UNL     1      12.009  -0.704  54.885  1.00  0.00     0.050 C 
HETATM   21  C20 UNL     1      11.273   0.503  55.446  1.00  0.00     0.033 C 
HETATM   22  C21 UNL     1      10.270   0.786  54.362  1.00  0.00     0.271 C 
HETATM   23  N2  UNL     1      11.080   0.655  53.163  1.00  0.00     0.099 N 
HETATM   24  H18 UNL     1      10.514   0.557  52.293  1.00  0.00     0.317 HD
ENDBRANCH  18  19
ENDBRANCH  10  17
BRANCH   1  25
HETATM   25  S1  UNL     1      24.911   2.490  52.505  1.00  0.00    -0.127 SA
BRANCH  25  26
HETATM   26  C6  UNL     1      26.267   1.841  51.518  1.00  0.00     0.117 C 
BRANCH  26  27
HETATM   27  C5  UNL     1      27.190   1.129  52.409  1.00  0.00    -0.046 A 
HETATM   28  C4  UNL     1      27.319  -0.230  52.583  1.00  0.00     0.008 A 
HETATM   29  C3  UNL     1      28.262  -0.711  53.483  1.00  0.00     0.004 A 
HETATM   30  C2  UNL     1      29.076   0.165  54.211  1.00  0.00     0.042 A 
HETATM   31  C1  UNL     1      28.947   1.531  54.037  1.00  0.00     0.117 A 
HETATM   32  F1  UNL     1      29.750   2.357  54.757  1.00  0.00    -0.206 F 
HETATM   33  C24 UNL     1      28.005   2.000  53.137  1.00  0.00     0.050 A 
ENDBRANCH  26  27
ENDBRANCH  25  26
ENDBRANCH   1  25
TORSDOF 5
ENDMDL
MODEL 6
REMARK VINA RESULT:      -8.2      4.354      5.364
REMARK  5 active torsions:
REMARK  status: ('A' for Active; 'I' for Inactive)
REMARK    1  A    between atoms: C5_6  and  C6_7 
REMARK    2  A    between atoms: C6_7  and  S1_8 
REMARK    3  A    between atoms: S1_8  and  C7_9 
REMARK    4  A    between atoms: C15_18  and  C16_19 
REMARK    5  A    between atoms: C17_20  and  C18_21 
ROOT
HETATM    1  C7  UNL     1      25.408   4.748  49.985  1.00  0.00     0.009 A 
HETATM    2  C8  UNL     1      24.646   5.699  50.495  1.00  0.00     0.019 A 
HETATM    3  C9  UNL     1      23.545   5.148  51.277  1.00  0.00     0.029 A 
HETATM    4  C10 UNL     1      23.662   3.806  51.228  1.00  0.00     0.041 A 
HETATM    5  N1  UNL     1      22.760   2.886  51.882  1.00  0.00    -0.341 N 
HETATM    6  C11 UNL     1      23.075   1.564  52.306  1.00  0.00     0.146 C 
HETATM    7  C12 UNL     1      21.979   0.745  52.707  1.00  0.00     0.052 A 
HETATM    8  C13 UNL     1      21.736  -0.293  53.638  1.00  0.00     0.025 A 
HETATM    9  C14 UNL     1      20.487  -0.836  53.707  1.00  0.00     0.029 A 
HETATM   10  C15 UNL     1      19.512  -0.345  52.862  1.00  0.00     0.059 A 
HETATM   11  S2  UNL     1      20.320   0.963  51.876  1.00  0.00    -0.077 SA
HETATM   12  N3  UNL     1      24.280   1.042  52.361  1.00  0.00    -0.223 NA
HETATM   13  C22 UNL     1      25.519   1.704  52.003  1.00  0.00     0.230 C 
HETATM   14  N4  UNL     1      25.748   2.680  51.209  1.00  0.00    -0.266 NA
HETATM   15  C23 UNL     1      24.845   3.447  50.405  1.00  0.00     0.198 A 
HETATM   16  H8  UNL     1      21.816   3.253  52.037  1.00  0.00     0.167 HD
ENDROOT
BRANCH  10  17
HETATM   17  C16 UNL     1      18.131  -0.762  52.757  1.00  0.00    -0.057 C 
HETATM   18  C17 UNL     1      16.992  -1.122  52.656  1.00  0.00    -0.065 C 
BRANCH  18  19
HETATM   19  C18 UNL     1      15.593  -1.550  52.545  1.00  0.00     0.299 C 
HETATM   20  C19 UNL     1      15.126  -1.345  51.135  1.00  0.00     0.050 C 
HETATM   21  C20 UNL     1      14.765  -2.753  50.688  1.00  0.00     0.033 C 
HETATM   22  C21 UNL     1      14.458  -3.425  51.997  1.00  0.00     0.271 C 
HETATM   23  N2  UNL     1      15.547  -2.958  52.837  1.00  0.00     0.099 N 
HETATM   24  H18 UNL     1      15.373  -3.102  53.854  1.00  0.00     0.317 HD
ENDBRANCH  18  19
ENDBRANCH  10  17
BRANCH   1  25
HETATM   25  S1  UNL     1      26.867   4.892  48.963  1.00  0.00    -0.127 SA
BRANCH  25  26
HETATM   26  C6  UNL     1      27.154   6.600  48.474  1.00  0.00     0.117 C 
BRANCH  26  27
HETATM   27  C5  UNL     1      28.491   6.692  47.877  1.00  0.00    -0.046 A 
HETATM   28  C4  UNL     1      28.998   7.699  47.088  1.00  0.00     0.008 A 
HETATM   29  C3  UNL     1      30.302   7.600  46.617  1.00  0.00     0.004 A 
HETATM   30  C2  UNL     1      31.099   6.493  46.932  1.00  0.00     0.042 A 
HETATM   31  C1  UNL     1      30.591   5.480  47.725  1.00  0.00     0.117 A 
HETATM   32  F1  UNL     1      31.388   4.419  48.015  1.00  0.00    -0.206 F 
HETATM   33  C24 UNL     1      29.292   5.589  48.190  1.00  0.00     0.050 A 
ENDBRANCH  26  27
ENDBRANCH  25  26
ENDBRANCH   1  25
TORSDOF 5
ENDMDL
MODEL 7
REMARK VINA RESULT:      -8.2      7.449      9.985
REMARK  5 active torsions:
REMARK  status: ('A' for Active; 'I' for Inactive)
REMARK    1  A    between atoms: C5_6  and  C6_7 
REMARK    2  A    between atoms: C6_7  and  S1_8 
REMARK    3  A    between atoms: S1_8  and  C7_9 
REMARK    4  A    between atoms: C15_18  and  C16_19 
REMARK    5  A    between atoms: C17_20  and  C18_21 
ROOT
HETATM    1  C7  UNL     1      30.656   8.322  47.706  1.00  0.00     0.009 A 
HETATM    2  C8  UNL     1      30.187   7.868  46.557  1.00  0.00     0.019 A 
HETATM    3  C9  UNL     1      28.824   7.367  46.692  1.00  0.00     0.029 A 
HETATM    4  C10 UNL     1      28.469   7.533  47.981  1.00  0.00     0.041 A 
HETATM    5  N1  UNL     1      27.184   7.161  48.526  1.00  0.00    -0.341 N 
HETATM    6  C11 UNL     1      26.561   7.739  49.669  1.00  0.00     0.146 C 
HETATM    7  C12 UNL     1      25.413   7.064  50.178  1.00  0.00     0.052 A 
HETATM    8  C13 UNL     1      24.201   7.406  50.824  1.00  0.00     0.025 A 
HETATM    9  C14 UNL     1      23.333   6.411  51.162  1.00  0.00     0.029 A 
HETATM   10  C15 UNL     1      23.677   5.109  50.858  1.00  0.00     0.059 A 
HETATM   11  S2  UNL     1      25.308   5.203  50.044  1.00  0.00    -0.077 SA
HETATM   12  N3  UNL     1      26.950   8.833  50.285  1.00  0.00    -0.223 NA
HETATM   13  C22 UNL     1      28.084   9.662  49.926  1.00  0.00     0.230 C 
HETATM   14  N4  UNL     1      29.159   9.383  49.293  1.00  0.00    -0.266 NA
HETATM   15  C23 UNL     1      29.600   8.146  48.724  1.00  0.00     0.198 A 
HETATM   16  H8  UNL     1      26.708   6.409  48.020  1.00  0.00     0.167 HD
ENDROOT
BRANCH  10  17
HETATM   17  C16 UNL     1      22.922   3.903  51.118  1.00  0.00    -0.057 C 
HETATM   18  C17 UNL     1      22.301   2.905  51.354  1.00  0.00    -0.065 C 
BRANCH  18  19
HETATM   19  C18 UNL     1      21.536   1.683  51.625  1.00  0.00     0.299 C 
HETATM   20  C19 UNL     1      22.459   0.639  52.181  1.00  0.00     0.050 C 
HETATM   21  C20 UNL     1      21.872   0.364  53.557  1.00  0.00     0.033 C 
HETATM   22  C21 UNL     1      20.433   0.753  53.364  1.00  0.00     0.271 C 
HETATM   23  N2  UNL     1      20.555   2.000  52.629  1.00  0.00     0.099 N 
HETATM   24  H18 UNL     1      19.667   2.296  52.172  1.00  0.00     0.317 HD
ENDBRANCH  18  19
ENDBRANCH  10  17
BRANCH   1  25
HETATM   25  S1  UNL     1      32.254   9.034  48.073  1.00  0.00    -0.127 SA
BRANCH  25  26
HETATM   26  C6  UNL     1      33.504   8.468  46.910  1.00  0.00     0.117 C 
BRANCH  26  27
HETATM   27  C5  UNL     1      33.899   7.104  47.281  1.00  0.00    -0.046 A 
HETATM   28  C4  UNL     1      33.460   5.918  46.739  1.00  0.00     0.008 A 
HETATM   29  C3  UNL     1      33.960   4.720  47.234  1.00  0.00     0.004 A 
HETATM   30  C2  UNL     1      34.899   4.706  48.272  1.00  0.00     0.042 A 
HETATM   31  C1  UNL     1      35.342   5.897  48.819  1.00  0.00     0.117 A 
HETATM   32  F1  UNL     1      36.253   5.853  49.825  1.00  0.00    -0.206 F 
HETATM   33  C24 UNL     1      34.837   7.086  48.318  1.00  0.00     0.050 A 
ENDBRANCH  26  27
ENDBRANCH  25  26
ENDBRANCH   1  25
TORSDOF 5
ENDMDL
MODEL 8
REMARK VINA RESULT:      -7.8      7.954     13.300
REMARK  5 active torsions:
REMARK  status: ('A' for Active; 'I' for Inactive)
REMARK    1  A    between atoms: C5_6  and  C6_7 
REMARK    2  A    between atoms: C6_7  and  S1_8 
REMARK    3  A    between atoms: S1_8  and  C7_9 
REMARK    4  A    between atoms: C15_18  and  C16_19 
REMARK    5  A    between atoms: C17_20  and  C18_21 
ROOT
HETATM    1  C7  UNL     1      24.401   3.539  49.650  1.00  0.00     0.009 A 
HETATM    2  C8  UNL     1      25.566   2.918  49.708  1.00  0.00     0.019 A 
HETATM    3  C9  UNL     1      26.681   3.849  49.580  1.00  0.00     0.029 A 
HETATM    4  C10 UNL     1      26.152   5.080  49.439  1.00  0.00     0.041 A 
HETATM    5  N1  UNL     1      26.929   6.288  49.284  1.00  0.00    -0.341 N 
HETATM    6  C11 UNL     1      26.512   7.602  49.636  1.00  0.00     0.146 C 
HETATM    7  C12 UNL     1      27.331   8.675  49.178  1.00  0.00     0.052 A 
HETATM    8  C13 UNL     1      27.714   9.963  49.625  1.00  0.00     0.025 A 
HETATM    9  C14 UNL     1      28.553  10.706  48.849  1.00  0.00     0.029 A 
HETATM   10  C15 UNL     1      28.993  10.166  47.658  1.00  0.00     0.059 A 
HETATM   11  S2  UNL     1      28.226   8.513  47.546  1.00  0.00    -0.077 SA
HETATM   12  N3  UNL     1      25.448   7.906  50.345  1.00  0.00    -0.223 NA
HETATM   13  C22 UNL     1      24.493   6.969  50.904  1.00  0.00     0.230 C 
HETATM   14  N4  UNL     1      24.177   5.782  50.548  1.00  0.00    -0.266 NA
HETATM   15  C23 UNL     1      24.670   4.981  49.468  1.00  0.00     0.198 A 
HETATM   16  H8  UNL     1      27.859   6.146  48.878  1.00  0.00     0.167 HD
ENDROOT
BRANCH  10  17
HETATM   17  C16 UNL     1      29.879  10.762  46.681  1.00  0.00    -0.057 C 
HETATM   18  C17 UNL     1      30.596  11.259  45.859  1.00  0.00    -0.065 C 
BRANCH  18  19
HETATM   19  C18 UNL     1      31.488  11.865  44.864  1.00  0.00     0.299 C 
HETATM   20  C19 UNL     1      30.927  11.630  43.493  1.00  0.00     0.050 C 
HETATM   21  C20 UNL     1      30.690  13.041  42.975  1.00  0.00     0.033 C 
HETATM   22  C21 UNL     1      31.684  13.836  43.776  1.00  0.00     0.271 C 
HETATM   23  N2  UNL     1      31.507  13.283  45.107  1.00  0.00     0.099 N 
HETATM   24  H18 UNL     1      32.288  13.518  45.757  1.00  0.00     0.317 HD
ENDBRANCH  18  19
ENDBRANCH  10  17
BRANCH   1  25
HETATM   25  S1  UNL     1      22.751   2.862  49.756  1.00  0.00    -0.127 SA
BRANCH  25  26
HETATM   26  C6  UNL     1      22.149   2.874  51.451  1.00  0.00     0.117 C 
BRANCH  26  27
HETATM   27  C5  UNL     1      22.504   1.596  52.078  1.00  0.00    -0.046 A 
HETATM   28  C4  UNL     1      21.769   0.433  52.105  1.00  0.00     0.008 A 
HETATM   29  C3  UNL     1      22.286  -0.680  52.756  1.00  0.00     0.004 A 
HETATM   30  C2  UNL     1      23.536  -0.632  53.384  1.00  0.00     0.042 A 
HETATM   31  C1  UNL     1      24.276   0.536  53.359  1.00  0.00     0.117 A 
HETATM   32  F1  UNL     1      25.486   0.554  53.975  1.00  0.00    -0.206 F 
HETATM   33  C24 UNL     1      23.753   1.640  52.706  1.00  0.00     0.050 A 
ENDBRANCH  26  27
ENDBRANCH  25  26
ENDBRANCH   1  25
TORSDOF 5
ENDMDL
MODEL 9
REMARK VINA RESULT:      -7.7      8.032     10.909
REMARK  5 active torsions:
REMARK  status: ('A' for Active; 'I' for Inactive)
REMARK    1  A    between atoms: C5_6  and  C6_7 
REMARK    2  A    between atoms: C6_7  and  S1_8 
REMARK    3  A    between atoms: S1_8  and  C7_9 
REMARK    4  A    between atoms: C15_18  and  C16_19 
REMARK    5  A    between atoms: C17_20  and  C18_21 
ROOT
HETATM    1  C7  UNL     1      30.130   8.581  47.646  1.00  0.00     0.009 A 
HETATM    2  C8  UNL     1      29.632   8.151  46.500  1.00  0.00     0.019 A 
HETATM    3  C9  UNL     1      28.341   7.497  46.684  1.00  0.00     0.029 A 
HETATM    4  C10 UNL     1      28.062   7.544  48.002  1.00  0.00     0.041 A 
HETATM    5  N1  UNL     1      26.864   7.001  48.599  1.00  0.00    -0.341 N 
HETATM    6  C11 UNL     1      26.265   7.435  49.816  1.00  0.00     0.146 C 
HETATM    7  C12 UNL     1      25.231   6.610  50.348  1.00  0.00     0.052 A 
HETATM    8  C13 UNL     1      24.038   6.777  51.091  1.00  0.00     0.025 A 
HETATM    9  C14 UNL     1      23.304   5.675  51.413  1.00  0.00     0.029 A 
HETATM   10  C15 UNL     1      23.760   4.440  50.998  1.00  0.00     0.059 A 
HETATM   11  S2  UNL     1      25.312   4.761  50.092  1.00  0.00    -0.077 SA
HETATM   12  N3  UNL     1      26.580   8.525  50.480  1.00  0.00    -0.223 NA
HETATM   13  C22 UNL     1      27.593   9.493  50.110  1.00  0.00     0.230 C 
HETATM   14  N4  UNL     1      28.645   9.373  49.393  1.00  0.00    -0.266 NA
HETATM   15  C23 UNL     1      29.172   8.228  48.714  1.00  0.00     0.198 A 
HETATM   16  H8  UNL     1      26.435   6.234  48.073  1.00  0.00     0.167 HD
ENDROOT
BRANCH  10  17
HETATM   17  C16 UNL     1      23.155   3.144  51.221  1.00  0.00    -0.057 C 
HETATM   18  C17 UNL     1      22.668   2.068  51.421  1.00  0.00    -0.065 C 
BRANCH  18  19
HETATM   19  C18 UNL     1      22.059   0.753  51.653  1.00  0.00     0.299 C 
HETATM   20  C19 UNL     1      22.637   0.158  52.903  1.00  0.00     0.050 C 
HETATM   21  C20 UNL     1      21.419  -0.002  53.799  1.00  0.00     0.033 C 
HETATM   22  C21 UNL     1      20.304  -0.098  52.795  1.00  0.00     0.271 C 
HETATM   23  N2  UNL     1      20.650   0.959  51.861  1.00  0.00     0.099 N 
HETATM   24  H18 UNL     1      20.146   0.886  50.952  1.00  0.00     0.317 HD
ENDBRANCH  18  19
ENDBRANCH  10  17
BRANCH   1  25
HETATM   25  S1  UNL     1      31.667   9.438  47.961  1.00  0.00    -0.127 SA
BRANCH  25  26
HETATM   26  C6  UNL     1      31.685  11.055  47.173  1.00  0.00     0.117 C 
BRANCH  26  27
HETATM   27  C5  UNL     1      30.530  11.819  47.658  1.00  0.00    -0.046 A 
HETATM   28  C4  UNL     1      30.320  12.328  48.919  1.00  0.00     0.008 A 
HETATM   29  C3  UNL     1      29.150  13.030  49.180  1.00  0.00     0.004 A 
HETATM   30  C2  UNL     1      28.188  13.225  48.182  1.00  0.00     0.042 A 
HETATM   31  C1  UNL     1      28.397  12.714  46.914  1.00  0.00     0.117 A 
HETATM   32  F1  UNL     1      27.447  12.918  45.965  1.00  0.00    -0.206 F 
HETATM   33  C24 UNL     1      29.567  12.016  46.663  1.00  0.00     0.050 A 
ENDBRANCH  26  27
ENDBRANCH  25  26
ENDBRANCH   1  25
TORSDOF 5
ENDMDL
