MODEL 1
REMARK VINA RESULT:      -8.7      0.000      0.000
REMARK  2 active torsions:
REMARK  status: ('A' for Active; 'I' for Inactive)
REMARK    1  A    between atoms: C15_18  and  C16_19 
REMARK    2  A    between atoms: C16_19  and  C17_21 
ROOT
HETATM    1  C1  UNL     1      23.578   7.069  48.271  1.00  0.00     0.285 C 
HETATM    2  N1  UNL     1      23.622   5.732  48.843  1.00  0.00    -0.014 N 
HETATM    3  C2  UNL     1      24.075   5.405  50.139  1.00  0.00     0.198 A 
HETATM    4  C3  UNL     1      23.837   5.154  51.404  1.00  0.00     0.113 A 
HETATM    5 BR1  UNL     1      22.721   5.575  49.917  1.00  0.00     0.079 Br
HETATM    6  C4  UNL     1      23.369   4.738  52.696  1.00  0.00    -0.004 C 
HETATM    7  C5  UNL     1      22.311   3.914  52.824  1.00  0.00    -0.028 C 
HETATM    8  C6  UNL     1      21.394   3.243  51.911  1.00  0.00     0.039 C 
HETATM    9  C7  UNL     1      21.398   1.743  51.924  1.00  0.00     0.036 C 
HETATM   10  C8  UNL     1      21.437   1.339  50.446  1.00  0.00     0.005 C 
HETATM   11  C9  UNL     1      22.554   1.918  49.965  1.00  0.00     0.052 C 
HETATM   12  C10 UNL     1      22.419   2.286  48.561  1.00  0.00     0.100 C 
HETATM   13  N2  UNL     1      22.293   2.576  47.429  1.00  0.00    -0.191 NA
HETATM   14  C11 UNL     1      23.784   2.156  50.692  1.00  0.00    -0.006 C 
HETATM   15  C12 UNL     1      24.847   2.826  50.333  1.00  0.00    -0.013 C 
HETATM   16  C13 UNL     1      25.468   3.637  49.233  1.00  0.00     0.030 C 
HETATM   17  C14 UNL     1      25.544   5.081  49.867  1.00  0.00     0.049 C 
HETATM   18  C15 UNL     1      23.762   1.693  52.102  1.00  0.00     0.020 C 
HETATM   19  C21 UNL     1      22.644   1.137  52.522  1.00  0.00    -0.002 C 
HETATM   20  H4  UNL     1      23.262   5.099  48.063  1.00  0.00     0.294 HD
ENDROOT
BRANCH  18  21
HETATM   21  C16 UNL     1      24.925   1.831  52.950  1.00  0.00     0.182 C 
HETATM   22  O1  UNL     1      24.576   0.631  53.087  1.00  0.00    -0.290 OA
BRANCH  21  23
HETATM   23  C17 UNL     1      26.100   1.895  53.833  1.00  0.00     0.160 C 
HETATM   24  C18 UNL     1      27.347   2.315  53.119  1.00  0.00     0.042 C 
HETATM   25  C19 UNL     1      28.316   1.196  53.286  1.00  0.00     0.105 C 
HETATM   26  C20 UNL     1      27.845   0.480  54.493  1.00  0.00     0.218 C 
HETATM   27  O2  UNL     1      28.555  -0.152  55.332  1.00  0.00    -0.274 OA
HETATM   28  N3  UNL     1      26.444   0.670  54.482  1.00  0.00    -0.349 N 
HETATM   29  H21 UNL     1      25.753  -0.011  54.903  1.00  0.00     0.163 HD
ENDBRANCH  21  23
ENDBRANCH  18  21
TORSDOF 2
ENDMDL
MODEL 2
REMARK VINA RESULT:      -8.0      1.809      3.452
REMARK  2 active torsions:
REMARK  status: ('A' for Active; 'I' for Inactive)
REMARK    1  A    between atoms: C15_18  and  C16_19 
REMARK    2  A    between atoms: C16_19  and  C17_21 
ROOT
HETATM    1  C1  UNL     1      20.281   3.154  46.701  1.00  0.00     0.285 C 
HETATM    2  N1  UNL     1      20.755   3.024  48.070  1.00  0.00    -0.014 N 
HETATM    3  C2  UNL     1      22.045   2.604  48.459  1.00  0.00     0.198 A 
HETATM    4  C3  UNL     1      23.274   2.876  48.824  1.00  0.00     0.113 A 
HETATM    5 BR1  UNL     1      21.768   3.957  48.379  1.00  0.00     0.079 Br
HETATM    6  C4  UNL     1      24.508   3.364  49.374  1.00  0.00    -0.004 C 
HETATM    7  C5  UNL     1      24.521   4.356  50.286  1.00  0.00    -0.028 C 
HETATM    8  C6  UNL     1      23.518   5.173  50.955  1.00  0.00     0.039 C 
HETATM    9  C7  UNL     1      23.422   5.046  52.446  1.00  0.00     0.036 C 
HETATM   10  C8  UNL     1      21.922   4.909  52.731  1.00  0.00     0.005 C 
HETATM   11  C9  UNL     1      21.541   3.824  52.031  1.00  0.00     0.052 C 
HETATM   12  C10 UNL     1      20.163   3.926  51.568  1.00  0.00     0.100 C 
HETATM   13  N2  UNL     1      19.050   4.026  51.204  1.00  0.00    -0.191 NA
HETATM   14  C11 UNL     1      22.344   2.650  51.754  1.00  0.00    -0.006 C 
HETATM   15  C12 UNL     1      22.088   1.631  50.977  1.00  0.00    -0.013 C 
HETATM   16  C13 UNL     1      21.083   1.032  50.037  1.00  0.00     0.030 C 
HETATM   17  C14 UNL     1      21.824   1.103  48.644  1.00  0.00     0.049 C 
HETATM   18  C15 UNL     1      23.714   2.696  52.324  1.00  0.00     0.020 C 
HETATM   19  C21 UNL     1      24.035   3.782  52.997  1.00  0.00    -0.002 C 
HETATM   20  H4  UNL     1      19.913   3.296  48.668  1.00  0.00     0.294 HD
ENDROOT
BRANCH  18  21
HETATM   21  C16 UNL     1      24.627   1.587  52.160  1.00  0.00     0.182 C 
HETATM   22  O1  UNL     1      25.122   2.267  53.094  1.00  0.00    -0.290 OA
BRANCH  21  23
HETATM   23  C17 UNL     1      25.600   0.490  52.052  1.00  0.00     0.160 C 
HETATM   24  C18 UNL     1      25.304  -0.648  52.978  1.00  0.00     0.042 C 
HETATM   25  C19 UNL     1      26.496  -0.784  53.860  1.00  0.00     0.105 C 
HETATM   26  C20 UNL     1      27.595  -0.160  53.091  1.00  0.00     0.218 C 
HETATM   27  O2  UNL     1      28.824  -0.471  53.122  1.00  0.00    -0.274 OA
HETATM   28  N3  UNL     1      26.955   0.845  52.329  1.00  0.00    -0.349 N 
HETATM   29  H21 UNL     1      27.429   1.736  52.012  1.00  0.00     0.163 HD
ENDBRANCH  21  23
ENDBRANCH  18  21
TORSDOF 2
ENDMDL
MODEL 3
REMARK VINA RESULT:      -7.9      2.650      4.686
REMARK  2 active torsions:
REMARK  status: ('A' for Active; 'I' for Inactive)
REMARK    1  A    between atoms: C15_18  and  C16_19 
REMARK    2  A    between atoms: C16_19  and  C17_21 
ROOT
HETATM    1  C1  UNL     1      18.821   5.287  47.422  1.00  0.00     0.285 C 
HETATM    2  N1  UNL     1      19.713   5.052  48.546  1.00  0.00    -0.014 N 
HETATM    3  C2  UNL     1      20.244   3.802  48.929  1.00  0.00     0.198 A 
HETATM    4  C3  UNL     1      21.209   2.915  48.909  1.00  0.00     0.113 A 
HETATM    5 BR1  UNL     1      21.000   4.645  48.136  1.00  0.00     0.079 Br
HETATM    6  C4  UNL     1      22.427   2.154  48.916  1.00  0.00    -0.004 C 
HETATM    7  C5  UNL     1      23.622   2.751  49.096  1.00  0.00    -0.028 C 
HETATM    8  C6  UNL     1      24.085   4.116  49.311  1.00  0.00     0.039 C 
HETATM    9  C7  UNL     1      24.780   4.401  50.609  1.00  0.00     0.036 C 
HETATM   10  C8  UNL     1      24.142   5.699  51.117  1.00  0.00     0.005 C 
HETATM   11  C9  UNL     1      22.829   5.416  51.213  1.00  0.00     0.052 C 
HETATM   12  C10 UNL     1      21.997   6.587  50.961  1.00  0.00     0.100 C 
HETATM   13  N2  UNL     1      21.342   7.541  50.756  1.00  0.00    -0.191 NA
HETATM   14  C11 UNL     1      22.244   4.133  51.544  1.00  0.00    -0.006 C 
HETATM   15  C12 UNL     1      20.992   3.758  51.522  1.00  0.00    -0.013 C 
HETATM   16  C13 UNL     1      19.588   4.201  51.230  1.00  0.00     0.030 C 
HETATM   17  C14 UNL     1      19.211   3.344  49.959  1.00  0.00     0.049 C 
HETATM   18  C15 UNL     1      23.233   3.056  51.800  1.00  0.00     0.020 C 
HETATM   19  C21 UNL     1      24.504   3.386  51.690  1.00  0.00    -0.002 C 
HETATM   20  H4  UNL     1      19.838   6.014  48.991  1.00  0.00     0.294 HD
ENDROOT
BRANCH  18  21
HETATM   21  C16 UNL     1      22.806   1.726  52.173  1.00  0.00     0.182 C 
HETATM   22  O1  UNL     1      23.715   2.007  52.995  1.00  0.00    -0.290 OA
BRANCH  21  23
HETATM   23  C17 UNL     1      22.428   0.374  52.611  1.00  0.00     0.160 C 
HETATM   24  C18 UNL     1      20.970   0.249  52.929  1.00  0.00     0.042 C 
HETATM   25  C19 UNL     1      20.893  -0.165  54.358  1.00  0.00     0.105 C 
HETATM   26  C20 UNL     1      22.206  -0.791  54.630  1.00  0.00     0.218 C 
HETATM   27  O2  UNL     1      22.451  -1.731  55.445  1.00  0.00    -0.274 OA
HETATM   28  N3  UNL     1      23.100  -0.101  53.778  1.00  0.00    -0.349 N 
HETATM   29  H21 UNL     1      24.127   0.035  53.987  1.00  0.00     0.163 HD
ENDBRANCH  21  23
ENDBRANCH  18  21
TORSDOF 2
ENDMDL
MODEL 4
REMARK VINA RESULT:      -7.8      3.042      5.169
REMARK  2 active torsions:
REMARK  status: ('A' for Active; 'I' for Inactive)
REMARK    1  A    between atoms: C15_18  and  C16_19 
REMARK    2  A    between atoms: C16_19  and  C17_21 
ROOT
HETATM    1  C1  UNL     1      17.434  -0.801  51.928  1.00  0.00     0.285 C 
HETATM    2  N1  UNL     1      18.331   0.339  51.822  1.00  0.00    -0.014 N 
HETATM    3  C2  UNL     1      19.705   0.281  51.505  1.00  0.00     0.198 A 
HETATM    4  C3  UNL     1      20.681   0.352  50.632  1.00  0.00     0.113 A 
HETATM    5 BR1  UNL     1      18.788   0.544  50.503  1.00  0.00     0.079 Br
HETATM    6  C4  UNL     1      21.614   0.638  49.579  1.00  0.00    -0.004 C 
HETATM    7  C5  UNL     1      21.437   1.688  48.755  1.00  0.00    -0.028 C 
HETATM    8  C6  UNL     1      20.445   2.747  48.611  1.00  0.00     0.039 C 
HETATM    9  C7  UNL     1      20.922   4.155  48.809  1.00  0.00     0.036 C 
HETATM   10  C8  UNL     1      19.875   4.797  49.727  1.00  0.00     0.005 C 
HETATM   11  C9  UNL     1      19.873   4.026  50.830  1.00  0.00     0.052 C 
HETATM   12  C10 UNL     1      18.560   3.975  51.462  1.00  0.00     0.100 C 
HETATM   13  N2  UNL     1      17.495   3.947  51.957  1.00  0.00    -0.191 NA
HETATM   14  C11 UNL     1      21.007   3.321  51.392  1.00  0.00    -0.006 C 
HETATM   15  C12 UNL     1      21.048   2.456  52.372  1.00  0.00    -0.013 C 
HETATM   16  C13 UNL     1      20.225   1.719  53.388  1.00  0.00     0.030 C 
HETATM   17  C14 UNL     1      20.328   0.221  52.899  1.00  0.00     0.049 C 
HETATM   18  C15 UNL     1      22.275   3.503  50.643  1.00  0.00     0.020 C 
HETATM   19  C21 UNL     1      22.220   4.265  49.569  1.00  0.00    -0.002 C 
HETATM   20  H4  UNL     1      17.716   1.181  52.053  1.00  0.00     0.294 HD
ENDROOT
BRANCH  18  21
HETATM   21  C16 UNL     1      23.503   2.888  51.095  1.00  0.00     0.182 C 
HETATM   22  O1  UNL     1      23.876   3.791  50.304  1.00  0.00    -0.290 OA
BRANCH  21  23
HETATM   23  C17 UNL     1      24.793   2.314  51.508  1.00  0.00     0.160 C 
HETATM   24  C18 UNL     1      24.676   0.905  51.998  1.00  0.00     0.042 C 
HETATM   25  C19 UNL     1      25.172   0.913  53.403  1.00  0.00     0.105 C 
HETATM   26  C20 UNL     1      26.043   2.107  53.478  1.00  0.00     0.218 C 
HETATM   27  O2  UNL     1      27.068   2.262  54.207  1.00  0.00    -0.274 OA
HETATM   28  N3  UNL     1      25.465   3.013  52.557  1.00  0.00    -0.349 N 
HETATM   29  H21 UNL     1      25.532   4.064  52.643  1.00  0.00     0.163 HD
ENDBRANCH  21  23
ENDBRANCH  18  21
TORSDOF 2
ENDMDL
MODEL 5
REMARK VINA RESULT:      -7.6      3.155      4.967
REMARK  2 active torsions:
REMARK  status: ('A' for Active; 'I' for Inactive)
REMARK    1  A    between atoms: C15_18  and  C16_19 
REMARK    2  A    between atoms: C16_19  and  C17_21 
ROOT
HETATM    1  C1  UNL     1      18.165   4.659  48.676  1.00  0.00     0.285 C 
HETATM    2  N1  UNL     1      19.565   4.306  48.853  1.00  0.00    -0.014 N 
HETATM    3  C2  UNL     1      20.582   5.172  49.310  1.00  0.00     0.198 A 
HETATM    4  C3  UNL     1      21.328   5.649  50.277  1.00  0.00     0.113 A 
HETATM    5 BR1  UNL     1      19.958   4.325  50.208  1.00  0.00     0.079 Br
HETATM    6  C4  UNL     1      22.162   5.917  51.415  1.00  0.00    -0.004 C 
HETATM    7  C5  UNL     1      22.616   4.920  52.198  1.00  0.00    -0.028 C 
HETATM    8  C6  UNL     1      22.486   3.468  52.221  1.00  0.00     0.039 C 
HETATM    9  C7  UNL     1      23.744   2.670  52.049  1.00  0.00     0.036 C 
HETATM   10  C8  UNL     1      23.387   1.594  51.018  1.00  0.00     0.005 C 
HETATM   11  C9  UNL     1      22.985   2.284  49.933  1.00  0.00     0.052 C 
HETATM   12  C10 UNL     1      21.971   1.565  49.172  1.00  0.00     0.100 C 
HETATM   13  N2  UNL     1      21.154   0.971  48.570  1.00  0.00    -0.191 NA
HETATM   14  C11 UNL     1      23.474   3.577  49.503  1.00  0.00    -0.006 C 
HETATM   15  C12 UNL     1      23.040   4.357  48.548  1.00  0.00    -0.013 C 
HETATM   16  C13 UNL     1      22.010   4.508  47.466  1.00  0.00     0.030 C 
HETATM   17  C14 UNL     1      21.130   5.709  47.988  1.00  0.00     0.049 C 
HETATM   18  C15 UNL     1      24.527   4.156  50.375  1.00  0.00     0.020 C 
HETATM   19  C21 UNL     1      24.880   3.441  51.424  1.00  0.00    -0.002 C 
HETATM   20  H4  UNL     1      19.621   3.286  48.546  1.00  0.00     0.294 HD
ENDROOT
BRANCH  18  21
HETATM   21  C16 UNL     1      25.138   5.428  50.061  1.00  0.00     0.182 C 
HETATM   22  O1  UNL     1      26.093   4.610  50.056  1.00  0.00    -0.290 OA
BRANCH  21  23
HETATM   23  C17 UNL     1      25.832   6.684  49.739  1.00  0.00     0.160 C 
HETATM   24  C18 UNL     1      25.187   7.437  48.617  1.00  0.00     0.042 C 
HETATM   25  C19 UNL     1      26.222   7.560  47.553  1.00  0.00     0.105 C 
HETATM   26  C20 UNL     1      27.507   7.408  48.271  1.00  0.00     0.218 C 
HETATM   27  O2  UNL     1      28.619   7.938  47.971  1.00  0.00    -0.274 OA
HETATM   28  N3  UNL     1      27.199   6.546  49.350  1.00  0.00    -0.349 N 
HETATM   29  H21 UNL     1      27.897   5.892  49.801  1.00  0.00     0.163 HD
ENDBRANCH  21  23
ENDBRANCH  18  21
TORSDOF 2
ENDMDL
MODEL 6
REMARK VINA RESULT:      -7.5      7.729      9.502
REMARK  2 active torsions:
REMARK  status: ('A' for Active; 'I' for Inactive)
REMARK    1  A    between atoms: C15_18  and  C16_19 
REMARK    2  A    between atoms: C16_19  and  C17_21 
ROOT
HETATM    1  C1  UNL     1      31.308  12.646  45.127  1.00  0.00     0.285 C 
HETATM    2  N1  UNL     1      30.909  11.282  45.436  1.00  0.00    -0.014 N 
HETATM    3  C2  UNL     1      31.451  10.476  46.459  1.00  0.00     0.198 A 
HETATM    4  C3  UNL     1      31.411   9.996  47.679  1.00  0.00     0.113 A 
HETATM    5 BR1  UNL     1      30.282  11.176  46.695  1.00  0.00     0.079 Br
HETATM    6  C4  UNL     1      31.105   9.443  48.968  1.00  0.00    -0.004 C 
HETATM    7  C5  UNL     1      29.854   9.053  49.281  1.00  0.00    -0.028 C 
HETATM    8  C6  UNL     1      28.566   9.030  48.600  1.00  0.00     0.039 C 
HETATM    9  C7  UNL     1      27.942   7.686  48.371  1.00  0.00     0.036 C 
HETATM   10  C8  UNL     1      27.485   7.711  46.908  1.00  0.00     0.005 C 
HETATM   11  C9  UNL     1      28.607   7.956  46.206  1.00  0.00     0.052 C 
HETATM   12  C10 UNL     1      28.338   8.713  44.990  1.00  0.00     0.100 C 
HETATM   13  N2  UNL     1      28.103   9.324  44.013  1.00  0.00    -0.191 NA
HETATM   14  C11 UNL     1      29.949   7.530  46.547  1.00  0.00    -0.006 C 
HETATM   15  C12 UNL     1      31.089   7.843  45.990  1.00  0.00    -0.013 C 
HETATM   16  C13 UNL     1      31.738   8.642  44.898  1.00  0.00     0.030 C 
HETATM   17  C14 UNL     1      32.550   9.732  45.700  1.00  0.00     0.049 C 
HETATM   18  C15 UNL     1      30.041   6.743  47.802  1.00  0.00     0.020 C 
HETATM   19  C21 UNL     1      28.914   6.535  48.451  1.00  0.00    -0.002 C 
HETATM   20  H4  UNL     1      30.156  11.057  44.713  1.00  0.00     0.294 HD
ENDROOT
BRANCH  18  21
HETATM   21  C16 UNL     1      31.308   6.219  48.261  1.00  0.00     0.182 C 
HETATM   22  O1  UNL     1      30.478   5.313  48.528  1.00  0.00    -0.290 OA
BRANCH  21  23
HETATM   23  C17 UNL     1      32.558   5.619  48.753  1.00  0.00     0.160 C 
HETATM   24  C18 UNL     1      33.763   6.458  48.462  1.00  0.00     0.042 C 
HETATM   25  C19 UNL     1      34.661   5.615  47.624  1.00  0.00     0.105 C 
HETATM   26  C20 UNL     1      34.250   4.227  47.928  1.00  0.00     0.218 C 
HETATM   27  O2  UNL     1      34.984   3.193  47.922  1.00  0.00    -0.274 OA
HETATM   28  N3  UNL     1      32.870   4.332  48.220  1.00  0.00    -0.349 N 
HETATM   29  H21 UNL     1      32.173   3.553  48.062  1.00  0.00     0.163 HD
ENDBRANCH  21  23
ENDBRANCH  18  21
TORSDOF 2
ENDMDL
MODEL 7
REMARK VINA RESULT:      -7.5      3.863      5.509
REMARK  2 active torsions:
REMARK  status: ('A' for Active; 'I' for Inactive)
REMARK    1  A    between atoms: C15_18  and  C16_19 
REMARK    2  A    between atoms: C16_19  and  C17_21 
ROOT
HETATM    1  C1  UNL     1      19.602   8.569  49.546  1.00  0.00     0.285 C 
HETATM    2  N1  UNL     1      20.710   7.708  49.165  1.00  0.00    -0.014 N 
HETATM    3  C2  UNL     1      22.062   7.898  49.521  1.00  0.00     0.198 A 
HETATM    4  C3  UNL     1      23.084   7.650  50.304  1.00  0.00     0.113 A 
HETATM    5 BR1  UNL     1      21.278   7.040  50.271  1.00  0.00     0.079 Br
HETATM    6  C4  UNL     1      24.118   7.125  51.152  1.00  0.00    -0.004 C 
HETATM    7  C5  UNL     1      24.202   5.807  51.417  1.00  0.00    -0.028 C 
HETATM    8  C6  UNL     1      23.449   4.617  51.042  1.00  0.00     0.039 C 
HETATM    9  C7  UNL     1      24.181   3.570  50.256  1.00  0.00     0.036 C 
HETATM   10  C8  UNL     1      23.227   3.201  49.113  1.00  0.00     0.005 C 
HETATM   11  C9  UNL     1      23.007   4.362  48.468  1.00  0.00     0.052 C 
HETATM   12  C10 UNL     1      21.674   4.418  47.880  1.00  0.00     0.100 C 
HETATM   13  N2  UNL     1      20.596   4.444  47.413  1.00  0.00    -0.191 NA
HETATM   14  C11 UNL     1      23.943   5.457  48.316  1.00  0.00    -0.006 C 
HETATM   15  C12 UNL     1      23.753   6.653  47.825  1.00  0.00    -0.013 C 
HETATM   16  C13 UNL     1      22.741   7.578  47.214  1.00  0.00     0.030 C 
HETATM   17  C14 UNL     1      22.576   8.693  48.321  1.00  0.00     0.049 C 
HETATM   18  C15 UNL     1      25.265   5.225  48.949  1.00  0.00     0.020 C 
HETATM   19  C21 UNL     1      25.427   4.074  49.570  1.00  0.00    -0.002 C 
HETATM   20  H4  UNL     1      20.261   6.949  48.564  1.00  0.00     0.294 HD
ENDROOT
BRANCH  18  21
HETATM   21  C16 UNL     1      26.318   6.211  48.859  1.00  0.00     0.182 C 
HETATM   22  O1  UNL     1      26.906   5.110  48.711  1.00  0.00    -0.290 OA
BRANCH  21  23
HETATM   23  C17 UNL     1      27.442   7.155  48.757  1.00  0.00     0.160 C 
HETATM   24  C18 UNL     1      27.488   7.870  47.443  1.00  0.00     0.042 C 
HETATM   25  C19 UNL     1      28.802   7.527  46.831  1.00  0.00     0.105 C 
HETATM   26  C20 UNL     1      29.651   7.137  47.979  1.00  0.00     0.218 C 
HETATM   27  O2  UNL     1      30.906   7.279  48.086  1.00  0.00    -0.274 OA
HETATM   28  N3  UNL     1      28.740   6.579  48.906  1.00  0.00    -0.349 N 
HETATM   29  H21 UNL     1      28.999   5.836  49.613  1.00  0.00     0.163 HD
ENDBRANCH  21  23
ENDBRANCH  18  21
TORSDOF 2
ENDMDL
MODEL 8
REMARK VINA RESULT:      -7.4      3.187      4.150
REMARK  2 active torsions:
REMARK  status: ('A' for Active; 'I' for Inactive)
REMARK    1  A    between atoms: C15_18  and  C16_19 
REMARK    2  A    between atoms: C16_19  and  C17_21 
ROOT
HETATM    1  C1  UNL     1      18.833   7.506  48.029  1.00  0.00     0.285 C 
HETATM    2  N1  UNL     1      19.753   6.383  48.121  1.00  0.00    -0.014 N 
HETATM    3  C2  UNL     1      20.958   6.362  48.854  1.00  0.00     0.198 A 
HETATM    4  C3  UNL     1      21.631   6.069  49.941  1.00  0.00     0.113 A 
HETATM    5 BR1  UNL     1      19.811   5.840  49.422  1.00  0.00     0.079 Br
HETATM    6  C4  UNL     1      22.227   5.521  51.126  1.00  0.00    -0.004 C 
HETATM    7  C5  UNL     1      21.904   4.289  51.564  1.00  0.00    -0.028 C 
HETATM    8  C6  UNL     1      21.012   3.224  51.123  1.00  0.00     0.039 C 
HETATM    9  C7  UNL     1      21.646   1.921  50.739  1.00  0.00     0.036 C 
HETATM   10  C8  UNL     1      20.982   1.539  49.411  1.00  0.00     0.005 C 
HETATM   11  C9  UNL     1      21.244   2.574  48.591  1.00  0.00     0.052 C 
HETATM   12  C10 UNL     1      20.181   2.782  47.615  1.00  0.00     0.100 C 
HETATM   13  N2  UNL     1      19.314   2.935  46.836  1.00  0.00    -0.191 NA
HETATM   14  C11 UNL     1      22.428   3.409  48.605  1.00  0.00    -0.006 C 
HETATM   15  C12 UNL     1      22.684   4.501  47.936  1.00  0.00    -0.013 C 
HETATM   16  C13 UNL     1      22.142   5.476  46.931  1.00  0.00     0.030 C 
HETATM   17  C14 UNL     1      21.963   6.792  47.785  1.00  0.00     0.049 C 
HETATM   18  C15 UNL     1      23.424   3.042  49.642  1.00  0.00     0.020 C 
HETATM   19  C21 UNL     1      23.117   2.023  50.419  1.00  0.00    -0.002 C 
HETATM   20  H4  UNL     1      19.311   5.629  47.507  1.00  0.00     0.294 HD
ENDROOT
BRANCH  18  21
HETATM   21  C16 UNL     1      24.673   3.761  49.763  1.00  0.00     0.182 C 
HETATM   22  O1  UNL     1      24.823   2.745  50.488  1.00  0.00    -0.290 OA
BRANCH  21  23
HETATM   23  C17 UNL     1      25.968   4.434  49.937  1.00  0.00     0.160 C 
HETATM   24  C18 UNL     1      25.911   5.900  49.636  1.00  0.00     0.042 C 
HETATM   25  C19 UNL     1      26.877   6.132  48.526  1.00  0.00     0.105 C 
HETATM   26  C20 UNL     1      27.818   4.993  48.614  1.00  0.00     0.218 C 
HETATM   27  O2  UNL     1      29.046   4.990  48.299  1.00  0.00    -0.274 OA
HETATM   28  N3  UNL     1      27.031   3.935  49.125  1.00  0.00    -0.349 N 
HETATM   29  H21 UNL     1      27.217   2.913  48.926  1.00  0.00     0.163 HD
ENDBRANCH  21  23
ENDBRANCH  18  21
TORSDOF 2
ENDMDL
MODEL 9
REMARK VINA RESULT:      -7.2      2.386      4.566
REMARK  2 active torsions:
REMARK  status: ('A' for Active; 'I' for Inactive)
REMARK    1  A    between atoms: C15_18  and  C16_19 
REMARK    2  A    between atoms: C16_19  and  C17_21 
ROOT
HETATM    1  C1  UNL     1      19.446   3.421  46.473  1.00  0.00     0.285 C 
HETATM    2  N1  UNL     1      20.030   3.997  47.674  1.00  0.00    -0.014 N 
HETATM    3  C2  UNL     1      21.090   3.443  48.423  1.00  0.00     0.198 A 
HETATM    4  C3  UNL     1      22.366   3.363  48.712  1.00  0.00     0.113 A 
HETATM    5 BR1  UNL     1      21.364   4.414  47.477  1.00  0.00     0.079 Br
HETATM    6  C4  UNL     1      23.760   3.542  49.009  1.00  0.00    -0.004 C 
HETATM    7  C5  UNL     1      24.303   4.772  49.093  1.00  0.00    -0.028 C 
HETATM    8  C6  UNL     1      23.820   6.139  48.950  1.00  0.00     0.039 C 
HETATM    9  C7  UNL     1      23.907   7.021  50.160  1.00  0.00     0.036 C 
HETATM   10  C8  UNL     1      22.538   7.704  50.246  1.00  0.00     0.005 C 
HETATM   11  C9  UNL     1      21.657   6.690  50.331  1.00  0.00     0.052 C 
HETATM   12  C10 UNL     1      20.380   7.020  49.711  1.00  0.00     0.100 C 
HETATM   13  N2  UNL     1      19.356   7.304  49.207  1.00  0.00    -0.191 NA
HETATM   14  C11 UNL     1      21.877   5.407  50.967  1.00  0.00    -0.006 C 
HETATM   15  C12 UNL     1      21.124   4.339  50.969  1.00  0.00    -0.013 C 
HETATM   16  C13 UNL     1      19.834   3.750  50.475  1.00  0.00     0.030 C 
HETATM   17  C14 UNL     1      20.322   2.635  49.470  1.00  0.00     0.049 C 
HETATM   18  C15 UNL     1      23.221   5.247  51.575  1.00  0.00     0.020 C 
HETATM   19  C21 UNL     1      24.045   6.268  51.461  1.00  0.00    -0.002 C 
HETATM   20  H4  UNL     1      19.466   4.888  47.841  1.00  0.00     0.294 HD
ENDROOT
BRANCH  18  21
HETATM   21  C16 UNL     1      23.583   4.034  52.274  1.00  0.00     0.182 C 
HETATM   22  O1  UNL     1      23.651   4.934  53.149  1.00  0.00    -0.290 OA
BRANCH  21  23
HETATM   23  C17 UNL     1      23.961   2.844  53.052  1.00  0.00     0.160 C 
HETATM   24  C18 UNL     1      25.317   2.320  52.697  1.00  0.00     0.042 C 
HETATM   25  C19 UNL     1      25.109   0.922  52.224  1.00  0.00     0.105 C 
HETATM   26  C20 UNL     1      23.822   0.517  52.831  1.00  0.00     0.218 C 
HETATM   27  O2  UNL     1      23.477  -0.651  53.185  1.00  0.00    -0.274 OA
HETATM   28  N3  UNL     1      23.087   1.722  52.918  1.00  0.00    -0.349 N 
HETATM   29  H21 UNL     1      22.031   1.773  52.888  1.00  0.00     0.163 HD
ENDBRANCH  21  23
ENDBRANCH  18  21
TORSDOF 2
ENDMDL
