MODEL 1
REMARK VINA RESULT:      -8.4      0.000      0.000
REMARK  5 active torsions:
REMARK  status: ('A' for Active; 'I' for Inactive)
REMARK    1  A    between atoms: C2_2  and  O1_3 
REMARK    2  A    between atoms: O1_3  and  C3_4 
REMARK    3  A    between atoms: C6_7  and  C7_8 
REMARK    4  A    between atoms: C13_14  and  C14_15 
REMARK    5  A    between atoms: C18_23  and  O3_24 
ROOT
HETATM    1  C3  UNL     1      22.970   2.165  51.122  1.00  0.00     0.103 A 
HETATM    2  C4  UNL     1      23.684   1.287  51.914  1.00  0.00     0.055 A 
HETATM    3  C5  UNL     1      23.072   0.578  52.917  1.00  0.00     0.025 A 
HETATM    4  C6  UNL     1      23.910  -0.246  53.597  1.00  0.00     0.081 A 
HETATM    5  N2  UNL     1      23.346  -0.983  54.601  1.00  0.00    -0.240 NA
HETATM    6  C15 UNL     1      22.034  -0.894  54.899  1.00  0.00     0.234 A 
HETATM    7  N3  UNL     1      21.223  -0.054  54.196  1.00  0.00    -0.241 NA
HETATM    8  C16 UNL     1      21.743   0.680  53.208  1.00  0.00     0.073 A 
HETATM    9  C17 UNL     1      21.009   1.562  52.417  1.00  0.00     0.072 A 
HETATM   10  C18 UNL     1      21.618   2.292  51.391  1.00  0.00     0.103 A 
ENDROOT
BRANCH   4  11
HETATM   11  C7  UNL     1      25.334  -0.508  53.458  1.00  0.00    -0.006 A 
HETATM   12  C8  UNL     1      25.966  -1.500  52.742  1.00  0.00     0.016 A 
HETATM   13  C9  UNL     1      27.335  -1.650  52.713  1.00  0.00     0.031 A 
HETATM   14  C10 UNL     1      28.158  -0.796  53.414  1.00  0.00     0.037 A 
HETATM   15  C11 UNL     1      27.587   0.221  54.150  1.00  0.00    -0.002 A 
HETATM   16  N1  UNL     1      29.433  -0.334  53.843  1.00  0.00    -0.374 N 
HETATM   17  C12 UNL     1      26.195   0.346  54.159  1.00  0.00     0.025 A 
HETATM   18  C13 UNL     1      28.882   0.736  54.620  1.00  0.00     0.178 A 
HETATM   19  H12 UNL     1      30.406  -0.696  53.628  1.00  0.00     0.160 HD
BRANCH  18  20
HETATM   20  C14 UNL     1      29.212   2.114  54.103  1.00  0.00     0.261 C 
HETATM   21  O2  UNL     1      29.770   2.423  55.132  1.00  0.00    -0.304 OA
ENDBRANCH  18  20
ENDBRANCH   4  11
BRANCH   1  22
HETATM   22  O1  UNL     1      23.502   2.905  50.107  1.00  0.00    -0.349 OA
BRANCH  22  23
HETATM   23  C2  UNL     1      24.422   3.958  50.261  1.00  0.00     0.171 C 
HETATM   24  C1  UNL     1      25.773   3.704  49.684  1.00  0.00     0.034 C 
ENDBRANCH  22  23
ENDBRANCH   1  22
BRANCH  10  25
HETATM   25  O3  UNL     1      20.860   3.162  50.621  1.00  0.00    -0.353 OA
HETATM   26  C19 UNL     1      20.407   4.406  51.052  1.00  0.00     0.210 C 
ENDBRANCH  10  25
TORSDOF 5
ENDMDL
MODEL 2
REMARK VINA RESULT:      -7.6      2.675      4.210
REMARK  5 active torsions:
REMARK  status: ('A' for Active; 'I' for Inactive)
REMARK    1  A    between atoms: C2_2  and  O1_3 
REMARK    2  A    between atoms: O1_3  and  C3_4 
REMARK    3  A    between atoms: C6_7  and  C7_8 
REMARK    4  A    between atoms: C13_14  and  C14_15 
REMARK    5  A    between atoms: C18_23  and  O3_24 
ROOT
HETATM    1  C3  UNL     1      21.454   0.521  51.697  1.00  0.00     0.103 A 
HETATM    2  C4  UNL     1      22.778   0.880  51.855  1.00  0.00     0.055 A 
HETATM    3  C5  UNL     1      23.378   1.773  51.001  1.00  0.00     0.025 A 
HETATM    4  C6  UNL     1      24.678   2.026  51.296  1.00  0.00     0.081 A 
HETATM    5  N2  UNL     1      25.318   2.917  50.480  1.00  0.00    -0.240 NA
HETATM    6  C15 UNL     1      24.692   3.507  49.441  1.00  0.00     0.234 A 
HETATM    7  N3  UNL     1      23.386   3.227  49.173  1.00  0.00    -0.241 NA
HETATM    8  C16 UNL     1      22.732   2.361  49.953  1.00  0.00     0.073 A 
HETATM    9  C17 UNL     1      21.395   2.007  49.781  1.00  0.00     0.072 A 
HETATM   10  C18 UNL     1      20.770   1.100  50.642  1.00  0.00     0.103 A 
ENDROOT
BRANCH   4  11
HETATM   11  C7  UNL     1      25.549   1.521  52.346  1.00  0.00    -0.006 A 
HETATM   12  C8  UNL     1      25.677   1.954  53.647  1.00  0.00     0.016 A 
HETATM   13  C9  UNL     1      26.565   1.397  54.541  1.00  0.00     0.031 A 
HETATM   14  C10 UNL     1      27.386   0.355  54.169  1.00  0.00     0.037 A 
HETATM   15  C11 UNL     1      27.306  -0.126  52.879  1.00  0.00    -0.002 A 
HETATM   16  N1  UNL     1      28.396  -0.614  54.423  1.00  0.00    -0.374 N 
HETATM   17  C12 UNL     1      26.395   0.462  51.996  1.00  0.00     0.025 A 
HETATM   18  C13 UNL     1      28.345  -1.144  53.094  1.00  0.00     0.178 A 
HETATM   19  H12 UNL     1      28.949  -0.818  55.304  1.00  0.00     0.160 HD
BRANCH  18  20
HETATM   20  C14 UNL     1      27.834  -2.561  53.009  1.00  0.00     0.261 C 
HETATM   21  O2  UNL     1      28.917  -3.024  53.290  1.00  0.00    -0.304 OA
ENDBRANCH  18  20
ENDBRANCH   4  11
BRANCH   1  22
HETATM   22  O1  UNL     1      20.786  -0.356  52.500  1.00  0.00    -0.349 OA
BRANCH  22  23
HETATM   23  C2  UNL     1      20.742  -0.305  53.905  1.00  0.00     0.171 C 
HETATM   24  C1  UNL     1      21.548  -1.350  54.599  1.00  0.00     0.034 C 
ENDBRANCH  22  23
ENDBRANCH   1  22
BRANCH  10  25
HETATM   25  O3  UNL     1      19.437   0.768  50.444  1.00  0.00    -0.353 OA
HETATM   26  C19 UNL     1      18.437   1.680  50.118  1.00  0.00     0.210 C 
ENDBRANCH  10  25
TORSDOF 5
ENDMDL
MODEL 3
REMARK VINA RESULT:      -7.6      3.256      6.336
REMARK  5 active torsions:
REMARK  status: ('A' for Active; 'I' for Inactive)
REMARK    1  A    between atoms: C2_2  and  O1_3 
REMARK    2  A    between atoms: O1_3  and  C3_4 
REMARK    3  A    between atoms: C6_7  and  C7_8 
REMARK    4  A    between atoms: C13_14  and  C14_15 
REMARK    5  A    between atoms: C18_23  and  O3_24 
ROOT
HETATM    1  C3  UNL     1      26.253   1.045  53.572  1.00  0.00     0.103 A 
HETATM    2  C4  UNL     1      25.907   1.815  52.480  1.00  0.00     0.055 A 
HETATM    3  C5  UNL     1      24.684   1.676  51.871  1.00  0.00     0.025 A 
HETATM    4  C6  UNL     1      24.496   2.511  50.819  1.00  0.00     0.081 A 
HETATM    5  N2  UNL     1      23.289   2.419  50.184  1.00  0.00    -0.240 NA
HETATM    6  C15 UNL     1      22.341   1.545  50.582  1.00  0.00     0.234 A 
HETATM    7  N3  UNL     1      22.566   0.719  51.643  1.00  0.00    -0.241 NA
HETATM    8  C16 UNL     1      23.735   0.786  52.285  1.00  0.00     0.073 A 
HETATM    9  C17 UNL     1      24.071   0.001  53.386  1.00  0.00     0.072 A 
HETATM   10  C18 UNL     1      25.312   0.131  54.017  1.00  0.00     0.103 A 
ENDROOT
BRANCH   4  11
HETATM   11  C7  UNL     1      25.355   3.520  50.218  1.00  0.00    -0.006 A 
HETATM   12  C8  UNL     1      26.481   3.350  49.443  1.00  0.00     0.016 A 
HETATM   13  C9  UNL     1      27.221   4.403  48.952  1.00  0.00     0.031 A 
HETATM   14  C10 UNL     1      26.863   5.707  49.217  1.00  0.00     0.037 A 
HETATM   15  C11 UNL     1      25.744   5.945  49.987  1.00  0.00    -0.002 A 
HETATM   16  N1  UNL     1      27.042   7.114  49.116  1.00  0.00    -0.374 N 
HETATM   17  C12 UNL     1      25.015   4.855  50.471  1.00  0.00     0.025 A 
HETATM   18  C13 UNL     1      25.887   7.407  49.910  1.00  0.00     0.178 A 
HETATM   19  H12 UNL     1      27.785   7.681  48.615  1.00  0.00     0.160 HD
BRANCH  18  20
HETATM   20  C14 UNL     1      24.771   8.088  49.158  1.00  0.00     0.261 C 
HETATM   21  O2  UNL     1      25.110   9.185  49.541  1.00  0.00    -0.304 OA
ENDBRANCH  18  20
ENDBRANCH   4  11
BRANCH   1  22
HETATM   22  O1  UNL     1      27.443   1.121  54.232  1.00  0.00    -0.349 OA
BRANCH  22  23
HETATM   23  C2  UNL     1      28.705   0.849  53.673  1.00  0.00     0.171 C 
HETATM   24  C1  UNL     1      29.071  -0.596  53.615  1.00  0.00     0.034 C 
ENDBRANCH  22  23
ENDBRANCH   1  22
BRANCH  10  25
HETATM   25  O3  UNL     1      25.616  -0.666  55.111  1.00  0.00    -0.353 OA
HETATM   26  C19 UNL     1      24.671  -1.222  55.969  1.00  0.00     0.210 C 
ENDBRANCH  10  25
TORSDOF 5
ENDMDL
MODEL 4
REMARK VINA RESULT:      -7.6      2.723      4.179
REMARK  5 active torsions:
REMARK  status: ('A' for Active; 'I' for Inactive)
REMARK    1  A    between atoms: C2_2  and  O1_3 
REMARK    2  A    between atoms: O1_3  and  C3_4 
REMARK    3  A    between atoms: C6_7  and  C7_8 
REMARK    4  A    between atoms: C13_14  and  C14_15 
REMARK    5  A    between atoms: C18_23  and  O3_24 
ROOT
HETATM    1  C3  UNL     1      20.574   0.211  52.023  1.00  0.00     0.103 A 
HETATM    2  C4  UNL     1      21.917   0.307  52.326  1.00  0.00     0.055 A 
HETATM    3  C5  UNL     1      22.442  -0.316  53.432  1.00  0.00     0.025 A 
HETATM    4  C6  UNL     1      23.778  -0.130  53.585  1.00  0.00     0.081 A 
HETATM    5  N2  UNL     1      24.351  -0.739  54.666  1.00  0.00    -0.240 NA
HETATM    6  C15 UNL     1      23.628  -1.479  55.532  1.00  0.00     0.234 A 
HETATM    7  N3  UNL     1      22.287  -1.642  55.348  1.00  0.00    -0.241 NA
HETATM    8  C16 UNL     1      21.698  -1.060  54.300  1.00  0.00     0.073 A 
HETATM    9  C17 UNL     1      20.340  -1.166  54.006  1.00  0.00     0.072 A 
HETATM   10  C18 UNL     1      19.790  -0.538  52.884  1.00  0.00     0.103 A 
ENDROOT
BRANCH   4  11
HETATM   11  C7  UNL     1      24.749   0.610  52.794  1.00  0.00    -0.006 A 
HETATM   12  C8  UNL     1      26.045   0.270  52.473  1.00  0.00     0.016 A 
HETATM   13  C9  UNL     1      26.872   1.081  51.728  1.00  0.00     0.031 A 
HETATM   14  C10 UNL     1      26.434   2.299  51.256  1.00  0.00     0.037 A 
HETATM   15  C11 UNL     1      25.145   2.698  51.542  1.00  0.00    -0.002 A 
HETATM   16  N1  UNL     1      26.610   3.519  50.546  1.00  0.00    -0.374 N 
HETATM   17  C12 UNL     1      24.331   1.853  52.301  1.00  0.00     0.025 A 
HETATM   18  C13 UNL     1      25.279   3.972  50.819  1.00  0.00     0.178 A 
HETATM   19  H12 UNL     1      27.451   3.897  50.023  1.00  0.00     0.160 HD
BRANCH  18  20
HETATM   20  C14 UNL     1      24.395   4.075  49.601  1.00  0.00     0.261 C 
HETATM   21  O2  UNL     1      24.653   5.248  49.448  1.00  0.00    -0.304 OA
ENDBRANCH  18  20
ENDBRANCH   4  11
BRANCH   1  22
HETATM   22  O1  UNL     1      19.976   0.797  50.947  1.00  0.00    -0.349 OA
BRANCH  22  23
HETATM   23  C2  UNL     1      20.577   1.739  50.093  1.00  0.00     0.171 C 
HETATM   24  C1  UNL     1      21.234   1.165  48.883  1.00  0.00     0.034 C 
ENDBRANCH  22  23
ENDBRANCH   1  22
BRANCH  10  25
HETATM   25  O3  UNL     1      18.434  -0.663  52.620  1.00  0.00    -0.353 OA
HETATM   26  C19 UNL     1      17.608  -1.636  53.175  1.00  0.00     0.210 C 
ENDBRANCH  10  25
TORSDOF 5
ENDMDL
MODEL 5
REMARK VINA RESULT:      -7.5      2.470      6.801
REMARK  5 active torsions:
REMARK  status: ('A' for Active; 'I' for Inactive)
REMARK    1  A    between atoms: C2_2  and  O1_3 
REMARK    2  A    between atoms: O1_3  and  C3_4 
REMARK    3  A    between atoms: C6_7  and  C7_8 
REMARK    4  A    between atoms: C13_14  and  C14_15 
REMARK    5  A    between atoms: C18_23  and  O3_24 
ROOT
HETATM    1  C3  UNL     1      26.055   1.091  52.287  1.00  0.00     0.103 A 
HETATM    2  C4  UNL     1      24.759   0.663  52.493  1.00  0.00     0.055 A 
HETATM    3  C5  UNL     1      24.424  -0.082  53.597  1.00  0.00     0.025 A 
HETATM    4  C6  UNL     1      23.111  -0.417  53.655  1.00  0.00     0.081 A 
HETATM    5  N2  UNL     1      22.724  -1.150  54.743  1.00  0.00    -0.240 NA
HETATM    6  C15 UNL     1      23.600  -1.521  55.699  1.00  0.00     0.234 A 
HETATM    7  N3  UNL     1      24.913  -1.168  55.606  1.00  0.00    -0.241 NA
HETATM    8  C16 UNL     1      25.322  -0.450  54.556  1.00  0.00     0.073 A 
HETATM    9  C17 UNL     1      26.635  -0.025  54.362  1.00  0.00     0.072 A 
HETATM   10  C18 UNL     1      26.991   0.734  53.242  1.00  0.00     0.103 A 
ENDROOT
BRANCH   4  11
HETATM   11  C7  UNL     1      21.998  -0.134  52.761  1.00  0.00    -0.006 A 
HETATM   12  C8  UNL     1      22.026   0.318  51.461  1.00  0.00     0.016 A 
HETATM   13  C9  UNL     1      20.887   0.568  50.728  1.00  0.00     0.031 A 
HETATM   14  C10 UNL     1      19.636   0.373  51.272  1.00  0.00     0.037 A 
HETATM   15  C11 UNL     1      19.539  -0.080  52.571  1.00  0.00    -0.002 A 
HETATM   16  N1  UNL     1      18.214   0.386  51.215  1.00  0.00    -0.374 N 
HETATM   17  C12 UNL     1      20.714  -0.324  53.288  1.00  0.00     0.025 A 
HETATM   18  C13 UNL     1      18.069  -0.085  52.560  1.00  0.00     0.178 A 
HETATM   19  H12 UNL     1      17.558   0.657  50.428  1.00  0.00     0.160 HD
BRANCH  18  20
HETATM   20  C14 UNL     1      17.464  -1.462  52.675  1.00  0.00     0.261 C 
HETATM   21  O2  UNL     1      16.352  -1.016  52.853  1.00  0.00    -0.304 OA
ENDBRANCH  18  20
ENDBRANCH   4  11
BRANCH   1  22
HETATM   22  O1  UNL     1      26.469   1.832  51.220  1.00  0.00    -0.349 OA
BRANCH  22  23
HETATM   23  C2  UNL     1      25.774   2.922  50.664  1.00  0.00     0.171 C 
HETATM   24  C1  UNL     1      26.480   3.619  49.551  1.00  0.00     0.034 C 
ENDBRANCH  22  23
ENDBRANCH   1  22
BRANCH  10  25
HETATM   25  O3  UNL     1      28.308   1.142  53.078  1.00  0.00    -0.353 OA
HETATM   26  C19 UNL     1      28.898   2.199  53.764  1.00  0.00     0.210 C 
ENDBRANCH  10  25
TORSDOF 5
ENDMDL
MODEL 6
REMARK VINA RESULT:      -7.5      2.251      6.846
REMARK  5 active torsions:
REMARK  status: ('A' for Active; 'I' for Inactive)
REMARK    1  A    between atoms: C2_2  and  O1_3 
REMARK    2  A    between atoms: O1_3  and  C3_4 
REMARK    3  A    between atoms: C6_7  and  C7_8 
REMARK    4  A    between atoms: C13_14  and  C14_15 
REMARK    5  A    between atoms: C18_23  and  O3_24 
ROOT
HETATM    1  C3  UNL     1      25.671   0.824  52.312  1.00  0.00     0.103 A 
HETATM    2  C4  UNL     1      24.297   0.766  52.191  1.00  0.00     0.055 A 
HETATM    3  C5  UNL     1      23.533   0.071  53.096  1.00  0.00     0.025 A 
HETATM    4  C6  UNL     1      22.201   0.119  52.842  1.00  0.00     0.081 A 
HETATM    5  N2  UNL     1      21.395  -0.549  53.722  1.00  0.00    -0.240 NA
HETATM    6  C15 UNL     1      21.898  -1.219  54.779  1.00  0.00     0.234 A 
HETATM    7  N3  UNL     1      23.242  -1.248  55.002  1.00  0.00    -0.241 NA
HETATM    8  C16 UNL     1      24.056  -0.603  54.161  1.00  0.00     0.073 A 
HETATM    9  C17 UNL     1      25.442  -0.554  54.295  1.00  0.00     0.072 A 
HETATM   10  C18 UNL     1      26.234   0.150  53.382  1.00  0.00     0.103 A 
ENDROOT
BRANCH   4  11
HETATM   11  C7  UNL     1      21.439   0.768  51.786  1.00  0.00    -0.006 A 
HETATM   12  C8  UNL     1      21.527   0.593  50.422  1.00  0.00     0.016 A 
HETATM   13  C9  UNL     1      20.754   1.294  49.524  1.00  0.00     0.031 A 
HETATM   14  C10 UNL     1      19.834   2.225  49.954  1.00  0.00     0.037 A 
HETATM   15  C11 UNL     1      19.696   2.446  51.308  1.00  0.00    -0.002 A 
HETATM   16  N1  UNL     1      18.823   3.202  49.734  1.00  0.00    -0.374 N 
HETATM   17  C12 UNL     1      20.496   1.719  52.194  1.00  0.00     0.025 A 
HETATM   18  C13 UNL     1      18.647   3.462  51.131  1.00  0.00     0.178 A 
HETATM   19  H12 UNL     1      18.397   3.563  48.833  1.00  0.00     0.160 HD
BRANCH  18  20
HETATM   20  C14 UNL     1      17.303   3.050  51.676  1.00  0.00     0.261 C 
HETATM   21  O2  UNL     1      17.057   4.170  52.063  1.00  0.00    -0.304 OA
ENDBRANCH  18  20
ENDBRANCH   4  11
BRANCH   1  22
HETATM   22  O1  UNL     1      26.498   1.491  51.458  1.00  0.00    -0.349 OA
BRANCH  22  23
HETATM   23  C2  UNL     1      26.387   2.848  51.106  1.00  0.00     0.171 C 
HETATM   24  C1  UNL     1      26.424   3.125  49.641  1.00  0.00     0.034 C 
ENDBRANCH  22  23
ENDBRANCH   1  22
BRANCH  10  25
HETATM   25  O3  UNL     1      27.612   0.178  53.543  1.00  0.00    -0.353 OA
HETATM   26  C19 UNL     1      28.262   0.175  54.773  1.00  0.00     0.210 C 
ENDBRANCH  10  25
TORSDOF 5
ENDMDL
MODEL 7
REMARK VINA RESULT:      -7.3      2.324      6.047
REMARK  5 active torsions:
REMARK  status: ('A' for Active; 'I' for Inactive)
REMARK    1  A    between atoms: C2_2  and  O1_3 
REMARK    2  A    between atoms: O1_3  and  C3_4 
REMARK    3  A    between atoms: C6_7  and  C7_8 
REMARK    4  A    between atoms: C13_14  and  C14_15 
REMARK    5  A    between atoms: C18_23  and  O3_24 
ROOT
HETATM    1  C3  UNL     1      24.419   3.195  51.137  1.00  0.00     0.103 A 
HETATM    2  C4  UNL     1      24.058   2.064  51.841  1.00  0.00     0.055 A 
HETATM    3  C5  UNL     1      24.986   1.107  52.172  1.00  0.00     0.025 A 
HETATM    4  C6  UNL     1      24.473   0.063  52.870  1.00  0.00     0.081 A 
HETATM    5  N2  UNL     1      25.359  -0.913  53.233  1.00  0.00    -0.240 NA
HETATM    6  C15 UNL     1      26.668  -0.841  52.912  1.00  0.00     0.234 A 
HETATM    7  N3  UNL     1      27.147   0.223  52.208  1.00  0.00    -0.241 NA
HETATM    8  C16 UNL     1      26.306   1.193  51.840  1.00  0.00     0.073 A 
HETATM    9  C17 UNL     1      26.686   2.330  51.128  1.00  0.00     0.072 A 
HETATM   10  C18 UNL     1      25.753   3.313  50.783  1.00  0.00     0.103 A 
ENDROOT
BRANCH   4  11
HETATM   11  C7  UNL     1      23.122  -0.227  53.325  1.00  0.00    -0.006 A 
HETATM   12  C8  UNL     1      22.705  -0.721  54.541  1.00  0.00     0.016 A 
HETATM   13  C9  UNL     1      21.383  -0.973  54.837  1.00  0.00     0.031 A 
HETATM   14  C10 UNL     1      20.391  -0.738  53.910  1.00  0.00     0.037 A 
HETATM   15  C11 UNL     1      20.743  -0.242  52.672  1.00  0.00    -0.002 A 
HETATM   16  N1  UNL     1      19.035  -0.727  53.482  1.00  0.00    -0.374 N 
HETATM   17  C12 UNL     1      22.093   0.002  52.403  1.00  0.00     0.025 A 
HETATM   18  C13 UNL     1      19.355  -0.212  52.185  1.00  0.00     0.178 A 
HETATM   19  H12 UNL     1      18.149  -1.011  53.991  1.00  0.00     0.160 HD
BRANCH  18  20
HETATM   20  C14 UNL     1      18.835   1.179  51.922  1.00  0.00     0.261 C 
HETATM   21  O2  UNL     1      18.095   0.792  51.044  1.00  0.00    -0.304 OA
ENDBRANCH  18  20
ENDBRANCH   4  11
BRANCH   1  22
HETATM   22  O1  UNL     1      23.561   4.189  50.770  1.00  0.00    -0.349 OA
BRANCH  22  23
HETATM   23  C2  UNL     1      22.607   4.104  49.740  1.00  0.00     0.171 C 
HETATM   24  C1  UNL     1      22.963   3.181  48.624  1.00  0.00     0.034 C 
ENDBRANCH  22  23
ENDBRANCH   1  22
BRANCH  10  25
HETATM   25  O3  UNL     1      26.162   4.433  50.074  1.00  0.00    -0.353 OA
HETATM   26  C19 UNL     1      27.077   4.412  49.025  1.00  0.00     0.210 C 
ENDBRANCH  10  25
TORSDOF 5
ENDMDL
MODEL 8
REMARK VINA RESULT:      -7.2      2.080      6.189
REMARK  5 active torsions:
REMARK  status: ('A' for Active; 'I' for Inactive)
REMARK    1  A    between atoms: C2_2  and  O1_3 
REMARK    2  A    between atoms: O1_3  and  C3_4 
REMARK    3  A    between atoms: C6_7  and  C7_8 
REMARK    4  A    between atoms: C13_14  and  C14_15 
REMARK    5  A    between atoms: C18_23  and  O3_24 
ROOT
HETATM    1  C3  UNL     1      26.403   1.616  52.239  1.00  0.00     0.103 A 
HETATM    2  C4  UNL     1      25.108   1.154  52.361  1.00  0.00     0.055 A 
HETATM    3  C5  UNL     1      24.748   0.309  53.382  1.00  0.00     0.025 A 
HETATM    4  C6  UNL     1      23.439  -0.046  53.365  1.00  0.00     0.081 A 
HETATM    5  N2  UNL     1      23.027  -0.879  54.368  1.00  0.00    -0.240 NA
HETATM    6  C15 UNL     1      23.877  -1.323  55.318  1.00  0.00     0.234 A 
HETATM    7  N3  UNL     1      25.187  -0.946  55.302  1.00  0.00    -0.241 NA
HETATM    8  C16 UNL     1      25.619  -0.132  54.335  1.00  0.00     0.073 A 
HETATM    9  C17 UNL     1      26.931   0.326  54.225  1.00  0.00     0.072 A 
HETATM   10  C18 UNL     1      27.313   1.187  53.191  1.00  0.00     0.103 A 
ENDROOT
BRANCH   4  11
HETATM   11  C7  UNL     1      22.353   0.301  52.461  1.00  0.00    -0.006 A 
HETATM   12  C8  UNL     1      20.997   0.318  52.702  1.00  0.00     0.016 A 
HETATM   13  C9  UNL     1      20.067   0.648  51.741  1.00  0.00     0.031 A 
HETATM   14  C10 UNL     1      20.456   0.986  50.463  1.00  0.00     0.037 A 
HETATM   15  C11 UNL     1      21.801   0.990  50.157  1.00  0.00    -0.002 A 
HETATM   16  N1  UNL     1      20.193   1.383  49.123  1.00  0.00    -0.374 N 
HETATM   17  C12 UNL     1      22.719   0.649  51.154  1.00  0.00     0.025 A 
HETATM   18  C13 UNL     1      21.579   1.400  48.763  1.00  0.00     0.178 A 
HETATM   19  H12 UNL     1      19.275   1.580  48.630  1.00  0.00     0.160 HD
BRANCH  18  20
HETATM   20  C14 UNL     1      22.120   2.770  48.439  1.00  0.00     0.261 C 
HETATM   21  O2  UNL     1      22.210   2.514  47.259  1.00  0.00    -0.304 OA
ENDBRANCH  18  20
ENDBRANCH   4  11
BRANCH   1  22
HETATM   22  O1  UNL     1      26.841   2.455  51.257  1.00  0.00    -0.349 OA
BRANCH  22  23
HETATM   23  C2  UNL     1      26.021   3.272  50.458  1.00  0.00     0.171 C 
HETATM   24  C1  UNL     1      26.729   3.992  49.360  1.00  0.00     0.034 C 
ENDBRANCH  22  23
ENDBRANCH   1  22
BRANCH  10  25
HETATM   25  O3  UNL     1      28.627   1.624  53.109  1.00  0.00    -0.353 OA
HETATM   26  C19 UNL     1      29.411   1.976  54.204  1.00  0.00     0.210 C 
ENDBRANCH  10  25
TORSDOF 5
ENDMDL
MODEL 9
REMARK VINA RESULT:      -7.1      2.799      7.624
REMARK  5 active torsions:
REMARK  status: ('A' for Active; 'I' for Inactive)
REMARK    1  A    between atoms: C2_2  and  O1_3 
REMARK    2  A    between atoms: O1_3  and  C3_4 
REMARK    3  A    between atoms: C6_7  and  C7_8 
REMARK    4  A    between atoms: C13_14  and  C14_15 
REMARK    5  A    between atoms: C18_23  and  O3_24 
ROOT
HETATM    1  C3  UNL     1      25.880  -0.249  53.717  1.00  0.00     0.103 A 
HETATM    2  C4  UNL     1      24.997   0.370  52.855  1.00  0.00     0.055 A 
HETATM    3  C5  UNL     1      25.404   1.391  52.033  1.00  0.00     0.025 A 
HETATM    4  C6  UNL     1      24.419   1.887  51.242  1.00  0.00     0.081 A 
HETATM    5  N2  UNL     1      24.777   2.900  50.397  1.00  0.00    -0.240 NA
HETATM    6  C15 UNL     1      26.038   3.380  50.355  1.00  0.00     0.234 A 
HETATM    7  N3  UNL     1      27.001   2.859  51.167  1.00  0.00    -0.241 NA
HETATM    8  C16 UNL     1      26.683   1.867  52.003  1.00  0.00     0.073 A 
HETATM    9  C17 UNL     1      27.586   1.252  52.868  1.00  0.00     0.072 A 
HETATM   10  C18 UNL     1      27.185   0.211  53.711  1.00  0.00     0.103 A 
ENDROOT
BRANCH   4  11
HETATM   11  C7  UNL     1      23.013   1.535  51.112  1.00  0.00    -0.006 A 
HETATM   12  C8  UNL     1      22.241   0.737  51.925  1.00  0.00     0.016 A 
HETATM   13  C9  UNL     1      20.915   0.465  51.671  1.00  0.00     0.031 A 
HETATM   14  C10 UNL     1      20.281   0.991  50.567  1.00  0.00     0.037 A 
HETATM   15  C11 UNL     1      21.000   1.801  49.712  1.00  0.00    -0.002 A 
HETATM   16  N1  UNL     1      19.150   1.177  49.725  1.00  0.00    -0.374 N 
HETATM   17  C12 UNL     1      22.344   2.056  49.997  1.00  0.00     0.025 A 
HETATM   18  C13 UNL     1      19.858   2.023  48.812  1.00  0.00     0.178 A 
HETATM   19  H12 UNL     1      18.163   0.798  49.802  1.00  0.00     0.160 HD
BRANCH  18  20
HETATM   20  C14 UNL     1      19.375   3.452  48.785  1.00  0.00     0.261 C 
HETATM   21  O2  UNL     1      18.692   3.258  47.804  1.00  0.00    -0.304 OA
ENDBRANCH  18  20
ENDBRANCH   4  11
BRANCH   1  22
HETATM   22  O1  UNL     1      25.555  -1.268  54.563  1.00  0.00    -0.349 OA
BRANCH  22  23
HETATM   23  C2  UNL     1      24.685  -1.168  55.664  1.00  0.00     0.171 C 
HETATM   24  C1  UNL     1      23.235  -1.277  55.334  1.00  0.00     0.034 C 
ENDBRANCH  22  23
ENDBRANCH   1  22
BRANCH  10  25
HETATM   25  O3  UNL     1      28.109  -0.381  54.562  1.00  0.00    -0.353 OA
HETATM   26  C19 UNL     1      29.416  -0.700  54.208  1.00  0.00     0.210 C 
ENDBRANCH  10  25
TORSDOF 5
ENDMDL
