MODEL 1
REMARK VINA RESULT:      -8.8      0.000      0.000
REMARK  4 active torsions:
REMARK  status: ('A' for Active; 'I' for Inactive)
REMARK    1  A    between atoms: C3_3  and  C4_4 
REMARK    2  A    between atoms: C7_7  and  N1_8 
REMARK    3  A    between atoms: N1_8  and  C8_9 
REMARK    4  A    between atoms: C11_13  and  C12_14 
ROOT
HETATM    1  N1  UNL     1      25.025   4.441  49.244  1.00  0.00    -0.192 N 
HETATM    2  H6  UNL     1      24.323   4.301  48.484  1.00  0.00     0.184 HD
ENDROOT
BRANCH   1   3
HETATM    3  C7  UNL     1      26.178   5.214  48.941  1.00  0.00     0.030 A 
HETATM    4  C6  UNL     1      26.200   6.534  48.834  1.00  0.00     0.026 A 
HETATM    5  C5  UNL     1      27.554   6.985  48.514  1.00  0.00     0.007 A 
HETATM    6  C4  UNL     1      28.326   5.899  48.434  1.00  0.00    -0.048 A 
HETATM    7  C17 UNL     1      27.547   4.682  48.695  1.00  0.00     0.094 A 
BRANCH   6   8
HETATM    8  C3  UNL     1      29.767   5.940  48.127  1.00  0.00     0.136 A 
HETATM    9  C2  UNL     1      30.161   6.953  47.146  1.00  0.00     0.022 A 
HETATM   10  C1  UNL     1      31.101   7.859  47.413  1.00  0.00     0.116 A 
HETATM   11  N6  UNL     1      31.836   7.985  48.623  1.00  0.00    -0.257 NA
HETATM   12  C18 UNL     1      31.592   7.151  49.591  1.00  0.00     0.203 A 
HETATM   13  N5  UNL     1      30.577   6.167  49.318  1.00  0.00    -0.373 N 
HETATM   14  H15 UNL     1      30.323   5.458  50.057  1.00  0.00     0.161 HD
ENDBRANCH   6   8
ENDBRANCH   1   3
BRANCH   1  15
HETATM   15  C8  UNL     1      24.779   3.857  50.508  1.00  0.00     0.727 A 
HETATM   16  N2  UNL     1      24.035   4.407  51.477  1.00  0.00    -0.075 NA
HETATM   17  C9  UNL     1      23.800   3.859  52.657  1.00  0.00     0.139 A 
HETATM   18  C10 UNL     1      24.358   2.631  52.917  1.00  0.00     0.052 A 
HETATM   19  C11 UNL     1      25.124   2.013  51.980  1.00  0.00     0.078 A 
HETATM   20  N4  UNL     1      25.294   2.664  50.819  1.00  0.00    -0.063 NA
BRANCH  19  21
HETATM   21  C12 UNL     1      25.711   0.712  52.208  1.00  0.00     0.045 C 
HETATM   22  C13 UNL     1      26.881   0.341  52.694  1.00  0.00    -0.010 A 
HETATM   23  C14 UNL     1      27.160  -1.081  52.789  1.00  0.00     0.128 A 
HETATM   24  C16 UNL     1      27.936   1.223  53.172  1.00  0.00     0.064 A 
HETATM   25  N3  UNL     1      28.177  -1.706  53.222  1.00  0.00    -0.265 NA
HETATM   26  C15 UNL     1      29.358  -1.069  53.751  1.00  0.00     0.165 A 
HETATM   27  S1  UNL     1      29.329   0.562  53.769  1.00  0.00    -0.094 SA
ENDBRANCH  19  21
ENDBRANCH   1  15
TORSDOF 4
ENDMDL
MODEL 2
REMARK VINA RESULT:      -8.4      2.492      7.686
REMARK  4 active torsions:
REMARK  status: ('A' for Active; 'I' for Inactive)
REMARK    1  A    between atoms: C3_3  and  C4_4 
REMARK    2  A    between atoms: C7_7  and  N1_8 
REMARK    3  A    between atoms: N1_8  and  C8_9 
REMARK    4  A    between atoms: C11_13  and  C12_14 
ROOT
HETATM    1  N1  UNL     1      24.068   4.240  52.466  1.00  0.00    -0.192 N 
HETATM    2  H6  UNL     1      23.886   4.911  53.244  1.00  0.00     0.184 HD
ENDROOT
BRANCH   1   3
HETATM    3  C7  UNL     1      24.303   2.881  52.810  1.00  0.00     0.030 A 
HETATM    4  C6  UNL     1      23.443   1.891  52.619  1.00  0.00     0.026 A 
HETATM    5  C5  UNL     1      24.019   0.633  53.091  1.00  0.00     0.007 A 
HETATM    6  C4  UNL     1      25.237   0.908  53.565  1.00  0.00    -0.048 A 
HETATM    7  C17 UNL     1      25.540   2.338  53.436  1.00  0.00     0.094 A 
BRANCH   6   8
HETATM    8  C3  UNL     1      26.141  -0.108  54.135  1.00  0.00     0.136 A 
HETATM    9  C2  UNL     1      26.788  -0.980  53.153  1.00  0.00     0.022 A 
HETATM   10  C1  UNL     1      28.113  -1.118  53.104  1.00  0.00     0.116 A 
HETATM   11  N6  UNL     1      29.063  -0.481  53.947  1.00  0.00    -0.257 NA
HETATM   12  C18 UNL     1      28.634   0.328  54.871  1.00  0.00     0.203 A 
HETATM   13  N5  UNL     1      27.204   0.490  54.936  1.00  0.00    -0.373 N 
HETATM   14  H15 UNL     1      26.782   1.133  55.658  1.00  0.00     0.161 HD
ENDBRANCH   6   8
ENDBRANCH   1   3
BRANCH   1  15
HETATM   15  C8  UNL     1      24.068   4.727  51.138  1.00  0.00     0.727 A 
HETATM   16  N2  UNL     1      22.971   5.018  50.427  1.00  0.00    -0.075 NA
HETATM   17  C9  UNL     1      22.970   5.478  49.187  1.00  0.00     0.139 A 
HETATM   18  C10 UNL     1      24.185   5.676  48.575  1.00  0.00     0.052 A 
HETATM   19  C11 UNL     1      25.339   5.402  49.237  1.00  0.00     0.078 A 
HETATM   20  N4  UNL     1      25.217   4.939  50.491  1.00  0.00    -0.063 NA
BRANCH  19  21
HETATM   21  C12 UNL     1      26.636   5.617  48.635  1.00  0.00     0.045 C 
HETATM   22  C13 UNL     1      27.442   6.661  48.619  1.00  0.00    -0.010 A 
HETATM   23  C14 UNL     1      28.700   6.540  47.903  1.00  0.00     0.128 A 
HETATM   24  C16 UNL     1      27.209   7.943  49.269  1.00  0.00     0.064 A 
HETATM   25  N3  UNL     1      29.652   7.364  47.740  1.00  0.00    -0.265 NA
HETATM   26  C15 UNL     1      29.670   8.702  48.280  1.00  0.00     0.165 A 
HETATM   27  S1  UNL     1      28.357   9.127  49.149  1.00  0.00    -0.094 SA
ENDBRANCH  19  21
ENDBRANCH   1  15
TORSDOF 4
ENDMDL
MODEL 3
REMARK VINA RESULT:      -8.2      3.065      3.930
REMARK  4 active torsions:
REMARK  status: ('A' for Active; 'I' for Inactive)
REMARK    1  A    between atoms: C3_3  and  C4_4 
REMARK    2  A    between atoms: C7_7  and  N1_8 
REMARK    3  A    between atoms: N1_8  and  C8_9 
REMARK    4  A    between atoms: C11_13  and  C12_14 
ROOT
HETATM    1  N1  UNL     1      25.849   2.739  50.043  1.00  0.00    -0.192 N 
HETATM    2  H6  UNL     1      25.292   2.144  49.391  1.00  0.00     0.184 HD
ENDROOT
BRANCH   1   3
HETATM    3  C7  UNL     1      26.167   4.058  49.620  1.00  0.00     0.030 A 
HETATM    4  C6  UNL     1      25.410   5.125  49.830  1.00  0.00     0.026 A 
HETATM    5  C5  UNL     1      26.049   6.309  49.259  1.00  0.00     0.007 A 
HETATM    6  C4  UNL     1      27.199   5.913  48.707  1.00  0.00    -0.048 A 
HETATM    7  C17 UNL     1      27.391   4.468  48.879  1.00  0.00     0.094 A 
BRANCH   6   8
HETATM    8  C3  UNL     1      28.136   6.824  48.025  1.00  0.00     0.136 A 
HETATM    9  C2  UNL     1      27.506   7.834  47.173  1.00  0.00     0.022 A 
HETATM   10  C1  UNL     1      27.753   9.134  47.329  1.00  0.00     0.116 A 
HETATM   11  N6  UNL     1      28.620   9.723  48.290  1.00  0.00    -0.257 NA
HETATM   12  C18 UNL     1      29.250   8.945  49.120  1.00  0.00     0.203 A 
HETATM   13  N5  UNL     1      28.992   7.537  48.966  1.00  0.00    -0.373 N 
HETATM   14  H15 UNL     1      29.466   6.845  49.606  1.00  0.00     0.161 HD
ENDBRANCH   6   8
ENDBRANCH   1   3
BRANCH   1  15
HETATM   15  C8  UNL     1      26.242   2.195  51.288  1.00  0.00     0.727 A 
HETATM   16  N2  UNL     1      27.396   2.463  51.913  1.00  0.00    -0.075 NA
HETATM   17  C9  UNL     1      27.762   1.959  53.080  1.00  0.00     0.139 A 
HETATM   18  C10 UNL     1      26.896   1.095  53.705  1.00  0.00     0.052 A 
HETATM   19  C11 UNL     1      25.707   0.778  53.129  1.00  0.00     0.078 A 
HETATM   20  N4  UNL     1      25.443   1.349  51.944  1.00  0.00    -0.063 NA
BRANCH  19  21
HETATM   21  C12 UNL     1      24.761  -0.111  53.765  1.00  0.00     0.045 C 
HETATM   22  C13 UNL     1      23.442  -0.150  53.761  1.00  0.00    -0.010 A 
HETATM   23  C14 UNL     1      22.788  -1.198  54.525  1.00  0.00     0.128 A 
HETATM   24  C16 UNL     1      22.553   0.755  53.046  1.00  0.00     0.064 A 
HETATM   25  N3  UNL     1      21.560  -1.475  54.683  1.00  0.00    -0.265 NA
HETATM   26  C15 UNL     1      20.476  -0.736  54.083  1.00  0.00     0.165 A 
HETATM   27  S1  UNL     1      20.919   0.527  53.150  1.00  0.00    -0.094 SA
ENDBRANCH  19  21
ENDBRANCH   1  15
TORSDOF 4
ENDMDL
MODEL 4
REMARK VINA RESULT:      -8.1      1.114      1.603
REMARK  4 active torsions:
REMARK  status: ('A' for Active; 'I' for Inactive)
REMARK    1  A    between atoms: C3_3  and  C4_4 
REMARK    2  A    between atoms: C7_7  and  N1_8 
REMARK    3  A    between atoms: N1_8  and  C8_9 
REMARK    4  A    between atoms: C11_13  and  C12_14 
ROOT
HETATM    1  N1  UNL     1      25.015   4.541  49.293  1.00  0.00    -0.192 N 
HETATM    2  H6  UNL     1      24.248   4.550  48.586  1.00  0.00     0.184 HD
ENDROOT
BRANCH   1   3
HETATM    3  C7  UNL     1      26.254   5.134  48.927  1.00  0.00     0.030 A 
HETATM    4  C6  UNL     1      27.404   4.484  48.821  1.00  0.00     0.026 A 
HETATM    5  C5  UNL     1      28.465   5.409  48.427  1.00  0.00     0.007 A 
HETATM    6  C4  UNL     1      27.911   6.619  48.305  1.00  0.00    -0.048 A 
HETATM    7  C17 UNL     1      26.475   6.570  48.603  1.00  0.00     0.094 A 
BRANCH   6   8
HETATM    8  C3  UNL     1      28.662   7.827  47.920  1.00  0.00     0.136 A 
HETATM    9  C2  UNL     1      30.050   7.867  48.385  1.00  0.00     0.022 A 
HETATM   10  C1  UNL     1      31.066   8.051  47.544  1.00  0.00     0.116 A 
HETATM   11  N6  UNL     1      30.980   8.228  46.136  1.00  0.00    -0.257 NA
HETATM   12  C18 UNL     1      29.806   8.214  45.577  1.00  0.00     0.203 A 
HETATM   13  N5  UNL     1      28.696   8.015  46.473  1.00  0.00    -0.373 N 
HETATM   14  H15 UNL     1      27.713   7.990  46.092  1.00  0.00     0.161 HD
ENDBRANCH   6   8
ENDBRANCH   1   3
BRANCH   1  15
HETATM   15  C8  UNL     1      24.769   3.947  50.552  1.00  0.00     0.727 A 
HETATM   16  N2  UNL     1      24.034   4.493  51.529  1.00  0.00    -0.075 NA
HETATM   17  C9  UNL     1      23.799   3.935  52.705  1.00  0.00     0.139 A 
HETATM   18  C10 UNL     1      24.346   2.699  52.950  1.00  0.00     0.052 A 
HETATM   19  C11 UNL     1      25.103   2.084  52.003  1.00  0.00     0.078 A 
HETATM   20  N4  UNL     1      25.275   2.746  50.848  1.00  0.00    -0.063 NA
BRANCH  19  21
HETATM   21  C12 UNL     1      25.680   0.775  52.215  1.00  0.00     0.045 C 
HETATM   22  C13 UNL     1      26.847   0.389  52.695  1.00  0.00    -0.010 A 
HETATM   23  C14 UNL     1      27.114  -1.036  52.773  1.00  0.00     0.128 A 
HETATM   24  C16 UNL     1      27.911   1.257  53.179  1.00  0.00     0.064 A 
HETATM   25  N3  UNL     1      28.126  -1.675  53.196  1.00  0.00    -0.265 NA
HETATM   26  C15 UNL     1      29.314  -1.055  53.729  1.00  0.00     0.165 A 
HETATM   27  S1  UNL     1      29.299   0.576  53.766  1.00  0.00    -0.094 SA
ENDBRANCH  19  21
ENDBRANCH   1  15
TORSDOF 4
ENDMDL
MODEL 5
REMARK VINA RESULT:      -7.9      2.191      7.671
REMARK  4 active torsions:
REMARK  status: ('A' for Active; 'I' for Inactive)
REMARK    1  A    between atoms: C3_3  and  C4_4 
REMARK    2  A    between atoms: C7_7  and  N1_8 
REMARK    3  A    between atoms: N1_8  and  C8_9 
REMARK    4  A    between atoms: C11_13  and  C12_14 
ROOT
HETATM    1  N1  UNL     1      25.886   3.573  49.471  1.00  0.00    -0.192 N 
HETATM    2  H6  UNL     1      25.779   3.011  48.598  1.00  0.00     0.184 HD
ENDROOT
BRANCH   1   3
HETATM    3  C7  UNL     1      25.655   2.915  50.710  1.00  0.00     0.030 A 
HETATM    4  C6  UNL     1      24.643   3.169  51.527  1.00  0.00     0.026 A 
HETATM    5  C5  UNL     1      24.723   2.305  52.703  1.00  0.00     0.007 A 
HETATM    6  C4  UNL     1      25.806   1.536  52.558  1.00  0.00    -0.048 A 
HETATM    7  C17 UNL     1      26.497   1.837  51.298  1.00  0.00     0.094 A 
BRANCH   6   8
HETATM    8  C3  UNL     1      26.230   0.526  53.544  1.00  0.00     0.136 A 
HETATM    9  C2  UNL     1      26.732  -0.724  52.971  1.00  0.00     0.022 A 
HETATM   10  C1  UNL     1      27.932  -1.208  53.287  1.00  0.00     0.116 A 
HETATM   11  N6  UNL     1      28.871  -0.627  54.182  1.00  0.00    -0.257 NA
HETATM   12  C18 UNL     1      28.563   0.493  54.769  1.00  0.00     0.203 A 
HETATM   13  N5  UNL     1      27.269   1.029  54.436  1.00  0.00    -0.373 N 
HETATM   14  H15 UNL     1      26.950   1.936  54.871  1.00  0.00     0.161 HD
ENDBRANCH   6   8
ENDBRANCH   1   3
BRANCH   1  15
HETATM   15  C8  UNL     1      26.252   4.934  49.360  1.00  0.00     0.727 A 
HETATM   16  N2  UNL     1      25.658   5.945  50.009  1.00  0.00    -0.075 NA
HETATM   17  C9  UNL     1      26.004   7.217  49.910  1.00  0.00     0.139 A 
HETATM   18  C10 UNL     1      27.052   7.535  49.080  1.00  0.00     0.052 A 
HETATM   19  C11 UNL     1      27.701   6.561  48.391  1.00  0.00     0.078 A 
HETATM   20  N4  UNL     1      27.263   5.305  48.569  1.00  0.00    -0.063 NA
BRANCH  19  21
HETATM   21  C12 UNL     1      28.821   6.853  47.524  1.00  0.00     0.045 C 
HETATM   22  C13 UNL     1      30.125   6.742  47.695  1.00  0.00    -0.010 A 
HETATM   23  C14 UNL     1      30.992   7.133  46.598  1.00  0.00     0.128 A 
HETATM   24  C16 UNL     1      30.801   6.244  48.885  1.00  0.00     0.064 A 
HETATM   25  N3  UNL     1      32.256   7.117  46.484  1.00  0.00    -0.265 NA
HETATM   26  C15 UNL     1      33.159   6.670  47.517  1.00  0.00     0.165 A 
HETATM   27  S1  UNL     1      32.453   6.161  48.896  1.00  0.00    -0.094 SA
ENDBRANCH  19  21
ENDBRANCH   1  15
TORSDOF 4
ENDMDL
MODEL 6
REMARK VINA RESULT:      -7.7      2.049      2.781
REMARK  4 active torsions:
REMARK  status: ('A' for Active; 'I' for Inactive)
REMARK    1  A    between atoms: C3_3  and  C4_4 
REMARK    2  A    between atoms: C7_7  and  N1_8 
REMARK    3  A    between atoms: N1_8  and  C8_9 
REMARK    4  A    between atoms: C11_13  and  C12_14 
ROOT
HETATM    1  N1  UNL     1      23.712   5.744  52.038  1.00  0.00    -0.192 N 
HETATM    2  H6  UNL     1      23.455   6.086  52.989  1.00  0.00     0.184 HD
ENDROOT
BRANCH   1   3
HETATM    3  C7  UNL     1      24.168   6.704  51.093  1.00  0.00     0.030 A 
HETATM    4  C6  UNL     1      23.496   7.786  50.728  1.00  0.00     0.026 A 
HETATM    5  C5  UNL     1      24.268   8.541  49.741  1.00  0.00     0.007 A 
HETATM    6  C4  UNL     1      25.408   7.876  49.535  1.00  0.00    -0.048 A 
HETATM    7  C17 UNL     1      25.463   6.663  50.360  1.00  0.00     0.094 A 
BRANCH   6   8
HETATM    8  C3  UNL     1      26.458   8.321  48.602  1.00  0.00     0.136 A 
HETATM    9  C2  UNL     1      27.507   9.148  49.201  1.00  0.00     0.022 A 
HETATM   10  C1  UNL     1      28.796   8.830  49.096  1.00  0.00     0.116 A 
HETATM   11  N6  UNL     1      29.337   7.700  48.423  1.00  0.00    -0.257 NA
HETATM   12  C18 UNL     1      28.521   6.871  47.842  1.00  0.00     0.203 A 
HETATM   13  N5  UNL     1      27.124   7.201  47.948  1.00  0.00    -0.373 N 
HETATM   14  H15 UNL     1      26.402   6.573  47.503  1.00  0.00     0.161 HD
ENDBRANCH   6   8
ENDBRANCH   1   3
BRANCH   1  15
HETATM   15  C8  UNL     1      23.591   4.363  51.759  1.00  0.00     0.727 A 
HETATM   16  N2  UNL     1      22.929   3.844  50.717  1.00  0.00    -0.075 NA
HETATM   17  C9  UNL     1      22.820   2.553  50.453  1.00  0.00     0.139 A 
HETATM   18  C10 UNL     1      23.431   1.669  51.309  1.00  0.00     0.052 A 
HETATM   19  C11 UNL     1      24.121   2.124  52.388  1.00  0.00     0.078 A 
HETATM   20  N4  UNL     1      24.163   3.455  52.555  1.00  0.00    -0.063 NA
BRANCH  19  21
HETATM   21  C12 UNL     1      24.795   1.228  53.300  1.00  0.00     0.045 C 
HETATM   22  C13 UNL     1      26.070   1.062  53.598  1.00  0.00    -0.010 A 
HETATM   23  C14 UNL     1      26.414   0.048  54.579  1.00  0.00     0.128 A 
HETATM   24  C16 UNL     1      27.190   1.813  53.050  1.00  0.00     0.064 A 
HETATM   25  N3  UNL     1      27.535  -0.308  55.056  1.00  0.00    -0.265 NA
HETATM   26  C15 UNL     1      28.800   0.277  54.682  1.00  0.00     0.165 A 
HETATM   27  S1  UNL     1      28.721   1.469  53.570  1.00  0.00    -0.094 SA
ENDBRANCH  19  21
ENDBRANCH   1  15
TORSDOF 4
ENDMDL
MODEL 7
REMARK VINA RESULT:      -7.7      3.481      8.022
REMARK  4 active torsions:
REMARK  status: ('A' for Active; 'I' for Inactive)
REMARK    1  A    between atoms: C3_3  and  C4_4 
REMARK    2  A    between atoms: C7_7  and  N1_8 
REMARK    3  A    between atoms: N1_8  and  C8_9 
REMARK    4  A    between atoms: C11_13  and  C12_14 
ROOT
HETATM    1  N1  UNL     1      28.109   6.970  47.959  1.00  0.00    -0.192 N 
HETATM    2  H6  UNL     1      27.709   7.476  47.138  1.00  0.00     0.184 HD
ENDROOT
BRANCH   1   3
HETATM    3  C7  UNL     1      27.310   5.961  48.563  1.00  0.00     0.030 A 
HETATM    4  C6  UNL     1      27.668   4.692  48.699  1.00  0.00     0.026 A 
HETATM    5  C5  UNL     1      26.602   3.944  49.363  1.00  0.00     0.007 A 
HETATM    6  C4  UNL     1      25.610   4.802  49.613  1.00  0.00    -0.048 A 
HETATM    7  C17 UNL     1      25.952   6.150  49.141  1.00  0.00     0.094 A 
BRANCH   6   8
HETATM    8  C3  UNL     1      24.349   4.426  50.278  1.00  0.00     0.136 A 
HETATM    9  C2  UNL     1      23.754   3.173  49.810  1.00  0.00     0.022 A 
HETATM   10  C1  UNL     1      23.454   2.183  50.649  1.00  0.00     0.116 A 
HETATM   11  N6  UNL     1      23.649   2.177  52.057  1.00  0.00    -0.257 NA
HETATM   12  C18 UNL     1      24.173   3.226  52.618  1.00  0.00     0.203 A 
HETATM   13  N5  UNL     1      24.505   4.305  51.724  1.00  0.00    -0.373 N 
HETATM   14  H15 UNL     1      24.937   5.189  52.106  1.00  0.00     0.161 HD
ENDBRANCH   6   8
ENDBRANCH   1   3
BRANCH   1  15
HETATM   15  C8  UNL     1      29.403   7.322  48.407  1.00  0.00     0.727 A 
HETATM   16  N2  UNL     1      29.740   8.510  48.926  1.00  0.00    -0.075 NA
HETATM   17  C9  UNL     1      30.949   8.837  49.350  1.00  0.00     0.139 A 
HETATM   18  C10 UNL     1      31.941   7.891  49.255  1.00  0.00     0.052 A 
HETATM   19  C11 UNL     1      31.670   6.663  48.739  1.00  0.00     0.078 A 
HETATM   20  N4  UNL     1      30.408   6.444  48.340  1.00  0.00    -0.063 NA
BRANCH  19  21
HETATM   21  C12 UNL     1      32.681   5.635  48.641  1.00  0.00     0.045 C 
HETATM   22  C13 UNL     1      33.322   5.118  47.610  1.00  0.00    -0.010 A 
HETATM   23  C14 UNL     1      34.298   4.074  47.867  1.00  0.00     0.128 A 
HETATM   24  C16 UNL     1      33.164   5.503  46.214  1.00  0.00     0.064 A 
HETATM   25  N3  UNL     1      35.054   3.424  47.080  1.00  0.00    -0.265 NA
HETATM   26  C15 UNL     1      35.093   3.612  45.651  1.00  0.00     0.165 A 
HETATM   27  S1  UNL     1      34.080   4.747  45.063  1.00  0.00    -0.094 SA
ENDBRANCH  19  21
ENDBRANCH   1  15
TORSDOF 4
ENDMDL
MODEL 8
REMARK VINA RESULT:      -7.6      2.184      3.021
REMARK  4 active torsions:
REMARK  status: ('A' for Active; 'I' for Inactive)
REMARK    1  A    between atoms: C3_3  and  C4_4 
REMARK    2  A    between atoms: C7_7  and  N1_8 
REMARK    3  A    between atoms: N1_8  and  C8_9 
REMARK    4  A    between atoms: C11_13  and  C12_14 
ROOT
HETATM    1  N1  UNL     1      28.129   5.007  48.207  1.00  0.00    -0.192 N 
HETATM    2  H6  UNL     1      28.204   4.501  47.297  1.00  0.00     0.184 HD
ENDROOT
BRANCH   1   3
HETATM    3  C7  UNL     1      29.070   6.041  48.464  1.00  0.00     0.030 A 
HETATM    4  C6  UNL     1      30.381   5.872  48.539  1.00  0.00     0.026 A 
HETATM    5  C5  UNL     1      31.033   7.152  48.816  1.00  0.00     0.007 A 
HETATM    6  C4  UNL     1      30.073   8.076  48.902  1.00  0.00    -0.048 A 
HETATM    7  C17 UNL     1      28.749   7.478  48.689  1.00  0.00     0.094 A 
BRANCH   6   8
HETATM    8  C3  UNL     1      30.331   9.502  49.173  1.00  0.00     0.136 A 
HETATM    9  C2  UNL     1      30.970  10.233  48.078  1.00  0.00     0.022 A 
HETATM   10  C1  UNL     1      30.437  11.345  47.573  1.00  0.00     0.116 A 
HETATM   11  N6  UNL     1      29.230  11.970  47.989  1.00  0.00    -0.257 NA
HETATM   12  C18 UNL     1      28.549  11.430  48.957  1.00  0.00     0.203 A 
HETATM   13  N5  UNL     1      29.112  10.227  49.512  1.00  0.00    -0.373 N 
HETATM   14  H15 UNL     1      28.614   9.731  50.299  1.00  0.00     0.161 HD
ENDBRANCH   6   8
ENDBRANCH   1   3
BRANCH   1  15
HETATM   15  C8  UNL     1      27.107   4.631  49.110  1.00  0.00     0.727 A 
HETATM   16  N2  UNL     1      26.017   5.359  49.382  1.00  0.00    -0.075 NA
HETATM   17  C9  UNL     1      25.058   5.005  50.222  1.00  0.00     0.139 A 
HETATM   18  C10 UNL     1      25.184   3.799  50.868  1.00  0.00     0.052 A 
HETATM   19  C11 UNL     1      26.264   3.007  50.639  1.00  0.00     0.078 A 
HETATM   20  N4  UNL     1      27.174   3.470  49.767  1.00  0.00    -0.063 NA
BRANCH  19  21
HETATM   21  C12 UNL     1      26.422   1.723  51.283  1.00  0.00     0.045 C 
HETATM   22  C13 UNL     1      27.192   1.319  52.276  1.00  0.00    -0.010 A 
HETATM   23  C14 UNL     1      27.103  -0.072  52.686  1.00  0.00     0.128 A 
HETATM   24  C16 UNL     1      28.128   2.139  53.032  1.00  0.00     0.064 A 
HETATM   25  N3  UNL     1      27.704  -0.714  53.601  1.00  0.00    -0.265 NA
HETATM   26  C15 UNL     1      28.680  -0.136  54.492  1.00  0.00     0.165 A 
HETATM   27  S1  UNL     1      28.991   1.449  54.262  1.00  0.00    -0.094 SA
ENDBRANCH  19  21
ENDBRANCH   1  15
TORSDOF 4
ENDMDL
MODEL 9
REMARK VINA RESULT:      -7.5      4.182      8.136
REMARK  4 active torsions:
REMARK  status: ('A' for Active; 'I' for Inactive)
REMARK    1  A    between atoms: C3_3  and  C4_4 
REMARK    2  A    between atoms: C7_7  and  N1_8 
REMARK    3  A    between atoms: N1_8  and  C8_9 
REMARK    4  A    between atoms: C11_13  and  C12_14 
ROOT
HETATM    1  N1  UNL     1      20.698   1.225  52.764  1.00  0.00    -0.192 N 
HETATM    2  H6  UNL     1      19.816   1.161  53.319  1.00  0.00     0.184 HD
ENDROOT
BRANCH   1   3
HETATM    3  C7  UNL     1      21.824   0.492  53.231  1.00  0.00     0.030 A 
HETATM    4  C6  UNL     1      21.812  -0.342  54.260  1.00  0.00     0.026 A 
HETATM    5  C5  UNL     1      23.143  -0.916  54.451  1.00  0.00     0.007 A 
HETATM    6  C4  UNL     1      23.938  -0.398  53.510  1.00  0.00    -0.048 A 
HETATM    7  C17 UNL     1      23.194   0.531  52.650  1.00  0.00     0.094 A 
BRANCH   6   8
HETATM    8  C3  UNL     1      25.366  -0.733  53.370  1.00  0.00     0.136 A 
HETATM    9  C2  UNL     1      26.072  -0.002  52.316  1.00  0.00     0.022 A 
HETATM   10  C1  UNL     1      27.177   0.698  52.568  1.00  0.00     0.116 A 
HETATM   11  N6  UNL     1      27.819   0.843  53.828  1.00  0.00    -0.257 NA
HETATM   12  C18 UNL     1      27.303   0.249  54.863  1.00  0.00     0.203 A 
HETATM   13  N5  UNL     1      26.107  -0.511  54.607  1.00  0.00    -0.373 N 
HETATM   14  H15 UNL     1      25.629  -1.019  55.400  1.00  0.00     0.161 HD
ENDBRANCH   6   8
ENDBRANCH   1   3
BRANCH   1  15
HETATM   15  C8  UNL     1      20.710   2.027  51.600  1.00  0.00     0.727 A 
HETATM   16  N2  UNL     1      20.258   1.644  50.398  1.00  0.00    -0.075 NA
HETATM   17  C9  UNL     1      20.264   2.396  49.310  1.00  0.00     0.139 A 
HETATM   18  C10 UNL     1      20.770   3.670  49.413  1.00  0.00     0.052 A 
HETATM   19  C11 UNL     1      21.245   4.125  50.602  1.00  0.00     0.078 A 
HETATM   20  N4  UNL     1      21.190   3.274  51.637  1.00  0.00    -0.063 NA
BRANCH  19  21
HETATM   21  C12 UNL     1      21.766   5.465  50.754  1.00  0.00     0.045 C 
HETATM   22  C13 UNL     1      22.958   5.984  50.522  1.00  0.00    -0.010 A 
HETATM   23  C14 UNL     1      23.150   7.398  50.790  1.00  0.00     0.128 A 
HETATM   24  C16 UNL     1      24.119   5.278  49.999  1.00  0.00     0.064 A 
HETATM   25  N3  UNL     1      24.166   8.145  50.648  1.00  0.00    -0.265 NA
HETATM   26  C15 UNL     1      25.442   7.695  50.148  1.00  0.00     0.165 A 
HETATM   27  S1  UNL     1      25.525   6.114  49.756  1.00  0.00    -0.094 SA
ENDBRANCH  19  21
ENDBRANCH   1  15
TORSDOF 4
ENDMDL
