MODEL 1
REMARK VINA RESULT:      -8.2      0.000      0.000
REMARK  6 active torsions:
REMARK  status: ('A' for Active; 'I' for Inactive)
REMARK    1  A    between atoms: C2_2  and  C3_3 
REMARK    2  A    between atoms: C3_3  and  C4_5 
REMARK    3  A    between atoms: C8_11  and  N3_12 
REMARK    4  A    between atoms: N3_12  and  C9_13 
REMARK    5  A    between atoms: C16_23  and  C17_24 
REMARK    6  A    between atoms: C17_24  and  O2_25 
ROOT
HETATM    1  C4  UNL     1      19.487  -0.127  52.185  1.00  0.00     0.077 C 
HETATM    2  C5  UNL     1      20.085  -0.533  53.315  1.00  0.00     0.067 C 
HETATM    3  C6  UNL     1      21.515  -0.516  53.695  1.00  0.00     0.093 A 
HETATM    4  N1  UNL     1      21.637  -1.346  54.736  1.00  0.00    -0.240 NA
HETATM    5  C7  UNL     1      22.836  -1.543  55.311  1.00  0.00     0.236 A 
HETATM    6  N2  UNL     1      23.887  -0.896  54.821  1.00  0.00    -0.222 NA
HETATM    7  C8  UNL     1      23.892  -0.049  53.795  1.00  0.00     0.160 A 
HETATM    8  C15 UNL     1      22.644   0.124  53.236  1.00  0.00     0.131 A 
HETATM    9  N4  UNL     1      22.797   1.059  52.146  1.00  0.00    -0.248 NA
HETATM   10  C16 UNL     1      22.252   1.238  50.990  1.00  0.00     0.054 C 
HETATM   11  C19 UNL     1      21.178   0.538  50.229  1.00  0.00     0.176 C 
HETATM   12  N5  UNL     1      19.934   0.452  50.959  1.00  0.00    -0.381 N 
HETATM   13  H19 UNL     1      19.148   0.939  50.466  1.00  0.00     0.160 HD
ENDROOT
BRANCH   7  14
HETATM   14  N3  UNL     1      24.992   0.656  53.247  1.00  0.00    -0.339 N 
HETATM   15  H8  UNL     1      24.779   1.509  52.661  1.00  0.00     0.167 HD
BRANCH  14  16
HETATM   16  C9  UNL     1      26.369   0.362  53.387  1.00  0.00     0.035 A 
HETATM   17  C10 UNL     1      26.890  -0.878  53.024  1.00  0.00     0.032 A 
HETATM   18  C11 UNL     1      28.214  -1.195  53.146  1.00  0.00     0.046 A 
HETATM   19  C12 UNL     1      29.120  -0.284  53.647  1.00  0.00     0.138 A 
HETATM   20  F1  UNL     1      30.417  -0.660  53.743  1.00  0.00    -0.204 F 
HETATM   21  C13 UNL     1      28.665   0.961  54.024  1.00  0.00     0.074 A 
HETATM   22 CL1  UNL     1      29.793   2.140  54.663  1.00  0.00    -0.081 Cl
HETATM   23  C14 UNL     1      27.320   1.222  53.876  1.00  0.00     0.056 A 
ENDBRANCH  14  16
ENDBRANCH   7  14
BRANCH  10  24
HETATM   24  C17 UNL     1      22.797   2.398  50.224  1.00  0.00     0.223 C 
BRANCH  24  25
HETATM   25  O2  UNL     1      24.024   2.810  50.743  1.00  0.00    -0.390 OA
HETATM   26  C18 UNL     1      24.050   4.184  50.970  1.00  0.00     0.201 C 
ENDBRANCH  24  25
ENDBRANCH  10  24
BRANCH   1  27
HETATM   27  C3  UNL     1      18.050  -0.343  52.271  1.00  0.00     0.175 C 
HETATM   28  O1  UNL     1      17.331   0.371  51.527  1.00  0.00    -0.291 OA
BRANCH  27  29
HETATM   29  C2  UNL     1      17.518  -1.373  53.211  1.00  0.00     0.081 C 
HETATM   30  C1  UNL     1      16.217  -1.935  52.645  1.00  0.00     0.013 C 
ENDBRANCH  27  29
ENDBRANCH   1  27
TORSDOF 6
ENDMDL
MODEL 2
REMARK VINA RESULT:      -7.9      4.190      7.826
REMARK  6 active torsions:
REMARK  status: ('A' for Active; 'I' for Inactive)
REMARK    1  A    between atoms: C2_2  and  C3_3 
REMARK    2  A    between atoms: C3_3  and  C4_5 
REMARK    3  A    between atoms: C8_11  and  N3_12 
REMARK    4  A    between atoms: N3_12  and  C9_13 
REMARK    5  A    between atoms: C16_23  and  C17_24 
REMARK    6  A    between atoms: C17_24  and  O2_25 
ROOT
HETATM    1  C4  UNL     1      26.515  -0.081  53.018  1.00  0.00     0.077 C 
HETATM    2  C5  UNL     1      25.586  -0.755  53.711  1.00  0.00     0.067 C 
HETATM    3  C6  UNL     1      24.136  -0.499  53.857  1.00  0.00     0.093 A 
HETATM    4  N1  UNL     1      23.734  -1.208  54.917  1.00  0.00    -0.240 NA
HETATM    5  C7  UNL     1      22.448  -1.181  55.306  1.00  0.00     0.236 A 
HETATM    6  N2  UNL     1      21.594  -0.435  54.613  1.00  0.00    -0.222 NA
HETATM    7  C8  UNL     1      21.872   0.310  53.547  1.00  0.00     0.160 A 
HETATM    8  C15 UNL     1      23.199   0.253  53.184  1.00  0.00     0.131 A 
HETATM    9  N4  UNL     1      23.356   1.099  52.024  1.00  0.00    -0.248 NA
HETATM   10  C16 UNL     1      24.281   1.862  51.547  1.00  0.00     0.054 C 
HETATM   11  C19 UNL     1      25.656   2.229  51.990  1.00  0.00     0.176 C 
HETATM   12  N5  UNL     1      26.510   1.079  52.186  1.00  0.00    -0.381 N 
HETATM   13  H19 UNL     1      27.348   1.093  51.556  1.00  0.00     0.160 HD
ENDROOT
BRANCH   7  14
HETATM   14  N3  UNL     1      20.987   1.116  52.787  1.00  0.00    -0.339 N 
HETATM   15  H8  UNL     1      21.195   2.150  52.735  1.00  0.00     0.167 HD
BRANCH  14  16
HETATM   16  C9  UNL     1      19.836   0.705  52.073  1.00  0.00     0.035 A 
HETATM   17  C10 UNL     1      19.553   1.198  50.802  1.00  0.00     0.032 A 
HETATM   18  C11 UNL     1      18.451   0.823  50.085  1.00  0.00     0.046 A 
HETATM   19  C12 UNL     1      17.544  -0.082  50.597  1.00  0.00     0.138 A 
HETATM   20  F1  UNL     1      16.474  -0.412  49.837  1.00  0.00    -0.204 F 
HETATM   21  C13 UNL     1      17.770  -0.605  51.852  1.00  0.00     0.074 A 
HETATM   22 CL1  UNL     1      16.636  -1.757  52.527  1.00  0.00    -0.081 Cl
HETATM   23  C14 UNL     1      18.898  -0.190  52.524  1.00  0.00     0.056 A 
ENDBRANCH  14  16
ENDBRANCH   7  14
BRANCH  10  24
HETATM   24  C17 UNL     1      23.921   2.540  50.266  1.00  0.00     0.223 C 
BRANCH  24  25
HETATM   25  O2  UNL     1      22.539   2.552  50.075  1.00  0.00    -0.390 OA
HETATM   26  C18 UNL     1      22.057   3.846  49.895  1.00  0.00     0.201 C 
ENDBRANCH  24  25
ENDBRANCH  10  24
BRANCH   1  27
HETATM   27  C3  UNL     1      27.817  -0.713  53.176  1.00  0.00     0.175 C 
HETATM   28  O1  UNL     1      27.842  -1.968  53.104  1.00  0.00    -0.291 OA
BRANCH  27  29
HETATM   29  C2  UNL     1      29.021   0.136  53.409  1.00  0.00     0.081 C 
HETATM   30  C1  UNL     1      30.207  -0.766  53.742  1.00  0.00     0.013 C 
ENDBRANCH  27  29
ENDBRANCH   1  27
TORSDOF 6
ENDMDL
MODEL 3
REMARK VINA RESULT:      -7.8      3.964      5.723
REMARK  6 active torsions:
REMARK  status: ('A' for Active; 'I' for Inactive)
REMARK    1  A    between atoms: C2_2  and  C3_3 
REMARK    2  A    between atoms: C3_3  and  C4_5 
REMARK    3  A    between atoms: C8_11  and  N3_12 
REMARK    4  A    between atoms: N3_12  and  C9_13 
REMARK    5  A    between atoms: C16_23  and  C17_24 
REMARK    6  A    between atoms: C17_24  and  O2_25 
ROOT
HETATM    1  C4  UNL     1      22.380   1.012  52.619  1.00  0.00     0.077 C 
HETATM    2  C5  UNL     1      23.630   1.294  53.013  1.00  0.00     0.067 C 
HETATM    3  C6  UNL     1      24.767   1.851  52.247  1.00  0.00     0.093 A 
HETATM    4  N1  UNL     1      25.864   1.601  52.968  1.00  0.00    -0.240 NA
HETATM    5  C7  UNL     1      27.072   1.992  52.526  1.00  0.00     0.236 A 
HETATM    6  N2  UNL     1      27.144   2.628  51.362  1.00  0.00    -0.222 NA
HETATM    7  C8  UNL     1      26.129   2.932  50.558  1.00  0.00     0.160 A 
HETATM    8  C15 UNL     1      24.912   2.514  51.049  1.00  0.00     0.131 A 
HETATM    9  N4  UNL     1      23.911   2.907  50.085  1.00  0.00    -0.248 NA
HETATM   10  C16 UNL     1      22.789   2.432  49.661  1.00  0.00     0.054 C 
HETATM   11  C19 UNL     1      21.987   1.218  49.986  1.00  0.00     0.176 C 
HETATM   12  N5  UNL     1      21.660   1.118  51.390  1.00  0.00    -0.381 N 
HETATM   13  H19 UNL     1      20.626   1.123  51.560  1.00  0.00     0.160 HD
ENDROOT
BRANCH   7  14
HETATM   14  N3  UNL     1      26.171   3.608  49.313  1.00  0.00    -0.339 N 
HETATM   15  H8  UNL     1      25.686   3.149  48.494  1.00  0.00     0.167 HD
BRANCH  14  16
HETATM   16  C9  UNL     1      26.792   4.845  49.017  1.00  0.00     0.035 A 
HETATM   17  C10 UNL     1      26.132   6.056  49.211  1.00  0.00     0.032 A 
HETATM   18  C11 UNL     1      26.702   7.268  48.936  1.00  0.00     0.046 A 
HETATM   19  C12 UNL     1      27.986   7.353  48.440  1.00  0.00     0.138 A 
HETATM   20  F1  UNL     1      28.492   8.583  48.188  1.00  0.00    -0.204 F 
HETATM   21  C13 UNL     1      28.691   6.188  48.226  1.00  0.00     0.074 A 
HETATM   22 CL1  UNL     1      30.324   6.265  47.599  1.00  0.00    -0.081 Cl
HETATM   23  C14 UNL     1      28.064   4.998  48.524  1.00  0.00     0.056 A 
ENDBRANCH  14  16
ENDBRANCH   7  14
BRANCH  10  24
HETATM   24  C17 UNL     1      22.124   3.261  48.613  1.00  0.00     0.223 C 
BRANCH  24  25
HETATM   25  O2  UNL     1      23.018   4.173  48.052  1.00  0.00    -0.390 OA
HETATM   26  C18 UNL     1      22.418   5.411  47.833  1.00  0.00     0.201 C 
ENDBRANCH  24  25
ENDBRANCH  10  24
BRANCH   1  27
HETATM   27  C3  UNL     1      21.611   0.477  53.733  1.00  0.00     0.175 C 
HETATM   28  O1  UNL     1      20.455   0.945  53.891  1.00  0.00    -0.291 OA
BRANCH  27  29
HETATM   29  C2  UNL     1      22.216  -0.571  54.607  1.00  0.00     0.081 C 
HETATM   30  C1  UNL     1      21.515  -1.900  54.344  1.00  0.00     0.013 C 
ENDBRANCH  27  29
ENDBRANCH   1  27
TORSDOF 6
ENDMDL
MODEL 4
REMARK VINA RESULT:      -7.8      4.287      8.385
REMARK  6 active torsions:
REMARK  status: ('A' for Active; 'I' for Inactive)
REMARK    1  A    between atoms: C2_2  and  C3_3 
REMARK    2  A    between atoms: C3_3  and  C4_5 
REMARK    3  A    between atoms: C8_11  and  N3_12 
REMARK    4  A    between atoms: N3_12  and  C9_13 
REMARK    5  A    between atoms: C16_23  and  C17_24 
REMARK    6  A    between atoms: C17_24  and  O2_25 
ROOT
HETATM    1  C4  UNL     1      27.373   0.667  53.486  1.00  0.00     0.077 C 
HETATM    2  C5  UNL     1      27.444   1.664  52.591  1.00  0.00     0.067 C 
HETATM    3  C6  UNL     1      26.417   2.184  51.662  1.00  0.00     0.093 A 
HETATM    4  N1  UNL     1      27.070   2.908  50.748  1.00  0.00    -0.240 NA
HETATM    5  C7  UNL     1      26.398   3.518  49.756  1.00  0.00     0.236 A 
HETATM    6  N2  UNL     1      25.077   3.381  49.710  1.00  0.00    -0.222 NA
HETATM    7  C8  UNL     1      24.320   2.691  50.557  1.00  0.00     0.160 A 
HETATM    8  C15 UNL     1      25.048   2.083  51.556  1.00  0.00     0.131 A 
HETATM    9  N4  UNL     1      24.107   1.377  52.394  1.00  0.00    -0.248 NA
HETATM   10  C16 UNL     1      24.112   0.289  53.086  1.00  0.00     0.054 C 
HETATM   11  C19 UNL     1      25.127  -0.772  53.347  1.00  0.00     0.176 C 
HETATM   12  N5  UNL     1      26.358  -0.250  53.896  1.00  0.00    -0.381 N 
HETATM   13  H19 UNL     1      26.569  -0.643  54.844  1.00  0.00     0.160 HD
ENDROOT
BRANCH   7  14
HETATM   14  N3  UNL     1      22.912   2.525  50.537  1.00  0.00    -0.339 N 
HETATM   15  H8  UNL     1      22.535   1.551  50.694  1.00  0.00     0.167 HD
BRANCH  14  16
HETATM   16  C9  UNL     1      21.924   3.516  50.329  1.00  0.00     0.035 A 
HETATM   17  C10 UNL     1      20.671   3.199  49.810  1.00  0.00     0.032 A 
HETATM   18  C11 UNL     1      19.695   4.132  49.597  1.00  0.00     0.046 A 
HETATM   19  C12 UNL     1      19.906   5.463  49.890  1.00  0.00     0.138 A 
HETATM   20  F1  UNL     1      18.899   6.336  49.656  1.00  0.00    -0.204 F 
HETATM   21  C13 UNL     1      21.128   5.839  50.407  1.00  0.00     0.074 A 
HETATM   22 CL1  UNL     1      21.425   7.522  50.790  1.00  0.00    -0.081 Cl
HETATM   23  C14 UNL     1      22.071   4.854  50.600  1.00  0.00     0.056 A 
ENDBRANCH  14  16
ENDBRANCH   7  14
BRANCH  10  24
HETATM   24  C17 UNL     1      22.830   0.003  53.796  1.00  0.00     0.223 C 
BRANCH  24  25
HETATM   25  O2  UNL     1      22.297  -1.222  53.395  1.00  0.00    -0.390 OA
HETATM   26  C18 UNL     1      21.225  -1.603  54.199  1.00  0.00     0.201 C 
ENDBRANCH  24  25
ENDBRANCH  10  24
BRANCH   1  27
HETATM   27  C3  UNL     1      28.646   0.519  54.176  1.00  0.00     0.175 C 
HETATM   28  O1  UNL     1      28.696   0.951  55.356  1.00  0.00    -0.291 OA
BRANCH  27  29
HETATM   29  C2  UNL     1      29.794  -0.120  53.469  1.00  0.00     0.081 C 
HETATM   30  C1  UNL     1      29.578  -1.630  53.437  1.00  0.00     0.013 C 
ENDBRANCH  27  29
ENDBRANCH   1  27
TORSDOF 6
ENDMDL
MODEL 5
REMARK VINA RESULT:      -7.8      4.319      8.441
REMARK  6 active torsions:
REMARK  status: ('A' for Active; 'I' for Inactive)
REMARK    1  A    between atoms: C2_2  and  C3_3 
REMARK    2  A    between atoms: C3_3  and  C4_5 
REMARK    3  A    between atoms: C8_11  and  N3_12 
REMARK    4  A    between atoms: N3_12  and  C9_13 
REMARK    5  A    between atoms: C16_23  and  C17_24 
REMARK    6  A    between atoms: C17_24  and  O2_25 
ROOT
HETATM    1  C4  UNL     1      27.432   0.786  53.459  1.00  0.00     0.077 C 
HETATM    2  C5  UNL     1      27.432   1.795  52.575  1.00  0.00     0.067 C 
HETATM    3  C6  UNL     1      26.367   2.259  51.660  1.00  0.00     0.093 A 
HETATM    4  N1  UNL     1      26.965   3.034  50.749  1.00  0.00    -0.240 NA
HETATM    5  C7  UNL     1      26.248   3.610  49.769  1.00  0.00     0.236 A 
HETATM    6  N2  UNL     1      24.938   3.391  49.732  1.00  0.00    -0.222 NA
HETATM    7  C8  UNL     1      24.233   2.644  50.577  1.00  0.00     0.160 A 
HETATM    8  C15 UNL     1      25.006   2.074  51.564  1.00  0.00     0.131 A 
HETATM    9  N4  UNL     1      24.119   1.300  52.400  1.00  0.00    -0.248 NA
HETATM   10  C16 UNL     1      24.199   0.206  53.080  1.00  0.00     0.054 C 
HETATM   11  C19 UNL     1      25.281  -0.790  53.320  1.00  0.00     0.176 C 
HETATM   12  N5  UNL     1      26.481  -0.198  53.866  1.00  0.00    -0.381 N 
HETATM   13  H19 UNL     1      26.725  -0.588  54.808  1.00  0.00     0.160 HD
ENDROOT
BRANCH   7  14
HETATM   14  N3  UNL     1      22.838   2.390  50.566  1.00  0.00    -0.339 N 
HETATM   15  H8  UNL     1      22.407   2.009  51.452  1.00  0.00     0.167 HD
BRANCH  14  16
HETATM   16  C9  UNL     1      21.928   2.586  49.500  1.00  0.00     0.035 A 
HETATM   17  C10 UNL     1      20.555   2.432  49.675  1.00  0.00     0.032 A 
HETATM   18  C11 UNL     1      19.650   2.612  48.668  1.00  0.00     0.046 A 
HETATM   19  C12 UNL     1      20.059   2.964  47.398  1.00  0.00     0.138 A 
HETATM   20  F1  UNL     1      19.113   3.128  46.445  1.00  0.00    -0.204 F 
HETATM   21  C13 UNL     1      21.407   3.132  47.162  1.00  0.00     0.074 A 
HETATM   22 CL1  UNL     1      21.957   3.579  45.560  1.00  0.00    -0.081 Cl
HETATM   23  C14 UNL     1      22.270   2.936  48.217  1.00  0.00     0.056 A 
ENDBRANCH  14  16
ENDBRANCH   7  14
BRANCH  10  24
HETATM   24  C17 UNL     1      22.943  -0.168  53.796  1.00  0.00     0.223 C 
BRANCH  24  25
HETATM   25  O2  UNL     1      21.874   0.628  53.385  1.00  0.00    -0.390 OA
HETATM   26  C18 UNL     1      20.711   0.330  54.091  1.00  0.00     0.201 C 
ENDBRANCH  24  25
ENDBRANCH  10  24
BRANCH   1  27
HETATM   27  C3  UNL     1      28.717   0.711  54.138  1.00  0.00     0.175 C 
HETATM   28  O1  UNL     1      28.776   1.226  55.283  1.00  0.00    -0.291 OA
BRANCH  27  29
HETATM   29  C2  UNL     1      29.868   0.046  53.459  1.00  0.00     0.081 C 
HETATM   30  C1  UNL     1      29.676  -1.466  53.528  1.00  0.00     0.013 C 
ENDBRANCH  27  29
ENDBRANCH   1  27
TORSDOF 6
ENDMDL
MODEL 6
REMARK VINA RESULT:      -7.5      2.023      2.428
REMARK  6 active torsions:
REMARK  status: ('A' for Active; 'I' for Inactive)
REMARK    1  A    between atoms: C2_2  and  C3_3 
REMARK    2  A    between atoms: C3_3  and  C4_5 
REMARK    3  A    between atoms: C8_11  and  N3_12 
REMARK    4  A    between atoms: N3_12  and  C9_13 
REMARK    5  A    between atoms: C16_23  and  C17_24 
REMARK    6  A    between atoms: C17_24  and  O2_25 
ROOT
HETATM    1  C4  UNL     1      20.209   2.096  51.030  1.00  0.00     0.077 C 
HETATM    2  C5  UNL     1      20.601   1.431  52.126  1.00  0.00     0.067 C 
HETATM    3  C6  UNL     1      21.947   0.971  52.530  1.00  0.00     0.093 A 
HETATM    4  N1  UNL     1      21.760   0.059  53.491  1.00  0.00    -0.240 NA
HETATM    5  C7  UNL     1      22.813  -0.549  54.065  1.00  0.00     0.236 A 
HETATM    6  N2  UNL     1      24.034  -0.221  53.656  1.00  0.00    -0.222 NA
HETATM    7  C8  UNL     1      24.345   0.665  52.714  1.00  0.00     0.160 A 
HETATM    8  C15 UNL     1      23.239   1.263  52.153  1.00  0.00     0.131 A 
HETATM    9  N4  UNL     1      23.721   2.193  51.158  1.00  0.00    -0.248 NA
HETATM   10  C16 UNL     1      23.311   2.629  50.016  1.00  0.00     0.054 C 
HETATM   11  C19 UNL     1      22.110   2.364  49.173  1.00  0.00     0.176 C 
HETATM   12  N5  UNL     1      20.868   2.608  49.871  1.00  0.00    -0.381 N 
HETATM   13  H19 UNL     1      20.293   3.355  49.412  1.00  0.00     0.160 HD
ENDROOT
BRANCH   7  14
HETATM   14  N3  UNL     1      25.633   1.037  52.254  1.00  0.00    -0.339 N 
HETATM   15  H8  UNL     1      25.685   1.769  51.494  1.00  0.00     0.167 HD
BRANCH  14  16
HETATM   16  C9  UNL     1      26.886   0.545  52.691  1.00  0.00     0.035 A 
HETATM   17  C10 UNL     1      27.885   1.401  53.150  1.00  0.00     0.032 A 
HETATM   18  C11 UNL     1      29.106   0.960  53.578  1.00  0.00     0.046 A 
HETATM   19  C12 UNL     1      29.417  -0.384  53.578  1.00  0.00     0.138 A 
HETATM   20  F1  UNL     1      30.642  -0.756  54.015  1.00  0.00    -0.204 F 
HETATM   21  C13 UNL     1      28.468  -1.281  53.135  1.00  0.00     0.074 A 
HETATM   22 CL1  UNL     1      28.834  -2.994  53.123  1.00  0.00    -0.081 Cl
HETATM   23  C14 UNL     1      27.257  -0.776  52.717  1.00  0.00     0.056 A 
ENDBRANCH  14  16
ENDBRANCH   7  14
BRANCH  10  24
HETATM   24  C17 UNL     1      24.221   3.622  49.371  1.00  0.00     0.223 C 
BRANCH  24  25
HETATM   25  O2  UNL     1      24.409   4.736  50.190  1.00  0.00    -0.390 OA
HETATM   26  C18 UNL     1      23.511   5.756  49.883  1.00  0.00     0.201 C 
ENDBRANCH  24  25
ENDBRANCH  10  24
BRANCH   1  27
HETATM   27  C3  UNL     1      18.773   2.331  51.070  1.00  0.00     0.175 C 
HETATM   28  O1  UNL     1      18.350   3.050  52.010  1.00  0.00    -0.291 OA
BRANCH  27  29
HETATM   29  C2  UNL     1      17.901   1.724  50.023  1.00  0.00     0.081 C 
HETATM   30  C1  UNL     1      17.684   0.250  50.352  1.00  0.00     0.013 C 
ENDBRANCH  27  29
ENDBRANCH   1  27
TORSDOF 6
ENDMDL
MODEL 7
REMARK VINA RESULT:      -7.4      3.028      5.369
REMARK  6 active torsions:
REMARK  status: ('A' for Active; 'I' for Inactive)
REMARK    1  A    between atoms: C2_2  and  C3_3 
REMARK    2  A    between atoms: C3_3  and  C4_5 
REMARK    3  A    between atoms: C8_11  and  N3_12 
REMARK    4  A    between atoms: N3_12  and  C9_13 
REMARK    5  A    between atoms: C16_23  and  C17_24 
REMARK    6  A    between atoms: C17_24  and  O2_25 
ROOT
HETATM    1  C4  UNL     1      21.899   4.121  49.457  1.00  0.00     0.077 C 
HETATM    2  C5  UNL     1      23.188   4.121  49.085  1.00  0.00     0.067 C 
HETATM    3  C6  UNL     1      24.384   3.618  49.795  1.00  0.00     0.093 A 
HETATM    4  N1  UNL     1      25.440   4.171  49.190  1.00  0.00    -0.240 NA
HETATM    5  C7  UNL     1      26.686   3.901  49.616  1.00  0.00     0.236 A 
HETATM    6  N2  UNL     1      26.838   3.076  50.646  1.00  0.00    -0.222 NA
HETATM    7  C8  UNL     1      25.870   2.468  51.326  1.00  0.00     0.160 A 
HETATM    8  C15 UNL     1      24.611   2.772  50.857  1.00  0.00     0.131 A 
HETATM    9  N4  UNL     1      23.669   2.049  51.679  1.00  0.00    -0.248 NA
HETATM   10  C16 UNL     1      22.475   2.251  52.122  1.00  0.00     0.054 C 
HETATM   11  C19 UNL     1      21.490   3.361  51.984  1.00  0.00     0.176 C 
HETATM   12  N5  UNL     1      21.181   3.672  50.607  1.00  0.00    -0.381 N 
HETATM   13  H19 UNL     1      20.166   3.534  50.385  1.00  0.00     0.160 HD
ENDROOT
BRANCH   7  14
HETATM   14  N3  UNL     1      25.997   1.584  52.427  1.00  0.00    -0.339 N 
HETATM   15  H8  UNL     1      25.143   1.436  53.031  1.00  0.00     0.167 HD
BRANCH  14  16
HETATM   16  C9  UNL     1      27.143   0.857  52.830  1.00  0.00     0.035 A 
HETATM   17  C10 UNL     1      28.258   1.495  53.367  1.00  0.00     0.032 A 
HETATM   18  C11 UNL     1      29.380   0.824  53.766  1.00  0.00     0.046 A 
HETATM   19  C12 UNL     1      29.466  -0.548  53.654  1.00  0.00     0.138 A 
HETATM   20  F1  UNL     1      30.605  -1.152  54.067  1.00  0.00    -0.204 F 
HETATM   21  C13 UNL     1      28.393  -1.236  53.129  1.00  0.00     0.074 A 
HETATM   22 CL1  UNL     1      28.473  -2.979  52.974  1.00  0.00    -0.081 Cl
HETATM   23  C14 UNL     1      27.291  -0.505  52.746  1.00  0.00     0.056 A 
ENDBRANCH  14  16
ENDBRANCH   7  14
BRANCH  10  24
HETATM   24  C17 UNL     1      21.934   1.143  52.965  1.00  0.00     0.223 C 
BRANCH  24  25
HETATM   25  O2  UNL     1      22.277  -0.102  52.438  1.00  0.00    -0.390 OA
HETATM   26  C18 UNL     1      22.517  -1.037  53.443  1.00  0.00     0.201 C 
ENDBRANCH  24  25
ENDBRANCH  10  24
BRANCH   1  27
HETATM   27  C3  UNL     1      21.076   4.728  48.422  1.00  0.00     0.175 C 
HETATM   28  O1  UNL     1      20.059   4.082  48.065  1.00  0.00    -0.291 OA
BRANCH  27  29
HETATM   29  C2  UNL     1      21.471   6.050  47.851  1.00  0.00     0.081 C 
HETATM   30  C1  UNL     1      21.591   5.919  46.336  1.00  0.00     0.013 C 
ENDBRANCH  27  29
ENDBRANCH   1  27
TORSDOF 6
ENDMDL
MODEL 8
REMARK VINA RESULT:      -7.4      4.449      8.008
REMARK  6 active torsions:
REMARK  status: ('A' for Active; 'I' for Inactive)
REMARK    1  A    between atoms: C2_2  and  C3_3 
REMARK    2  A    between atoms: C3_3  and  C4_5 
REMARK    3  A    between atoms: C8_11  and  N3_12 
REMARK    4  A    between atoms: N3_12  and  C9_13 
REMARK    5  A    between atoms: C16_23  and  C17_24 
REMARK    6  A    between atoms: C17_24  and  O2_25 
ROOT
HETATM    1  C4  UNL     1      25.159   1.061  52.572  1.00  0.00     0.077 C 
HETATM    2  C5  UNL     1      24.771   0.002  53.298  1.00  0.00     0.067 C 
HETATM    3  C6  UNL     1      23.423  -0.387  53.766  1.00  0.00     0.093 A 
HETATM    4  N1  UNL     1      23.608  -1.289  54.736  1.00  0.00    -0.240 NA
HETATM    5  C7  UNL     1      22.555  -1.838  55.365  1.00  0.00     0.236 A 
HETATM    6  N2  UNL     1      21.334  -1.462  55.000  1.00  0.00    -0.222 NA
HETATM    7  C8  UNL     1      21.023  -0.578  54.056  1.00  0.00     0.160 A 
HETATM    8  C15 UNL     1      22.131  -0.042  53.437  1.00  0.00     0.131 A 
HETATM    9  N4  UNL     1      21.650   0.890  52.444  1.00  0.00    -0.248 NA
HETATM   10  C16 UNL     1      22.054   2.008  51.945  1.00  0.00     0.054 C 
HETATM   11  C19 UNL     1      23.243   2.878  52.172  1.00  0.00     0.176 C 
HETATM   12  N5  UNL     1      24.495   2.180  51.984  1.00  0.00    -0.381 N 
HETATM   13  H19 UNL     1      25.073   2.599  51.217  1.00  0.00     0.160 HD
ENDROOT
BRANCH   7  14
HETATM   14  N3  UNL     1      19.735  -0.156  53.643  1.00  0.00    -0.339 N 
HETATM   15  H8  UNL     1      19.567   0.885  53.566  1.00  0.00     0.167 HD
BRANCH  14  16
HETATM   16  C9  UNL     1      18.621  -0.963  53.311  1.00  0.00     0.035 A 
HETATM   17  C10 UNL     1      18.482  -2.254  53.814  1.00  0.00     0.032 A 
HETATM   18  C11 UNL     1      17.419  -3.060  53.515  1.00  0.00     0.046 A 
HETATM   19  C12 UNL     1      16.410  -2.626  52.681  1.00  0.00     0.138 A 
HETATM   20  F1  UNL     1      15.385  -3.472  52.424  1.00  0.00    -0.204 F 
HETATM   21  C13 UNL     1      16.491  -1.355  52.152  1.00  0.00     0.074 A 
HETATM   22 CL1  UNL     1      15.224  -0.776  51.091  1.00  0.00    -0.081 Cl
HETATM   23  C14 UNL     1      17.585  -0.590  52.491  1.00  0.00     0.056 A 
ENDBRANCH  14  16
ENDBRANCH   7  14
BRANCH  10  24
HETATM   24  C17 UNL     1      21.149   2.582  50.905  1.00  0.00     0.223 C 
BRANCH  24  25
HETATM   25  O2  UNL     1      19.856   2.073  51.028  1.00  0.00    -0.390 OA
HETATM   26  C18 UNL     1      18.954   3.056  51.428  1.00  0.00     0.201 C 
ENDBRANCH  24  25
ENDBRANCH  10  24
BRANCH   1  27
HETATM   27  C3  UNL     1      26.598   1.022  52.356  1.00  0.00     0.175 C 
HETATM   28  O1  UNL     1      27.109  -0.115  52.197  1.00  0.00    -0.291 OA
BRANCH  27  29
HETATM   29  C2  UNL     1      27.372   2.298  52.335  1.00  0.00     0.081 C 
HETATM   30  C1  UNL     1      28.356   2.300  53.500  1.00  0.00     0.013 C 
ENDBRANCH  27  29
ENDBRANCH   1  27
TORSDOF 6
ENDMDL
MODEL 9
REMARK VINA RESULT:      -7.0      4.441      6.122
REMARK  6 active torsions:
REMARK  status: ('A' for Active; 'I' for Inactive)
REMARK    1  A    between atoms: C2_2  and  C3_3 
REMARK    2  A    between atoms: C3_3  and  C4_5 
REMARK    3  A    between atoms: C8_11  and  N3_12 
REMARK    4  A    between atoms: N3_12  and  C9_13 
REMARK    5  A    between atoms: C16_23  and  C17_24 
REMARK    6  A    between atoms: C17_24  and  O2_25 
ROOT
HETATM    1  C4  UNL     1      21.874   2.222  51.683  1.00  0.00     0.077 C 
HETATM    2  C5  UNL     1      23.163   2.116  52.037  1.00  0.00     0.067 C 
HETATM    3  C6  UNL     1      24.379   2.631  51.369  1.00  0.00     0.093 A 
HETATM    4  N1  UNL     1      25.409   1.963  51.898  1.00  0.00    -0.240 NA
HETATM    5  C7  UNL     1      26.665   2.214  51.488  1.00  0.00     0.236 A 
HETATM    6  N2  UNL     1      26.851   3.136  50.550  1.00  0.00    -0.222 NA
HETATM    7  C8  UNL     1      25.912   3.862  49.950  1.00  0.00     0.160 A 
HETATM    8  C15 UNL     1      24.642   3.573  50.401  1.00  0.00     0.131 A 
HETATM    9  N4  UNL     1      23.733   4.427  49.673  1.00  0.00    -0.248 NA
HETATM   10  C16 UNL     1      22.526   4.334  49.225  1.00  0.00     0.054 C 
HETATM   11  C19 UNL     1      21.486   3.268  49.257  1.00  0.00     0.176 C 
HETATM   12  N5  UNL     1      21.172   2.827  50.597  1.00  0.00    -0.381 N 
HETATM   13  H19 UNL     1      20.167   2.992  50.846  1.00  0.00     0.160 HD
ENDROOT
BRANCH   7  14
HETATM   14  N3  UNL     1      26.076   4.851  48.948  1.00  0.00    -0.339 N 
HETATM   15  H8  UNL     1      25.241   5.066  48.337  1.00  0.00     0.167 HD
BRANCH  14  16
HETATM   16  C9  UNL     1      27.237   5.604  48.654  1.00  0.00     0.035 A 
HETATM   17  C10 UNL     1      27.220   6.996  48.645  1.00  0.00     0.032 A 
HETATM   18  C11 UNL     1      28.323   7.754  48.364  1.00  0.00     0.046 A 
HETATM   19  C12 UNL     1      29.534   7.164  48.070  1.00  0.00     0.138 A 
HETATM   20  F1  UNL     1      30.588   7.970  47.802  1.00  0.00    -0.204 F 
HETATM   21  C13 UNL     1      29.615   5.787  48.063  1.00  0.00     0.074 A 
HETATM   22 CL1  UNL     1      31.141   5.010  47.694  1.00  0.00    -0.081 Cl
HETATM   23  C14 UNL     1      28.470   5.079  48.355  1.00  0.00     0.056 A 
ENDBRANCH  14  16
ENDBRANCH   7  14
BRANCH  10  24
HETATM   24  C17 UNL     1      22.038   5.552  48.512  1.00  0.00     0.223 C 
BRANCH  24  25
HETATM   25  O2  UNL     1      22.798   5.805  47.370  1.00  0.00    -0.390 OA
HETATM   26  C18 UNL     1      22.140   5.390  46.214  1.00  0.00     0.201 C 
ENDBRANCH  24  25
ENDBRANCH  10  24
BRANCH   1  27
HETATM   27  C3  UNL     1      21.028   1.550  52.659  1.00  0.00     0.175 C 
HETATM   28  O1  UNL     1      20.063   2.214  53.115  1.00  0.00    -0.291 OA
BRANCH  27  29
HETATM   29  C2  UNL     1      21.340   0.146  53.057  1.00  0.00     0.081 C 
HETATM   30  C1  UNL     1      21.157   0.007  54.566  1.00  0.00     0.013 C 
ENDBRANCH  27  29
ENDBRANCH   1  27
TORSDOF 6
ENDMDL
