MODEL 1
REMARK VINA RESULT:      -8.8      0.000      0.000
REMARK  4 active torsions:
REMARK  status: ('A' for Active; 'I' for Inactive)
REMARK    1  A    between atoms: C1_2  and  C2_3 
REMARK       I    between atoms: C1_2  and  N2_13 
REMARK    2  A    between atoms: C3_4  and  N1_5 
REMARK    3  A    between atoms: N1_5  and  C4_6 
REMARK    4  A    between atoms: C14_18  and  O2_19 
ROOT
HETATM    1  O1  UNL     1      22.281   2.262  50.086  1.00  0.00    -0.266 OA
HETATM    2  C1  UNL     1      22.987   1.830  51.019  1.00  0.00     0.272 C 
HETATM    3  N2  UNL     1      22.275   0.980  51.900  1.00  0.00    -0.192 N 
HETATM    4  C10 UNL     1      22.646   0.262  53.086  1.00  0.00     0.127 A 
HETATM    5  C11 UNL     1      22.338  -0.533  54.072  1.00  0.00     0.017 A 
HETATM    6  C12 UNL     1      21.153  -1.245  54.542  1.00  0.00    -0.013 A 
HETATM    7  C13 UNL     1      20.016  -1.144  53.881  1.00  0.00     0.079 A 
HETATM    8  C14 UNL     1      18.648  -1.243  53.399  1.00  0.00     0.052 A 
HETATM    9  C15 UNL     1      18.361  -0.552  52.289  1.00  0.00     0.034 A 
HETATM   10  C16 UNL     1      18.870   0.341  51.255  1.00  0.00     0.029 A 
HETATM   11  C17 UNL     1      20.079   0.892  51.024  1.00  0.00     0.168 A 
HETATM   12  O3  UNL     1      21.001   0.518  51.974  1.00  0.00    -0.241 OA
ENDROOT
BRANCH   2  13
HETATM   13  C2  UNL     1      24.394   2.144  51.215  1.00  0.00     0.093 C 
HETATM   14  C3  UNL     1      25.347   2.951  51.661  1.00  0.00     0.094 C 
BRANCH  14  15
HETATM   15  N1  UNL     1      26.772   2.892  51.662  1.00  0.00    -0.366 N 
HETATM   16  H3  UNL     1      27.353   3.535  51.077  1.00  0.00     0.165 HD
BRANCH  15  17
HETATM   17  C4  UNL     1      27.464   1.941  52.465  1.00  0.00     0.033 A 
HETATM   18  C5  UNL     1      28.398   2.289  53.429  1.00  0.00     0.029 A 
HETATM   19  C6  UNL     1      29.064   1.387  54.202  1.00  0.00     0.004 A 
HETATM   20  C7  UNL     1      28.794   0.039  54.017  1.00  0.00     0.024 A 
HETATM   21  C8  UNL     1      27.865  -0.348  53.063  1.00  0.00     0.036 A 
HETATM   22 CL1  UNL     1      27.583  -2.062  52.894  1.00  0.00    -0.084 Cl
HETATM   23  C9  UNL     1      27.192   0.593  52.279  1.00  0.00     0.053 A 
ENDBRANCH  15  17
ENDBRANCH  14  15
ENDBRANCH   2  13
BRANCH   8  24
HETATM   24  O2  UNL     1      17.526  -1.954  53.898  1.00  0.00    -0.364 OA
HETATM   25  H12 UNL     1      16.743  -1.963  53.259  1.00  0.00     0.217 HD
ENDBRANCH   8  24
TORSDOF 4
ENDMDL
MODEL 2
REMARK VINA RESULT:      -8.3      3.232      8.363
REMARK  4 active torsions:
REMARK  status: ('A' for Active; 'I' for Inactive)
REMARK    1  A    between atoms: C1_2  and  C2_3 
REMARK       I    between atoms: C1_2  and  N2_13 
REMARK    2  A    between atoms: C3_4  and  N1_5 
REMARK    3  A    between atoms: N1_5  and  C4_6 
REMARK    4  A    between atoms: C14_18  and  O2_19 
ROOT
HETATM    1  O1  UNL     1      23.606  -1.518  55.469  1.00  0.00    -0.266 OA
HETATM    2  C1  UNL     1      23.035  -0.880  54.562  1.00  0.00     0.272 C 
HETATM    3  N2  UNL     1      23.899   0.025  53.898  1.00  0.00    -0.192 N 
HETATM    4  C10 UNL     1      23.710   0.952  52.820  1.00  0.00     0.127 A 
HETATM    5  C11 UNL     1      24.180   1.858  52.008  1.00  0.00     0.017 A 
HETATM    6  C12 UNL     1      25.460   2.518  51.768  1.00  0.00    -0.013 A 
HETATM    7  C13 UNL     1      26.511   2.206  52.500  1.00  0.00     0.079 A 
HETATM    8  C14 UNL     1      27.827   2.098  53.110  1.00  0.00     0.052 A 
HETATM    9  C15 UNL     1      27.943   1.218  54.111  1.00  0.00     0.034 A 
HETATM   10  C16 UNL     1      27.262   0.226  54.935  1.00  0.00     0.029 A 
HETATM   11  C17 UNL     1      25.995  -0.237  54.966  1.00  0.00     0.168 A 
HETATM   12  O3  UNL     1      25.208   0.368  54.013  1.00  0.00    -0.241 OA
ENDROOT
BRANCH   2  13
HETATM   13  C2  UNL     1      21.635  -1.023  54.194  1.00  0.00     0.093 C 
HETATM   14  C3  UNL     1      20.406  -0.533  54.115  1.00  0.00     0.094 C 
BRANCH  14  15
HETATM   15  N1  UNL     1      19.165  -1.049  53.636  1.00  0.00    -0.366 N 
HETATM   16  H3  UNL     1      18.644  -1.799  54.144  1.00  0.00     0.165 HD
BRANCH  15  17
HETATM   17  C4  UNL     1      18.585  -0.557  52.431  1.00  0.00     0.033 A 
HETATM   18  C5  UNL     1      17.279  -0.819  52.048  1.00  0.00     0.029 A 
HETATM   19  C6  UNL     1      16.716  -0.353  50.899  1.00  0.00     0.004 A 
HETATM   20  C7  UNL     1      17.494   0.432  50.059  1.00  0.00     0.024 A 
HETATM   21  C8  UNL     1      18.805   0.716  50.409  1.00  0.00     0.036 A 
HETATM   22 CL1  UNL     1      19.715   1.709  49.299  1.00  0.00    -0.084 Cl
HETATM   23  C9  UNL     1      19.365   0.228  51.592  1.00  0.00     0.053 A 
ENDBRANCH  15  17
ENDBRANCH  14  15
ENDBRANCH   2  13
BRANCH   8  24
HETATM   24  O2  UNL     1      29.047   2.769  52.836  1.00  0.00    -0.364 OA
HETATM   25  H12 UNL     1      29.851   2.321  53.254  1.00  0.00     0.217 HD
ENDBRANCH   8  24
TORSDOF 4
ENDMDL
MODEL 3
REMARK VINA RESULT:      -8.3      4.000      9.055
REMARK  4 active torsions:
REMARK  status: ('A' for Active; 'I' for Inactive)
REMARK    1  A    between atoms: C1_2  and  C2_3 
REMARK       I    between atoms: C1_2  and  N2_13 
REMARK    2  A    between atoms: C3_4  and  N1_5 
REMARK    3  A    between atoms: N1_5  and  C4_6 
REMARK    4  A    between atoms: C14_18  and  O2_19 
ROOT
HETATM    1  O1  UNL     1      23.086  -1.548  55.489  1.00  0.00    -0.266 OA
HETATM    2  C1  UNL     1      22.552  -0.810  54.638  1.00  0.00     0.272 C 
HETATM    3  N2  UNL     1      23.481   0.031  53.977  1.00  0.00    -0.192 N 
HETATM    4  C10 UNL     1      23.350   1.024  52.951  1.00  0.00     0.127 A 
HETATM    5  C11 UNL     1      23.882   1.914  52.160  1.00  0.00     0.017 A 
HETATM    6  C12 UNL     1      25.215   2.446  51.893  1.00  0.00    -0.013 A 
HETATM    7  C13 UNL     1      26.255   1.989  52.562  1.00  0.00     0.079 A 
HETATM    8  C14 UNL     1      27.575   1.712  53.107  1.00  0.00     0.052 A 
HETATM    9  C15 UNL     1      27.635   0.777  54.062  1.00  0.00     0.034 A 
HETATM   10  C16 UNL     1      26.884  -0.176  54.871  1.00  0.00     0.029 A 
HETATM   11  C17 UNL     1      25.577  -0.504  54.937  1.00  0.00     0.168 A 
HETATM   12  O3  UNL     1      24.822   0.227  54.049  1.00  0.00    -0.241 OA
ENDROOT
BRANCH   2  13
HETATM   13  C2  UNL     1      21.131  -0.785  54.327  1.00  0.00     0.093 C 
HETATM   14  C3  UNL     1      20.063  -1.327  53.758  1.00  0.00     0.094 C 
BRANCH  14  15
HETATM   15  N1  UNL     1      18.690  -0.949  53.670  1.00  0.00    -0.366 N 
HETATM   16  H3  UNL     1      18.376   0.036  53.820  1.00  0.00     0.165 HD
BRANCH  15  17
HETATM   17  C4  UNL     1      17.684  -1.913  53.374  1.00  0.00     0.033 A 
HETATM   18  C5  UNL     1      17.733  -3.228  53.809  1.00  0.00     0.029 A 
HETATM   19  C6  UNL     1      16.775  -4.156  53.532  1.00  0.00     0.004 A 
HETATM   20  C7  UNL     1      15.684  -3.765  52.769  1.00  0.00     0.024 A 
HETATM   21  C8  UNL     1      15.600  -2.458  52.316  1.00  0.00     0.036 A 
HETATM   22 CL1  UNL     1      14.197  -2.047  51.363  1.00  0.00    -0.084 Cl
HETATM   23  C9  UNL     1      16.593  -1.520  52.610  1.00  0.00     0.053 A 
ENDBRANCH  15  17
ENDBRANCH  14  15
ENDBRANCH   2  13
BRANCH   8  24
HETATM   24  O2  UNL     1      28.849   2.263  52.809  1.00  0.00    -0.364 OA
HETATM   25  H12 UNL     1      29.323   2.631  53.621  1.00  0.00     0.217 HD
ENDBRANCH   8  24
TORSDOF 4
ENDMDL
MODEL 4
REMARK VINA RESULT:      -8.2      2.285      3.650
REMARK  4 active torsions:
REMARK  status: ('A' for Active; 'I' for Inactive)
REMARK    1  A    between atoms: C1_2  and  C2_3 
REMARK       I    between atoms: C1_2  and  N2_13 
REMARK    2  A    between atoms: C3_4  and  N1_5 
REMARK    3  A    between atoms: N1_5  and  C4_6 
REMARK    4  A    between atoms: C14_18  and  O2_19 
ROOT
HETATM    1  O1  UNL     1      20.941  -1.553  54.915  1.00  0.00    -0.266 OA
HETATM    2  C1  UNL     1      21.786  -0.974  54.205  1.00  0.00     0.272 C 
HETATM    3  N2  UNL     1      21.230  -0.427  53.023  1.00  0.00    -0.192 N 
HETATM    4  C10 UNL     1      21.788   0.308  51.924  1.00  0.00     0.127 A 
HETATM    5  C11 UNL     1      21.646   0.921  50.782  1.00  0.00     0.017 A 
HETATM    6  C12 UNL     1      20.558   1.211  49.852  1.00  0.00    -0.013 A 
HETATM    7  C13 UNL     1      19.334   0.800  50.119  1.00  0.00     0.079 A 
HETATM    8  C14 UNL     1      17.911   0.500  50.113  1.00  0.00     0.052 A 
HETATM    9  C15 UNL     1      17.449  -0.189  51.163  1.00  0.00     0.034 A 
HETATM   10  C16 UNL     1      17.780  -0.830  52.430  1.00  0.00     0.029 A 
HETATM   11  C17 UNL     1      18.930  -0.973  53.120  1.00  0.00     0.168 A 
HETATM   12  O3  UNL     1      19.991  -0.382  52.473  1.00  0.00    -0.241 OA
ENDROOT
BRANCH   2  13
HETATM   13  C2  UNL     1      23.201  -0.851  54.523  1.00  0.00     0.093 C 
HETATM   14  C3  UNL     1      24.475  -0.903  54.161  1.00  0.00     0.094 C 
BRANCH  14  15
HETATM   15  N1  UNL     1      25.707  -0.694  54.849  1.00  0.00    -0.366 N 
HETATM   16  H3  UNL     1      25.922  -1.164  55.757  1.00  0.00     0.165 HD
BRANCH  15  17
HETATM   17  C4  UNL     1      26.701   0.177  54.318  1.00  0.00     0.033 A 
HETATM   18  C5  UNL     1      27.983   0.282  54.836  1.00  0.00     0.029 A 
HETATM   19  C6  UNL     1      28.940   1.111  54.335  1.00  0.00     0.004 A 
HETATM   20  C7  UNL     1      28.616   1.900  53.240  1.00  0.00     0.024 A 
HETATM   21  C8  UNL     1      27.345   1.823  52.694  1.00  0.00     0.036 A 
HETATM   22 CL1  UNL     1      27.019   2.847  51.319  1.00  0.00    -0.084 Cl
HETATM   23  C9  UNL     1      26.376   0.966  53.222  1.00  0.00     0.053 A 
ENDBRANCH  15  17
ENDBRANCH  14  15
ENDBRANCH   2  13
BRANCH   8  24
HETATM   24  O2  UNL     1      16.890   0.808  49.176  1.00  0.00    -0.364 OA
HETATM   25  H12 UNL     1      17.109   0.509  48.236  1.00  0.00     0.217 HD
ENDBRANCH   8  24
TORSDOF 4
ENDMDL
MODEL 5
REMARK VINA RESULT:      -8.2      4.336      5.775
REMARK  4 active torsions:
REMARK  status: ('A' for Active; 'I' for Inactive)
REMARK    1  A    between atoms: C1_2  and  C2_3 
REMARK       I    between atoms: C1_2  and  N2_13 
REMARK    2  A    between atoms: C3_4  and  N1_5 
REMARK    3  A    between atoms: N1_5  and  C4_6 
REMARK    4  A    between atoms: C14_18  and  O2_19 
ROOT
HETATM    1  O1  UNL     1      27.542   2.150  52.184  1.00  0.00    -0.266 OA
HETATM    2  C1  UNL     1      26.527   2.471  51.536  1.00  0.00     0.272 C 
HETATM    3  N2  UNL     1      25.359   1.801  51.977  1.00  0.00    -0.192 N 
HETATM    4  C10 UNL     1      23.988   1.837  51.555  1.00  0.00     0.127 A 
HETATM    5  C11 UNL     1      22.754   1.433  51.675  1.00  0.00     0.017 A 
HETATM    6  C12 UNL     1      22.010   0.507  52.524  1.00  0.00    -0.013 A 
HETATM    7  C13 UNL     1      22.634  -0.169  53.469  1.00  0.00     0.079 A 
HETATM    8  C14 UNL     1      23.007  -1.044  54.569  1.00  0.00     0.052 A 
HETATM    9  C15 UNL     1      24.299  -1.035  54.918  1.00  0.00     0.034 A 
HETATM   10  C16 UNL     1      25.620  -0.479  54.651  1.00  0.00     0.029 A 
HETATM   11  C17 UNL     1      26.081   0.418  53.755  1.00  0.00     0.168 A 
HETATM   12  O3  UNL     1      25.077   0.888  52.941  1.00  0.00    -0.241 OA
ENDROOT
BRANCH   2  13
HETATM   13  C2  UNL     1      26.503   3.426  50.439  1.00  0.00     0.093 C 
HETATM   14  C3  UNL     1      25.983   4.491  49.846  1.00  0.00     0.094 C 
BRANCH  14  15
HETATM   15  N1  UNL     1      26.277   5.195  48.641  1.00  0.00    -0.366 N 
HETATM   16  H3  UNL     1      25.623   5.194  47.826  1.00  0.00     0.165 HD
BRANCH  15  17
HETATM   17  C4  UNL     1      27.490   5.928  48.500  1.00  0.00     0.033 A 
HETATM   18  C5  UNL     1      27.562   7.310  48.583  1.00  0.00     0.029 A 
HETATM   19  C6  UNL     1      28.717   8.020  48.451  1.00  0.00     0.004 A 
HETATM   20  C7  UNL     1      29.893   7.321  48.218  1.00  0.00     0.024 A 
HETATM   21  C8  UNL     1      29.860   5.938  48.129  1.00  0.00     0.036 A 
HETATM   22 CL1  UNL     1      31.383   5.136  47.836  1.00  0.00    -0.084 Cl
HETATM   23  C9  UNL     1      28.666   5.227  48.268  1.00  0.00     0.053 A 
ENDBRANCH  15  17
ENDBRANCH  14  15
ENDBRANCH   2  13
BRANCH   8  24
HETATM   24  O2  UNL     1      22.237  -1.931  55.367  1.00  0.00    -0.364 OA
HETATM   25  H12 UNL     1      22.758  -2.328  56.136  1.00  0.00     0.217 HD
ENDBRANCH   8  24
TORSDOF 4
ENDMDL
MODEL 6
REMARK VINA RESULT:      -8.1      4.291      5.297
REMARK  4 active torsions:
REMARK  status: ('A' for Active; 'I' for Inactive)
REMARK    1  A    between atoms: C1_2  and  C2_3 
REMARK       I    between atoms: C1_2  and  N2_13 
REMARK    2  A    between atoms: C3_4  and  N1_5 
REMARK    3  A    between atoms: N1_5  and  C4_6 
REMARK    4  A    between atoms: C14_18  and  O2_19 
ROOT
HETATM    1  O1  UNL     1      22.740   2.994  49.651  1.00  0.00    -0.266 OA
HETATM    2  C1  UNL     1      23.834   2.732  50.190  1.00  0.00     0.272 C 
HETATM    3  N2  UNL     1      23.715   1.797  51.248  1.00  0.00    -0.192 N 
HETATM    4  C10 UNL     1      24.665   1.201  52.143  1.00  0.00     0.127 A 
HETATM    5  C11 UNL     1      24.941   0.397  53.132  1.00  0.00     0.017 A 
HETATM    6  C12 UNL     1      24.206  -0.502  54.016  1.00  0.00    -0.013 A 
HETATM    7  C13 UNL     1      22.900  -0.633  53.887  1.00  0.00     0.079 A 
HETATM    8  C14 UNL     1      21.497  -0.997  54.008  1.00  0.00     0.052 A 
HETATM    9  C15 UNL     1      20.659  -0.409  53.147  1.00  0.00     0.034 A 
HETATM   10  C16 UNL     1      20.524   0.525  52.035  1.00  0.00     0.029 A 
HETATM   11  C17 UNL     1      21.409   1.280  51.351  1.00  0.00     0.168 A 
HETATM   12  O3  UNL     1      22.692   1.113  51.819  1.00  0.00    -0.241 OA
ENDROOT
BRANCH   2  13
HETATM   13  C2  UNL     1      25.114   3.303  49.803  1.00  0.00     0.093 C 
HETATM   14  C3  UNL     1      25.969   4.316  49.785  1.00  0.00     0.094 C 
BRANCH  14  15
HETATM   15  N1  UNL     1      27.274   4.500  49.238  1.00  0.00    -0.366 N 
HETATM   16  H3  UNL     1      28.028   3.785  49.352  1.00  0.00     0.165 HD
BRANCH  15  17
HETATM   17  C4  UNL     1      27.602   5.679  48.511  1.00  0.00     0.033 A 
HETATM   18  C5  UNL     1      26.695   6.693  48.247  1.00  0.00     0.029 A 
HETATM   19  C6  UNL     1      27.001   7.825  47.553  1.00  0.00     0.004 A 
HETATM   20  C7  UNL     1      28.297   7.975  47.082  1.00  0.00     0.024 A 
HETATM   21  C8  UNL     1      29.233   6.982  47.327  1.00  0.00     0.036 A 
HETATM   22 CL1  UNL     1      30.840   7.249  46.701  1.00  0.00    -0.084 Cl
HETATM   23  C9  UNL     1      28.900   5.828  48.041  1.00  0.00     0.053 A 
ENDBRANCH  15  17
ENDBRANCH  14  15
ENDBRANCH   2  13
BRANCH   8  24
HETATM   24  O2  UNL     1      20.830  -1.884  54.893  1.00  0.00    -0.364 OA
HETATM   25  H12 UNL     1      20.670  -1.487  55.808  1.00  0.00     0.217 HD
ENDBRANCH   8  24
TORSDOF 4
ENDMDL
MODEL 7
REMARK VINA RESULT:      -8.1      4.478      5.717
REMARK  4 active torsions:
REMARK  status: ('A' for Active; 'I' for Inactive)
REMARK    1  A    between atoms: C1_2  and  C2_3 
REMARK       I    between atoms: C1_2  and  N2_13 
REMARK    2  A    between atoms: C3_4  and  N1_5 
REMARK    3  A    between atoms: N1_5  and  C4_6 
REMARK    4  A    between atoms: C14_18  and  O2_19 
ROOT
HETATM    1  O1  UNL     1      27.045   1.343  52.504  1.00  0.00    -0.266 OA
HETATM    2  C1  UNL     1      26.205   1.754  51.680  1.00  0.00     0.272 C 
HETATM    3  N2  UNL     1      24.896   1.279  51.946  1.00  0.00    -0.192 N 
HETATM    4  C10 UNL     1      23.631   1.471  51.297  1.00  0.00     0.127 A 
HETATM    5  C11 UNL     1      22.349   1.246  51.224  1.00  0.00     0.017 A 
HETATM    6  C12 UNL     1      21.352   0.489  51.975  1.00  0.00    -0.013 A 
HETATM    7  C13 UNL     1      21.711  -0.199  53.041  1.00  0.00     0.079 A 
HETATM    8  C14 UNL     1      21.771  -1.039  54.227  1.00  0.00     0.052 A 
HETATM    9  C15 UNL     1      22.978  -1.181  54.788  1.00  0.00     0.034 A 
HETATM   10  C16 UNL     1      24.391  -0.828  54.725  1.00  0.00     0.029 A 
HETATM   11  C17 UNL     1      25.115  -0.064  53.881  1.00  0.00     0.168 A 
HETATM   12  O3  UNL     1      24.334   0.481  52.888  1.00  0.00    -0.241 OA
ENDROOT
BRANCH   2  13
HETATM   13  C2  UNL     1      26.497   2.627  50.554  1.00  0.00     0.093 C 
HETATM   14  C3  UNL     1      26.559   3.837  50.016  1.00  0.00     0.094 C 
BRANCH  14  15
HETATM   15  N1  UNL     1      26.940   4.330  48.733  1.00  0.00    -0.366 N 
HETATM   16  H3  UNL     1      26.694   3.826  47.850  1.00  0.00     0.165 HD
BRANCH  15  17
HETATM   17  C4  UNL     1      27.681   5.539  48.604  1.00  0.00     0.033 A 
HETATM   18  C5  UNL     1      29.024   5.582  48.264  1.00  0.00     0.029 A 
HETATM   19  C6  UNL     1      29.740   6.734  48.138  1.00  0.00     0.004 A 
HETATM   20  C7  UNL     1      29.089   7.938  48.364  1.00  0.00     0.024 A 
HETATM   21  C8  UNL     1      27.746   7.936  48.706  1.00  0.00     0.036 A 
HETATM   22 CL1  UNL     1      27.003   9.493  48.972  1.00  0.00    -0.084 Cl
HETATM   23  C9  UNL     1      27.028   6.744  48.830  1.00  0.00     0.053 A 
ENDBRANCH  15  17
ENDBRANCH  14  15
ENDBRANCH   2  13
BRANCH   8  24
HETATM   24  O2  UNL     1      20.763  -1.757  54.921  1.00  0.00    -0.364 OA
HETATM   25  H12 UNL     1      21.069  -2.105  55.819  1.00  0.00     0.217 HD
ENDBRANCH   8  24
TORSDOF 4
ENDMDL
MODEL 8
REMARK VINA RESULT:      -7.9      1.679      2.817
REMARK  4 active torsions:
REMARK  status: ('A' for Active; 'I' for Inactive)
REMARK    1  A    between atoms: C1_2  and  C2_3 
REMARK       I    between atoms: C1_2  and  N2_13 
REMARK    2  A    between atoms: C3_4  and  N1_5 
REMARK    3  A    between atoms: N1_5  and  C4_6 
REMARK    4  A    between atoms: C14_18  and  O2_19 
ROOT
HETATM    1  O1  UNL     1      22.183  -0.938  54.148  1.00  0.00    -0.266 OA
HETATM    2  C1  UNL     1      22.401  -0.237  53.140  1.00  0.00     0.272 C 
HETATM    3  N2  UNL     1      21.236  -0.010  52.366  1.00  0.00    -0.192 N 
HETATM    4  C10 UNL     1      20.989   0.715  51.153  1.00  0.00     0.127 A 
HETATM    5  C11 UNL     1      20.171   1.124  50.224  1.00  0.00     0.017 A 
HETATM    6  C12 UNL     1      18.750   0.989  49.915  1.00  0.00    -0.013 A 
HETATM    7  C13 UNL     1      17.964   0.291  50.711  1.00  0.00     0.079 A 
HETATM    8  C14 UNL     1      16.855  -0.389  51.361  1.00  0.00     0.052 A 
HETATM    9  C15 UNL     1      17.147  -1.048  52.489  1.00  0.00     0.034 A 
HETATM   10  C16 UNL     1      18.188  -1.417  53.440  1.00  0.00     0.029 A 
HETATM   11  C17 UNL     1      19.510  -1.153  53.511  1.00  0.00     0.168 A 
HETATM   12  O3  UNL     1      19.932  -0.374  52.459  1.00  0.00    -0.241 OA
ENDROOT
BRANCH   2  13
HETATM   13  C2  UNL     1      23.696   0.309  52.766  1.00  0.00     0.093 C 
HETATM   14  C3  UNL     1      24.643   1.228  52.893  1.00  0.00     0.094 C 
BRANCH  14  15
HETATM   15  N1  UNL     1      25.911   1.434  52.273  1.00  0.00    -0.366 N 
HETATM   16  H3  UNL     1      26.010   1.958  51.374  1.00  0.00     0.165 HD
BRANCH  15  17
HETATM   17  C4  UNL     1      27.103   0.922  52.860  1.00  0.00     0.033 A 
HETATM   18  C5  UNL     1      28.002   1.703  53.571  1.00  0.00     0.029 A 
HETATM   19  C6  UNL     1      29.144   1.222  54.137  1.00  0.00     0.004 A 
HETATM   20  C7  UNL     1      29.428  -0.129  53.995  1.00  0.00     0.024 A 
HETATM   21  C8  UNL     1      28.552  -0.941  53.292  1.00  0.00     0.036 A 
HETATM   22 CL1  UNL     1      28.982  -2.628  53.160  1.00  0.00    -0.084 Cl
HETATM   23  C9  UNL     1      27.385  -0.430  52.718  1.00  0.00     0.053 A 
ENDBRANCH  15  17
ENDBRANCH  14  15
ENDBRANCH   2  13
BRANCH   8  24
HETATM   24  O2  UNL     1      15.482  -0.488  51.016  1.00  0.00    -0.364 OA
HETATM   25  H12 UNL     1      14.972  -1.139  51.597  1.00  0.00     0.217 HD
ENDBRANCH   8  24
TORSDOF 4
ENDMDL
MODEL 9
REMARK VINA RESULT:      -7.8      3.666      4.349
REMARK  4 active torsions:
REMARK  status: ('A' for Active; 'I' for Inactive)
REMARK    1  A    between atoms: C1_2  and  C2_3 
REMARK       I    between atoms: C1_2  and  N2_13 
REMARK    2  A    between atoms: C3_4  and  N1_5 
REMARK    3  A    between atoms: N1_5  and  C4_6 
REMARK    4  A    between atoms: C14_18  and  O2_19 
ROOT
HETATM    1  O1  UNL     1      21.285   2.306  49.085  1.00  0.00    -0.266 OA
HETATM    2  C1  UNL     1      22.184   2.020  49.900  1.00  0.00     0.272 C 
HETATM    3  N2  UNL     1      21.721   1.217  50.972  1.00  0.00    -0.192 N 
HETATM    4  C10 UNL     1      22.363   0.651  52.123  1.00  0.00     0.127 A 
HETATM    5  C11 UNL     1      22.310  -0.059  53.216  1.00  0.00     0.017 A 
HETATM    6  C12 UNL     1      21.296  -0.797  53.964  1.00  0.00    -0.013 A 
HETATM    7  C13 UNL     1      20.053  -0.839  53.526  1.00  0.00     0.079 A 
HETATM    8  C14 UNL     1      18.633  -1.078  53.325  1.00  0.00     0.052 A 
HETATM    9  C15 UNL     1      18.090  -0.525  52.234  1.00  0.00     0.034 A 
HETATM   10  C16 UNL     1      18.322   0.290  51.048  1.00  0.00     0.029 A 
HETATM   11  C17 UNL     1      19.417   0.895  50.542  1.00  0.00     0.168 A 
HETATM   12  O3  UNL     1      20.526   0.681  51.328  1.00  0.00    -0.241 OA
ENDROOT
BRANCH   2  13
HETATM   13  C2  UNL     1      23.572   2.444  49.796  1.00  0.00     0.093 C 
HETATM   14  C3  UNL     1      24.611   3.120  50.265  1.00  0.00     0.094 C 
BRANCH  14  15
HETATM   15  N1  UNL     1      25.953   3.306  49.818  1.00  0.00    -0.366 N 
HETATM   16  H3  UNL     1      26.636   2.516  49.772  1.00  0.00     0.165 HD
BRANCH  15  17
HETATM   17  C4  UNL     1      26.419   4.590  49.417  1.00  0.00     0.033 A 
HETATM   18  C5  UNL     1      27.579   4.789  48.684  1.00  0.00     0.029 A 
HETATM   19  C6  UNL     1      28.032   6.014  48.296  1.00  0.00     0.004 A 
HETATM   20  C7  UNL     1      27.289   7.131  48.652  1.00  0.00     0.024 A 
HETATM   21  C8  UNL     1      26.123   6.971  49.384  1.00  0.00     0.036 A 
HETATM   22 CL1  UNL     1      25.248   8.426  49.791  1.00  0.00    -0.084 Cl
HETATM   23  C9  UNL     1      25.675   5.707  49.774  1.00  0.00     0.053 A 
ENDBRANCH  15  17
ENDBRANCH  14  15
ENDBRANCH   2  13
BRANCH   8  24
HETATM   24  O2  UNL     1      17.686  -1.809  54.089  1.00  0.00    -0.364 OA
HETATM   25  H12 UNL     1      17.627  -2.782  53.826  1.00  0.00     0.217 HD
ENDBRANCH   8  24
TORSDOF 4
ENDMDL
