MODEL 1
REMARK VINA RESULT:      -8.3      0.000      0.000
REMARK  11 active torsions:
REMARK  status: ('A' for Active; 'I' for Inactive)
REMARK    1  A    between atoms: O1_2  and  C2_3 
REMARK    2  A    between atoms: C2_3  and  C3_4 
REMARK    3  A    between atoms: C3_4  and  O2_22 
REMARK    4  A    between atoms: C4_5  and  C5_6 
REMARK    5  A    between atoms: C9_12  and  N3_13 
REMARK    6  A    between atoms: N3_13  and  C10_14 
REMARK    7  A    between atoms: O2_22  and  C16_23 
REMARK    8  A    between atoms: C16_23  and  C17_24 
REMARK    9  A    between atoms: C17_24  and  O3_25 
REMARK   10  A    between atoms: C17_24  and  C18_26 
REMARK   11  A    between atoms: C18_26  and  N4_27 
ROOT
HETATM    1  C5  UNL     1      22.573  -0.258  53.237  1.00  0.00     0.037 A 
HETATM    2  C6  UNL     1      21.663  -0.896  54.055  1.00  0.00     0.046 A 
HETATM    3  C7  UNL     1      20.220  -0.977  53.727  1.00  0.00     0.071 C 
HETATM    4  N1  UNL     1      22.078  -1.499  55.210  1.00  0.00    -0.246 NA
HETATM    5  C8  UNL     1      23.381  -1.453  55.521  1.00  0.00     0.235 A 
HETATM    6  N2  UNL     1      24.296  -0.837  54.741  1.00  0.00    -0.224 NA
HETATM    7  C9  UNL     1      23.917  -0.234  53.598  1.00  0.00     0.141 A 
ENDROOT
BRANCH   1   8
HETATM    8  C4  UNL     1      22.170   0.408  52.026  1.00  0.00     0.051 C 
HETATM    9  C3  UNL     1      21.844   1.662  51.721  1.00  0.00     0.071 C 
BRANCH   9  10
HETATM   10  C2  UNL     1      21.448   2.096  50.335  1.00  0.00     0.231 C 
BRANCH  10  11
HETATM   11  O1  UNL     1      22.139   1.442  49.343  1.00  0.00    -0.390 OA
HETATM   12  C1  UNL     1      21.897   2.177  48.160  1.00  0.00     0.201 C 
ENDBRANCH  10  11
ENDBRANCH   9  10
BRANCH   9  13
HETATM   13  O2  UNL     1      21.751   2.867  52.410  1.00  0.00    -0.351 OA
BRANCH  13  14
HETATM   14  C16 UNL     1      21.835   4.116  51.775  1.00  0.00     0.208 C 
BRANCH  14  15
HETATM   15  C17 UNL     1      23.246   4.625  51.582  1.00  0.00     0.170 C 
BRANCH  15  16
HETATM   16  O3  UNL     1      23.671   5.461  52.615  1.00  0.00    -0.392 OA
HETATM   17  H18 UNL     1      24.346   6.093  52.294  1.00  0.00     0.210 HD
ENDBRANCH  15  16
BRANCH  15  18
HETATM   18  C18 UNL     1      23.477   5.254  50.237  1.00  0.00     0.306 C 
BRANCH  18  19
HETATM   19  N4  UNL     1      24.683   4.765  49.660  1.00  0.00     0.095 N 
HETATM   20  C19 UNL     1      25.818   5.615  49.706  1.00  0.00     0.298 C 
HETATM   21  C20 UNL     1      26.933   4.992  48.878  1.00  0.00     0.198 C 
HETATM   22  O4  UNL     1      27.237   3.702  49.226  1.00  0.00    -0.388 OA
HETATM   23  C21 UNL     1      26.484   3.214  50.280  1.00  0.00     0.198 C 
HETATM   24  C22 UNL     1      25.016   3.422  50.100  1.00  0.00     0.298 C 
ENDBRANCH  18  19
ENDBRANCH  15  18
ENDBRANCH  14  15
ENDBRANCH  13  14
ENDBRANCH   9  13
ENDBRANCH   1   8
BRANCH   7  25
HETATM   25  N3  UNL     1      24.940   0.395  52.840  1.00  0.00    -0.340 N 
HETATM   26  H11 UNL     1      24.636   1.067  52.103  1.00  0.00     0.167 HD
BRANCH  25  27
HETATM   27  C10 UNL     1      26.315   0.123  53.072  1.00  0.00     0.035 A 
HETATM   28  C11 UNL     1      26.839  -1.116  52.773  1.00  0.00     0.032 A 
HETATM   29  C12 UNL     1      28.174  -1.366  53.007  1.00  0.00     0.046 A 
HETATM   30  C13 UNL     1      28.980  -0.356  53.547  1.00  0.00     0.138 A 
HETATM   31  F1  UNL     1      30.308  -0.624  53.774  1.00  0.00    -0.204 F 
HETATM   32  C14 UNL     1      28.460   0.864  53.841  1.00  0.00     0.074 A 
HETATM   33 CL1  UNL     1      29.518   2.103  54.526  1.00  0.00    -0.081 Cl
HETATM   34  C15 UNL     1      27.113   1.120  53.606  1.00  0.00     0.056 A 
ENDBRANCH  25  27
ENDBRANCH   7  25
TORSDOF 11
ENDMDL
MODEL 2
REMARK VINA RESULT:      -8.1      0.913      1.508
REMARK  11 active torsions:
REMARK  status: ('A' for Active; 'I' for Inactive)
REMARK    1  A    between atoms: O1_2  and  C2_3 
REMARK    2  A    between atoms: C2_3  and  C3_4 
REMARK    3  A    between atoms: C3_4  and  O2_22 
REMARK    4  A    between atoms: C4_5  and  C5_6 
REMARK    5  A    between atoms: C9_12  and  N3_13 
REMARK    6  A    between atoms: N3_13  and  C10_14 
REMARK    7  A    between atoms: O2_22  and  C16_23 
REMARK    8  A    between atoms: C16_23  and  C17_24 
REMARK    9  A    between atoms: C17_24  and  O3_25 
REMARK   10  A    between atoms: C17_24  and  C18_26 
REMARK   11  A    between atoms: C18_26  and  N4_27 
ROOT
HETATM    1  C5  UNL     1      22.416  -0.353  53.154  1.00  0.00     0.037 A 
HETATM    2  C6  UNL     1      21.560  -0.937  54.065  1.00  0.00     0.046 A 
HETATM    3  C7  UNL     1      20.096  -1.008  53.846  1.00  0.00     0.071 C 
HETATM    4  N1  UNL     1      22.050  -1.494  55.213  1.00  0.00    -0.246 NA
HETATM    5  C8  UNL     1      23.373  -1.456  55.427  1.00  0.00     0.235 A 
HETATM    6  N2  UNL     1      24.236  -0.892  54.555  1.00  0.00    -0.224 NA
HETATM    7  C9  UNL     1      23.783  -0.335  53.415  1.00  0.00     0.141 A 
ENDROOT
BRANCH   1   8
HETATM    8  C4  UNL     1      21.935   0.264  51.946  1.00  0.00     0.051 C 
HETATM    9  C3  UNL     1      21.495   1.483  51.637  1.00  0.00     0.071 C 
BRANCH   9  10
HETATM   10  C2  UNL     1      21.038   1.867  50.255  1.00  0.00     0.231 C 
BRANCH  10  11
HETATM   11  O1  UNL     1      21.426   0.973  49.286  1.00  0.00    -0.390 OA
HETATM   12  C1  UNL     1      21.893   1.757  48.207  1.00  0.00     0.201 C 
ENDBRANCH  10  11
ENDBRANCH   9  10
BRANCH   9  13
HETATM   13  O2  UNL     1      21.311   2.681  52.317  1.00  0.00    -0.351 OA
BRANCH  13  14
HETATM   14  C16 UNL     1      21.502   3.935  51.717  1.00  0.00     0.208 C 
BRANCH  14  15
HETATM   15  C17 UNL     1      22.864   4.545  51.964  1.00  0.00     0.170 C 
BRANCH  15  16
HETATM   16  O3  UNL     1      22.883   5.417  53.053  1.00  0.00    -0.392 OA
HETATM   17  H18 UNL     1      22.259   5.120  53.746  1.00  0.00     0.210 HD
ENDBRANCH  15  16
BRANCH  15  18
HETATM   18  C18 UNL     1      23.466   5.180  50.742  1.00  0.00     0.306 C 
BRANCH  18  19
HETATM   19  N4  UNL     1      24.794   4.710  50.540  1.00  0.00     0.095 N 
HETATM   20  C19 UNL     1      24.948   3.441  49.923  1.00  0.00     0.298 C 
HETATM   21  C20 UNL     1      26.417   3.045  49.973  1.00  0.00     0.198 C 
HETATM   22  O4  UNL     1      27.269   3.982  49.451  1.00  0.00    -0.388 OA
HETATM   23  C21 UNL     1      26.631   5.107  48.958  1.00  0.00     0.198 C 
HETATM   24  C22 UNL     1      25.657   5.701  49.922  1.00  0.00     0.298 C 
ENDBRANCH  18  19
ENDBRANCH  15  18
ENDBRANCH  14  15
ENDBRANCH  13  14
ENDBRANCH   9  13
ENDBRANCH   1   8
BRANCH   7  25
HETATM   25  N3  UNL     1      24.756   0.241  52.556  1.00  0.00    -0.340 N 
HETATM   26  H11 UNL     1      24.460   0.446  51.577  1.00  0.00     0.167 HD
BRANCH  25  27
HETATM   27  C10 UNL     1      26.073   0.527  53.006  1.00  0.00     0.035 A 
HETATM   28  C11 UNL     1      26.404   1.796  53.430  1.00  0.00     0.032 A 
HETATM   29  C12 UNL     1      27.687   2.057  53.860  1.00  0.00     0.046 A 
HETATM   30  C13 UNL     1      28.638   1.028  53.861  1.00  0.00     0.138 A 
HETATM   31  F1  UNL     1      29.911   1.310  54.293  1.00  0.00    -0.204 F 
HETATM   32  C14 UNL     1      28.308  -0.221  53.442  1.00  0.00     0.074 A 
HETATM   33 CL1  UNL     1      29.546  -1.482  53.457  1.00  0.00    -0.081 Cl
HETATM   34  C15 UNL     1      27.014  -0.489  53.007  1.00  0.00     0.056 A 
ENDBRANCH  25  27
ENDBRANCH   7  25
TORSDOF 11
ENDMDL
MODEL 3
REMARK VINA RESULT:      -7.4      3.362      5.554
REMARK  11 active torsions:
REMARK  status: ('A' for Active; 'I' for Inactive)
REMARK    1  A    between atoms: O1_2  and  C2_3 
REMARK    2  A    between atoms: C2_3  and  C3_4 
REMARK    3  A    between atoms: C3_4  and  O2_22 
REMARK    4  A    between atoms: C4_5  and  C5_6 
REMARK    5  A    between atoms: C9_12  and  N3_13 
REMARK    6  A    between atoms: N3_13  and  C10_14 
REMARK    7  A    between atoms: O2_22  and  C16_23 
REMARK    8  A    between atoms: C16_23  and  C17_24 
REMARK    9  A    between atoms: C17_24  and  O3_25 
REMARK   10  A    between atoms: C17_24  and  C18_26 
REMARK   11  A    between atoms: C18_26  and  N4_27 
ROOT
HETATM    1  C5  UNL     1      26.045   1.028  53.111  1.00  0.00     0.037 A 
HETATM    2  C6  UNL     1      26.771   0.815  54.265  1.00  0.00     0.046 A 
HETATM    3  C7  UNL     1      26.297  -0.081  55.346  1.00  0.00     0.071 C 
HETATM    4  N1  UNL     1      27.982   1.425  54.440  1.00  0.00    -0.246 NA
HETATM    5  C8  UNL     1      28.439   2.228  53.469  1.00  0.00     0.235 A 
HETATM    6  N2  UNL     1      27.752   2.456  52.329  1.00  0.00    -0.224 NA
HETATM    7  C9  UNL     1      26.556   1.870  52.127  1.00  0.00     0.141 A 
ENDROOT
BRANCH   1   8
HETATM    8  C4  UNL     1      24.756   0.423  52.900  1.00  0.00     0.051 C 
HETATM    9  C3  UNL     1      23.541   0.896  52.629  1.00  0.00     0.071 C 
BRANCH   9  10
HETATM   10  C2  UNL     1      22.334   0.014  52.457  1.00  0.00     0.231 C 
BRANCH  10  11
HETATM   11  O1  UNL     1      22.296  -1.035  53.345  1.00  0.00    -0.390 OA
HETATM   12  C1  UNL     1      21.509  -0.588  54.432  1.00  0.00     0.201 C 
ENDBRANCH  10  11
ENDBRANCH   9  10
BRANCH   9  13
HETATM   13  O2  UNL     1      22.979   2.152  52.426  1.00  0.00    -0.351 OA
BRANCH  13  14
HETATM   14  C16 UNL     1      21.783   2.346  51.720  1.00  0.00     0.208 C 
BRANCH  14  15
HETATM   15  C17 UNL     1      21.036   3.608  52.091  1.00  0.00     0.170 C 
BRANCH  15  16
HETATM   16  O3  UNL     1      19.762   3.359  52.601  1.00  0.00    -0.392 OA
HETATM   17  H18 UNL     1      19.435   4.131  53.107  1.00  0.00     0.210 HD
ENDBRANCH  15  16
BRANCH  15  18
HETATM   18  C18 UNL     1      20.995   4.626  50.986  1.00  0.00     0.306 C 
BRANCH  18  19
HETATM   19  N4  UNL     1      20.953   3.982  49.717  1.00  0.00     0.095 N 
HETATM   20  C19 UNL     1      19.676   3.784  49.129  1.00  0.00     0.298 C 
HETATM   21  C20 UNL     1      19.836   2.922  47.885  1.00  0.00     0.198 C 
HETATM   22  O4  UNL     1      20.752   3.397  46.986  1.00  0.00    -0.388 OA
HETATM   23  C21 UNL     1      21.349   4.586  47.369  1.00  0.00     0.198 C 
HETATM   24  C22 UNL     1      21.887   4.552  48.763  1.00  0.00     0.298 C 
ENDBRANCH  18  19
ENDBRANCH  15  18
ENDBRANCH  14  15
ENDBRANCH  13  14
ENDBRANCH   9  13
ENDBRANCH   1   8
BRANCH   7  25
HETATM   25  N3  UNL     1      25.898   2.168  50.905  1.00  0.00    -0.340 N 
HETATM   26  H11 UNL     1      25.401   1.382  50.433  1.00  0.00     0.167 HD
BRANCH  25  27
HETATM   27  C10 UNL     1      25.914   3.475  50.348  1.00  0.00     0.035 A 
HETATM   28  C11 UNL     1      26.820   3.799  49.361  1.00  0.00     0.032 A 
HETATM   29  C12 UNL     1      26.826   5.073  48.834  1.00  0.00     0.046 A 
HETATM   30  C13 UNL     1      25.909   6.020  49.308  1.00  0.00     0.138 A 
HETATM   31  F1  UNL     1      25.931   7.284  48.770  1.00  0.00    -0.204 F 
HETATM   32  C14 UNL     1      25.018   5.696  50.281  1.00  0.00     0.074 A 
HETATM   33 CL1  UNL     1      23.887   6.930  50.848  1.00  0.00    -0.081 Cl
HETATM   34  C15 UNL     1      25.009   4.412  50.815  1.00  0.00     0.056 A 
ENDBRANCH  25  27
ENDBRANCH   7  25
TORSDOF 11
ENDMDL
MODEL 4
REMARK VINA RESULT:      -7.4      2.376      4.422
REMARK  11 active torsions:
REMARK  status: ('A' for Active; 'I' for Inactive)
REMARK    1  A    between atoms: O1_2  and  C2_3 
REMARK    2  A    between atoms: C2_3  and  C3_4 
REMARK    3  A    between atoms: C3_4  and  O2_22 
REMARK    4  A    between atoms: C4_5  and  C5_6 
REMARK    5  A    between atoms: C9_12  and  N3_13 
REMARK    6  A    between atoms: N3_13  and  C10_14 
REMARK    7  A    between atoms: O2_22  and  C16_23 
REMARK    8  A    between atoms: C16_23  and  C17_24 
REMARK    9  A    between atoms: C17_24  and  O3_25 
REMARK   10  A    between atoms: C17_24  and  C18_26 
REMARK   11  A    between atoms: C18_26  and  N4_27 
ROOT
HETATM    1  C5  UNL     1      22.905   1.657  50.865  1.00  0.00     0.037 A 
HETATM    2  C6  UNL     1      22.425   1.832  49.584  1.00  0.00     0.046 A 
HETATM    3  C7  UNL     1      21.226   1.121  49.080  1.00  0.00     0.071 C 
HETATM    4  N1  UNL     1      23.046   2.699  48.727  1.00  0.00    -0.246 NA
HETATM    5  C8  UNL     1      24.123   3.366  49.164  1.00  0.00     0.235 A 
HETATM    6  N2  UNL     1      24.617   3.216  50.412  1.00  0.00    -0.224 NA
HETATM    7  C9  UNL     1      24.028   2.369  51.279  1.00  0.00     0.141 A 
ENDROOT
BRANCH   1   8
HETATM    8  C4  UNL     1      22.293   0.737  51.787  1.00  0.00     0.051 C 
HETATM    9  C3  UNL     1      21.213   0.783  52.566  1.00  0.00     0.071 C 
BRANCH   9  10
HETATM   10  C2  UNL     1      20.794  -0.353  53.459  1.00  0.00     0.231 C 
BRANCH  10  11
HETATM   11  O1  UNL     1      21.706  -1.381  53.496  1.00  0.00    -0.390 OA
HETATM   12  C1  UNL     1      21.908  -1.663  54.867  1.00  0.00     0.201 C 
ENDBRANCH  10  11
ENDBRANCH   9  10
BRANCH   9  13
HETATM   13  O2  UNL     1      20.212   1.710  52.832  1.00  0.00    -0.351 OA
BRANCH  13  14
HETATM   14  C16 UNL     1      19.161   1.974  51.940  1.00  0.00     0.208 C 
BRANCH  14  15
HETATM   15  C17 UNL     1      18.901   3.444  51.698  1.00  0.00     0.170 C 
BRANCH  15  16
HETATM   16  O3  UNL     1      17.614   3.839  52.062  1.00  0.00    -0.392 OA
HETATM   17  H18 UNL     1      17.116   3.087  52.443  1.00  0.00     0.210 HD
ENDBRANCH  15  16
BRANCH  15  18
HETATM   18  C18 UNL     1      19.238   3.890  50.303  1.00  0.00     0.306 C 
BRANCH  18  19
HETATM   19  N4  UNL     1      20.067   5.046  50.337  1.00  0.00     0.095 N 
HETATM   20  C19 UNL     1      21.246   4.980  51.125  1.00  0.00     0.298 C 
HETATM   21  C20 UNL     1      21.882   6.362  51.177  1.00  0.00     0.198 C 
HETATM   22  O4  UNL     1      22.111   6.922  49.948  1.00  0.00    -0.388 OA
HETATM   23  C21 UNL     1      21.738   6.115  48.887  1.00  0.00     0.198 C 
HETATM   24  C22 UNL     1      20.350   5.578  49.015  1.00  0.00     0.298 C 
ENDBRANCH  18  19
ENDBRANCH  15  18
ENDBRANCH  14  15
ENDBRANCH  13  14
ENDBRANCH   9  13
ENDBRANCH   1   8
BRANCH   7  25
HETATM   25  N3  UNL     1      24.613   2.267  52.568  1.00  0.00    -0.340 N 
HETATM   26  H11 UNL     1      24.137   2.776  53.344  1.00  0.00     0.167 HD
BRANCH  25  27
HETATM   27  C10 UNL     1      25.792   1.507  52.794  1.00  0.00     0.035 A 
HETATM   28  C11 UNL     1      25.852   0.185  52.410  1.00  0.00     0.032 A 
HETATM   29  C12 UNL     1      27.002  -0.539  52.639  1.00  0.00     0.046 A 
HETATM   30  C13 UNL     1      28.095   0.079  53.261  1.00  0.00     0.138 A 
HETATM   31  F1  UNL     1      29.231  -0.660  53.481  1.00  0.00    -0.204 F 
HETATM   32  C14 UNL     1      28.031   1.383  53.639  1.00  0.00     0.074 A 
HETATM   33 CL1  UNL     1      29.435   2.114  54.424  1.00  0.00    -0.081 Cl
HETATM   34  C15 UNL     1      26.873   2.117  53.408  1.00  0.00     0.056 A 
ENDBRANCH  25  27
ENDBRANCH   7  25
TORSDOF 11
ENDMDL
MODEL 5
REMARK VINA RESULT:      -7.3      4.288      8.478
REMARK  11 active torsions:
REMARK  status: ('A' for Active; 'I' for Inactive)
REMARK    1  A    between atoms: O1_2  and  C2_3 
REMARK    2  A    between atoms: C2_3  and  C3_4 
REMARK    3  A    between atoms: C3_4  and  O2_22 
REMARK    4  A    between atoms: C4_5  and  C5_6 
REMARK    5  A    between atoms: C9_12  and  N3_13 
REMARK    6  A    between atoms: N3_13  and  C10_14 
REMARK    7  A    between atoms: O2_22  and  C16_23 
REMARK    8  A    between atoms: C16_23  and  C17_24 
REMARK    9  A    between atoms: C17_24  and  O3_25 
REMARK   10  A    between atoms: C17_24  and  C18_26 
REMARK   11  A    between atoms: C18_26  and  N4_27 
ROOT
HETATM    1  C5  UNL     1      28.131   7.066  48.095  1.00  0.00     0.037 A 
HETATM    2  C6  UNL     1      27.420   8.002  47.373  1.00  0.00     0.046 A 
HETATM    3  C7  UNL     1      26.011   7.788  46.965  1.00  0.00     0.071 C 
HETATM    4  N1  UNL     1      28.002   9.188  47.021  1.00  0.00    -0.246 NA
HETATM    5  C8  UNL     1      29.271   9.412  47.392  1.00  0.00     0.235 A 
HETATM    6  N2  UNL     1      29.993   8.515  48.098  1.00  0.00    -0.224 NA
HETATM    7  C9  UNL     1      29.447   7.338  48.460  1.00  0.00     0.141 A 
ENDROOT
BRANCH   1   8
HETATM    8  C4  UNL     1      27.560   5.797  48.465  1.00  0.00     0.051 C 
HETATM    9  C3  UNL     1      26.558   5.426  49.260  1.00  0.00     0.071 C 
BRANCH   9  10
HETATM   10  C2  UNL     1      26.166   3.989  49.473  1.00  0.00     0.231 C 
BRANCH  10  11
HETATM   11  O1  UNL     1      27.056   3.293  50.255  1.00  0.00    -0.390 OA
HETATM   12  C1  UNL     1      26.273   2.408  51.032  1.00  0.00     0.201 C 
ENDBRANCH  10  11
ENDBRANCH   9  10
BRANCH   9  13
HETATM   13  O2  UNL     1      25.629   6.075  50.066  1.00  0.00    -0.351 OA
BRANCH  13  14
HETATM   14  C16 UNL     1      24.306   5.631  50.214  1.00  0.00     0.208 C 
BRANCH  14  15
HETATM   15  C17 UNL     1      23.721   5.859  51.590  1.00  0.00     0.170 C 
BRANCH  15  16
HETATM   16  O3  UNL     1      24.386   6.852  52.309  1.00  0.00    -0.392 OA
HETATM   17  H18 UNL     1      24.980   6.456  52.978  1.00  0.00     0.210 HD
ENDBRANCH  15  16
BRANCH  15  18
HETATM   18  C18 UNL     1      23.580   4.599  52.396  1.00  0.00     0.306 C 
BRANCH  18  19
HETATM   19  N4  UNL     1      22.623   3.730  51.800  1.00  0.00     0.095 N 
HETATM   20  C19 UNL     1      22.674   2.359  52.160  1.00  0.00     0.298 C 
HETATM   21  C20 UNL     1      21.705   1.582  51.280  1.00  0.00     0.198 C 
HETATM   22  O4  UNL     1      20.426   2.072  51.286  1.00  0.00    -0.388 OA
HETATM   23  C21 UNL     1      20.250   3.172  52.108  1.00  0.00     0.198 C 
HETATM   24  C22 UNL     1      21.267   4.243  51.881  1.00  0.00     0.298 C 
ENDBRANCH  18  19
ENDBRANCH  15  18
ENDBRANCH  14  15
ENDBRANCH  13  14
ENDBRANCH   9  13
ENDBRANCH   1   8
BRANCH   7  25
HETATM   25  N3  UNL     1      30.275   6.450  49.196  1.00  0.00    -0.340 N 
HETATM   26  H11 UNL     1      30.038   6.308  50.202  1.00  0.00     0.167 HD
BRANCH  25  27
HETATM   27  C10 UNL     1      31.377   5.786  48.594  1.00  0.00     0.035 A 
HETATM   28  C11 UNL     1      31.172   4.883  47.573  1.00  0.00     0.032 A 
HETATM   29  C12 UNL     1      32.251   4.244  47.002  1.00  0.00     0.046 A 
HETATM   30  C13 UNL     1      33.543   4.522  47.467  1.00  0.00     0.138 A 
HETATM   31  F1  UNL     1      34.605   3.874  46.885  1.00  0.00    -0.204 F 
HETATM   32  C14 UNL     1      33.741   5.413  48.474  1.00  0.00     0.074 A 
HETATM   33 CL1  UNL     1      35.390   5.723  49.027  1.00  0.00    -0.081 Cl
HETATM   34  C15 UNL     1      32.655   6.059  49.052  1.00  0.00     0.056 A 
ENDBRANCH  25  27
ENDBRANCH   7  25
TORSDOF 11
ENDMDL
MODEL 6
REMARK VINA RESULT:      -7.3      2.931      4.668
REMARK  11 active torsions:
REMARK  status: ('A' for Active; 'I' for Inactive)
REMARK    1  A    between atoms: O1_2  and  C2_3 
REMARK    2  A    between atoms: C2_3  and  C3_4 
REMARK    3  A    between atoms: C3_4  and  O2_22 
REMARK    4  A    between atoms: C4_5  and  C5_6 
REMARK    5  A    between atoms: C9_12  and  N3_13 
REMARK    6  A    between atoms: N3_13  and  C10_14 
REMARK    7  A    between atoms: O2_22  and  C16_23 
REMARK    8  A    between atoms: C16_23  and  C17_24 
REMARK    9  A    between atoms: C17_24  and  O3_25 
REMARK   10  A    between atoms: C17_24  and  C18_26 
REMARK   11  A    between atoms: C18_26  and  N4_27 
ROOT
HETATM    1  C5  UNL     1      24.326   2.590  50.878  1.00  0.00     0.037 A 
HETATM    2  C6  UNL     1      23.084   2.200  50.422  1.00  0.00     0.046 A 
HETATM    3  C7  UNL     1      22.623   2.474  49.040  1.00  0.00     0.071 C 
HETATM    4  N1  UNL     1      22.229   1.520  51.245  1.00  0.00    -0.246 NA
HETATM    5  C8  UNL     1      22.630   1.246  52.495  1.00  0.00     0.235 A 
HETATM    6  N2  UNL     1      23.839   1.615  52.970  1.00  0.00    -0.224 NA
HETATM    7  C9  UNL     1      24.703   2.286  52.184  1.00  0.00     0.141 A 
ENDROOT
BRANCH   1   8
HETATM    8  C4  UNL     1      25.244   3.327  50.049  1.00  0.00     0.051 C 
HETATM    9  C3  UNL     1      25.464   4.623  49.833  1.00  0.00     0.071 C 
BRANCH   9  10
HETATM   10  C2  UNL     1      26.515   5.131  48.884  1.00  0.00     0.231 C 
BRANCH  10  11
HETATM   11  O1  UNL     1      27.689   4.417  48.938  1.00  0.00    -0.390 OA
HETATM   12  C1  UNL     1      28.673   5.254  48.364  1.00  0.00     0.201 C 
ENDBRANCH  10  11
ENDBRANCH   9  10
BRANCH   9  13
HETATM   13  O2  UNL     1      24.930   5.819  50.299  1.00  0.00    -0.351 OA
BRANCH  13  14
HETATM   14  C16 UNL     1      25.647   7.025  50.298  1.00  0.00     0.208 C 
BRANCH  14  15
HETATM   15  C17 UNL     1      24.892   8.200  49.719  1.00  0.00     0.170 C 
BRANCH  15  16
HETATM   16  O3  UNL     1      24.182   7.878  48.563  1.00  0.00    -0.392 OA
HETATM   17  H18 UNL     1      23.247   8.155  48.641  1.00  0.00     0.210 HD
ENDBRANCH  15  16
BRANCH  15  18
HETATM   18  C18 UNL     1      25.746   9.419  49.515  1.00  0.00     0.306 C 
BRANCH  18  19
HETATM   19  N4  UNL     1      27.008   9.056  48.964  1.00  0.00     0.095 N 
HETATM   20  C19 UNL     1      27.246   9.388  47.605  1.00  0.00     0.298 C 
HETATM   21  C20 UNL     1      28.557   8.752  47.165  1.00  0.00     0.198 C 
HETATM   22  O4  UNL     1      29.625   9.055  47.967  1.00  0.00    -0.388 OA
HETATM   23  C21 UNL     1      29.315   9.900  49.019  1.00  0.00     0.198 C 
HETATM   24  C22 UNL     1      28.125   9.450  49.803  1.00  0.00     0.298 C 
ENDBRANCH  18  19
ENDBRANCH  15  18
ENDBRANCH  14  15
ENDBRANCH  13  14
ENDBRANCH   9  13
ENDBRANCH   1   8
BRANCH   7  25
HETATM   25  N3  UNL     1      25.950   2.639  52.762  1.00  0.00    -0.340 N 
HETATM   26  H11 UNL     1      26.092   3.646  52.998  1.00  0.00     0.167 HD
BRANCH  25  27
HETATM   27  C10 UNL     1      26.958   1.670  53.011  1.00  0.00     0.035 A 
HETATM   28  C11 UNL     1      28.184   2.055  53.511  1.00  0.00     0.032 A 
HETATM   29  C12 UNL     1      29.153   1.102  53.743  1.00  0.00     0.046 A 
HETATM   30  C13 UNL     1      28.879  -0.244  53.468  1.00  0.00     0.138 A 
HETATM   31  F1  UNL     1      29.858  -1.177  53.706  1.00  0.00    -0.204 F 
HETATM   32  C14 UNL     1      27.669  -0.618  52.976  1.00  0.00     0.074 A 
HETATM   33 CL1  UNL     1      27.375  -2.328  52.641  1.00  0.00    -0.081 Cl
HETATM   34  C15 UNL     1      26.689   0.340  52.740  1.00  0.00     0.056 A 
ENDBRANCH  25  27
ENDBRANCH   7  25
TORSDOF 11
ENDMDL
MODEL 7
REMARK VINA RESULT:      -7.2      3.656      6.463
REMARK  11 active torsions:
REMARK  status: ('A' for Active; 'I' for Inactive)
REMARK    1  A    between atoms: O1_2  and  C2_3 
REMARK    2  A    between atoms: C2_3  and  C3_4 
REMARK    3  A    between atoms: C3_4  and  O2_22 
REMARK    4  A    between atoms: C4_5  and  C5_6 
REMARK    5  A    between atoms: C9_12  and  N3_13 
REMARK    6  A    between atoms: N3_13  and  C10_14 
REMARK    7  A    between atoms: O2_22  and  C16_23 
REMARK    8  A    between atoms: C16_23  and  C17_24 
REMARK    9  A    between atoms: C17_24  and  O3_25 
REMARK   10  A    between atoms: C17_24  and  C18_26 
REMARK   11  A    between atoms: C18_26  and  N4_27 
ROOT
HETATM    1  C5  UNL     1      25.868   1.088  53.040  1.00  0.00     0.037 A 
HETATM    2  C6  UNL     1      26.604   0.824  54.177  1.00  0.00     0.046 A 
HETATM    3  C7  UNL     1      26.125  -0.096  55.237  1.00  0.00     0.071 C 
HETATM    4  N1  UNL     1      27.830   1.402  54.356  1.00  0.00    -0.246 NA
HETATM    5  C8  UNL     1      28.292   2.225  53.403  1.00  0.00     0.235 A 
HETATM    6  N2  UNL     1      27.595   2.504  52.280  1.00  0.00    -0.224 NA
HETATM    7  C9  UNL     1      26.385   1.950  52.076  1.00  0.00     0.141 A 
ENDROOT
BRANCH   1   8
HETATM    8  C4  UNL     1      24.564   0.517  52.828  1.00  0.00     0.051 C 
HETATM    9  C3  UNL     1      23.351   1.024  52.617  1.00  0.00     0.071 C 
BRANCH   9  10
HETATM   10  C2  UNL     1      22.125   0.173  52.425  1.00  0.00     0.231 C 
BRANCH  10  11
HETATM   11  O1  UNL     1      21.247   0.239  53.481  1.00  0.00    -0.390 OA
HETATM   12  C1  UNL     1      21.525  -0.893  54.281  1.00  0.00     0.201 C 
ENDBRANCH  10  11
ENDBRANCH   9  10
BRANCH   9  13
HETATM   13  O2  UNL     1      22.807   2.299  52.502  1.00  0.00    -0.351 OA
BRANCH  13  14
HETATM   14  C16 UNL     1      22.077   2.717  51.379  1.00  0.00     0.208 C 
BRANCH  14  15
HETATM   15  C17 UNL     1      20.724   3.312  51.700  1.00  0.00     0.170 C 
BRANCH  15  16
HETATM   16  O3  UNL     1      20.350   3.133  53.032  1.00  0.00    -0.392 OA
HETATM   17  H18 UNL     1      21.138   3.016  53.601  1.00  0.00     0.210 HD
ENDBRANCH  15  16
BRANCH  15  18
HETATM   18  C18 UNL     1      19.637   2.868  50.762  1.00  0.00     0.306 C 
BRANCH  18  19
HETATM   19  N4  UNL     1      18.362   2.993  51.383  1.00  0.00     0.095 N 
HETATM   20  C19 UNL     1      17.570   4.114  51.023  1.00  0.00     0.298 C 
HETATM   21  C20 UNL     1      16.346   4.163  51.928  1.00  0.00     0.198 C 
HETATM   22  O4  UNL     1      15.620   3.002  51.952  1.00  0.00    -0.388 OA
HETATM   23  C21 UNL     1      16.126   2.007  51.133  1.00  0.00     0.198 C 
HETATM   24  C22 UNL     1      17.587   1.766  51.333  1.00  0.00     0.298 C 
ENDBRANCH  18  19
ENDBRANCH  15  18
ENDBRANCH  14  15
ENDBRANCH  13  14
ENDBRANCH   9  13
ENDBRANCH   1   8
BRANCH   7  25
HETATM   25  N3  UNL     1      25.718   2.299  50.873  1.00  0.00    -0.340 N 
HETATM   26  H11 UNL     1      25.141   1.557  50.420  1.00  0.00     0.167 HD
BRANCH  25  27
HETATM   27  C10 UNL     1      25.829   3.598  50.309  1.00  0.00     0.035 A 
HETATM   28  C11 UNL     1      26.770   3.855  49.335  1.00  0.00     0.032 A 
HETATM   29  C12 UNL     1      26.868   5.123  48.801  1.00  0.00     0.046 A 
HETATM   30  C13 UNL     1      26.008   6.131  49.255  1.00  0.00     0.138 A 
HETATM   31  F1  UNL     1      26.122   7.387  48.710  1.00  0.00    -0.204 F 
HETATM   32  C14 UNL     1      25.082   5.873  50.214  1.00  0.00     0.074 A 
HETATM   33 CL1  UNL     1      24.026   7.182  50.756  1.00  0.00    -0.081 Cl
HETATM   34  C15 UNL     1      24.981   4.596  50.756  1.00  0.00     0.056 A 
ENDBRANCH  25  27
ENDBRANCH   7  25
TORSDOF 11
ENDMDL
MODEL 8
REMARK VINA RESULT:      -7.2      2.015      3.467
REMARK  11 active torsions:
REMARK  status: ('A' for Active; 'I' for Inactive)
REMARK    1  A    between atoms: O1_2  and  C2_3 
REMARK    2  A    between atoms: C2_3  and  C3_4 
REMARK    3  A    between atoms: C3_4  and  O2_22 
REMARK    4  A    between atoms: C4_5  and  C5_6 
REMARK    5  A    between atoms: C9_12  and  N3_13 
REMARK    6  A    between atoms: N3_13  and  C10_14 
REMARK    7  A    between atoms: O2_22  and  C16_23 
REMARK    8  A    between atoms: C16_23  and  C17_24 
REMARK    9  A    between atoms: C17_24  and  O3_25 
REMARK   10  A    between atoms: C17_24  and  C18_26 
REMARK   11  A    between atoms: C18_26  and  N4_27 
ROOT
HETATM    1  C5  UNL     1      22.879   1.417  51.311  1.00  0.00     0.037 A 
HETATM    2  C6  UNL     1      21.717   0.843  50.838  1.00  0.00     0.046 A 
HETATM    3  C7  UNL     1      21.292   0.961  49.422  1.00  0.00     0.071 C 
HETATM    4  N1  UNL     1      20.916   0.117  51.674  1.00  0.00    -0.246 NA
HETATM    5  C8  UNL     1      21.287  -0.018  52.956  1.00  0.00     0.235 A 
HETATM    6  N2  UNL     1      22.417   0.532  53.449  1.00  0.00    -0.224 NA
HETATM    7  C9  UNL     1      23.228   1.253  52.649  1.00  0.00     0.141 A 
ENDROOT
BRANCH   1   8
HETATM    8  C4  UNL     1      23.736   2.207  50.466  1.00  0.00     0.051 C 
HETATM    9  C3  UNL     1      24.223   3.445  50.536  1.00  0.00     0.071 C 
BRANCH   9  10
HETATM   10  C2  UNL     1      25.119   4.037  49.482  1.00  0.00     0.231 C 
BRANCH  10  11
HETATM   11  O1  UNL     1      26.457   3.885  49.758  1.00  0.00    -0.390 OA
HETATM   12  C1  UNL     1      27.131   4.768  48.884  1.00  0.00     0.201 C 
ENDBRANCH  10  11
ENDBRANCH   9  10
BRANCH   9  13
HETATM   13  O2  UNL     1      24.134   4.506  51.431  1.00  0.00    -0.351 OA
BRANCH  13  14
HETATM   14  C16 UNL     1      23.608   5.758  51.078  1.00  0.00     0.208 C 
BRANCH  14  15
HETATM   15  C17 UNL     1      22.129   5.915  51.355  1.00  0.00     0.170 C 
BRANCH  15  16
HETATM   16  O3  UNL     1      21.563   4.789  51.954  1.00  0.00    -0.392 OA
HETATM   17  H18 UNL     1      22.060   3.981  51.713  1.00  0.00     0.210 HD
ENDBRANCH  15  16
BRANCH  15  18
HETATM   18  C18 UNL     1      21.338   6.353  50.155  1.00  0.00     0.306 C 
BRANCH  18  19
HETATM   19  N4  UNL     1      21.858   5.756  48.972  1.00  0.00     0.095 N 
HETATM   20  C19 UNL     1      21.222   4.577  48.503  1.00  0.00     0.298 C 
HETATM   21  C20 UNL     1      22.038   4.001  47.354  1.00  0.00     0.198 C 
HETATM   22  O4  UNL     1      22.291   4.890  46.343  1.00  0.00    -0.388 OA
HETATM   23  C21 UNL     1      21.738   6.143  46.548  1.00  0.00     0.198 C 
HETATM   24  C22 UNL     1      22.052   6.710  47.895  1.00  0.00     0.298 C 
ENDBRANCH  18  19
ENDBRANCH  15  18
ENDBRANCH  14  15
ENDBRANCH  13  14
ENDBRANCH   9  13
ENDBRANCH   1   8
BRANCH   7  25
HETATM   25  N3  UNL     1      24.392   1.801  53.248  1.00  0.00    -0.340 N 
HETATM   26  H11 UNL     1      24.293   2.732  53.706  1.00  0.00     0.167 HD
BRANCH  25  27
HETATM   27  C10 UNL     1      25.636   1.114  53.226  1.00  0.00     0.035 A 
HETATM   28  C11 UNL     1      25.724  -0.147  52.678  1.00  0.00     0.032 A 
HETATM   29  C12 UNL     1      26.938  -0.801  52.668  1.00  0.00     0.046 A 
HETATM   30  C13 UNL     1      28.064  -0.174  53.215  1.00  0.00     0.138 A 
HETATM   31  F1  UNL     1      29.264  -0.843  53.195  1.00  0.00    -0.204 F 
HETATM   32  C14 UNL     1      27.973   1.069  53.755  1.00  0.00     0.074 A 
HETATM   33 CL1  UNL     1      29.423   1.813  54.437  1.00  0.00    -0.081 Cl
HETATM   34  C15 UNL     1      26.750   1.732  53.767  1.00  0.00     0.056 A 
ENDBRANCH  25  27
ENDBRANCH   7  25
TORSDOF 11
ENDMDL
MODEL 9
REMARK VINA RESULT:      -7.1      2.272      4.393
REMARK  11 active torsions:
REMARK  status: ('A' for Active; 'I' for Inactive)
REMARK    1  A    between atoms: O1_2  and  C2_3 
REMARK    2  A    between atoms: C2_3  and  C3_4 
REMARK    3  A    between atoms: C3_4  and  O2_22 
REMARK    4  A    between atoms: C4_5  and  C5_6 
REMARK    5  A    between atoms: C9_12  and  N3_13 
REMARK    6  A    between atoms: N3_13  and  C10_14 
REMARK    7  A    between atoms: O2_22  and  C16_23 
REMARK    8  A    between atoms: C16_23  and  C17_24 
REMARK    9  A    between atoms: C17_24  and  O3_25 
REMARK   10  A    between atoms: C17_24  and  C18_26 
REMARK   11  A    between atoms: C18_26  and  N4_27 
ROOT
HETATM    1  C5  UNL     1      24.109   3.028  51.918  1.00  0.00     0.037 A 
HETATM    2  C6  UNL     1      23.719   4.350  51.871  1.00  0.00     0.046 A 
HETATM    3  C7  UNL     1      22.655   4.897  52.747  1.00  0.00     0.071 C 
HETATM    4  N1  UNL     1      24.328   5.218  51.008  1.00  0.00    -0.246 NA
HETATM    5  C8  UNL     1      25.305   4.752  50.217  1.00  0.00     0.235 A 
HETATM    6  N2  UNL     1      25.708   3.463  50.240  1.00  0.00    -0.224 NA
HETATM    7  C9  UNL     1      25.127   2.584  51.079  1.00  0.00     0.141 A 
ENDROOT
BRANCH   1   8
HETATM    8  C4  UNL     1      23.475   2.079  52.797  1.00  0.00     0.051 C 
HETATM    9  C3  UNL     1      22.376   1.332  52.718  1.00  0.00     0.071 C 
BRANCH   9  10
HETATM   10  C2  UNL     1      21.933   0.402  53.816  1.00  0.00     0.231 C 
BRANCH  10  11
HETATM   11  O1  UNL     1      22.500  -0.847  53.732  1.00  0.00    -0.390 OA
HETATM   12  C1  UNL     1      21.581  -1.727  54.349  1.00  0.00     0.201 C 
ENDBRANCH  10  11
ENDBRANCH   9  10
BRANCH   9  13
HETATM   13  O2  UNL     1      21.371   1.127  51.779  1.00  0.00    -0.351 OA
BRANCH  13  14
HETATM   14  C16 UNL     1      20.039   1.515  51.992  1.00  0.00     0.208 C 
BRANCH  14  15
HETATM   15  C17 UNL     1      19.659   2.826  51.342  1.00  0.00     0.170 C 
BRANCH  15  16
HETATM   16  O3  UNL     1      18.723   3.552  52.080  1.00  0.00    -0.392 OA
HETATM   17  H18 UNL     1      18.395   4.318  51.567  1.00  0.00     0.210 HD
ENDBRANCH  15  16
BRANCH  15  18
HETATM   18  C18 UNL     1      19.232   2.682  49.908  1.00  0.00     0.306 C 
BRANCH  18  19
HETATM   19  N4  UNL     1      20.234   3.195  49.037  1.00  0.00     0.095 N 
HETATM   20  C19 UNL     1      20.990   4.306  49.496  1.00  0.00     0.298 C 
HETATM   21  C20 UNL     1      21.863   4.812  48.357  1.00  0.00     0.198 C 
HETATM   22  O4  UNL     1      22.651   3.851  47.783  1.00  0.00    -0.388 OA
HETATM   23  C21 UNL     1      22.520   2.600  48.361  1.00  0.00     0.198 C 
HETATM   24  C22 UNL     1      21.099   2.161  48.498  1.00  0.00     0.298 C 
ENDBRANCH  18  19
ENDBRANCH  15  18
ENDBRANCH  14  15
ENDBRANCH  13  14
ENDBRANCH   9  13
ENDBRANCH   1   8
BRANCH   7  25
HETATM   25  N3  UNL     1      25.607   1.248  51.036  1.00  0.00    -0.340 N 
HETATM   26  H11 UNL     1      25.204   0.626  50.302  1.00  0.00     0.167 HD
BRANCH  25  27
HETATM   27  C10 UNL     1      26.589   0.779  51.948  1.00  0.00     0.035 A 
HETATM   28  C11 UNL     1      26.701  -0.568  52.217  1.00  0.00     0.032 A 
HETATM   29  C12 UNL     1      27.657  -1.008  53.108  1.00  0.00     0.046 A 
HETATM   30  C13 UNL     1      28.501  -0.078  53.728  1.00  0.00     0.138 A 
HETATM   31  F1  UNL     1      29.447  -0.537  54.613  1.00  0.00    -0.204 F 
HETATM   32  C14 UNL     1      28.388   1.249  53.460  1.00  0.00     0.074 A 
HETATM   33 CL1  UNL     1      29.474   2.380  54.273  1.00  0.00    -0.081 Cl
HETATM   34  C15 UNL     1      27.425   1.696  52.562  1.00  0.00     0.056 A 
ENDBRANCH  25  27
ENDBRANCH   7  25
TORSDOF 11
ENDMDL
