MODEL 1
REMARK VINA RESULT:      -7.4      0.000      0.000
REMARK  7 active torsions:
REMARK  status: ('A' for Active; 'I' for Inactive)
REMARK    1  A    between atoms: O1_2  and  C2_3 
REMARK    2  A    between atoms: C2_3  and  C3_5 
REMARK    3  A    between atoms: C3_5  and  C4_6 
REMARK    4  A    between atoms: C4_6  and  C5_7 
REMARK    5  A    between atoms: C5_7  and  C6_8 
REMARK    6  A    between atoms: C6_8  and  C7_9 
REMARK    7  A    between atoms: C7_9  and  O4_11 
ROOT
HETATM    1  C5  UNL     1      25.364   0.827  52.916  1.00  0.00     0.051 A 
HETATM    2  C9  UNL     1      24.497   1.541  51.905  1.00  0.00     0.091 A 
HETATM    3  S1  UNL     1      24.917   2.640  50.756  1.00  0.00    -0.064 SA
HETATM    4  N1  UNL     1      23.112   1.150  52.020  1.00  0.00    -0.349 N 
HETATM    5  C10 UNL     1      23.062   0.240  53.121  1.00  0.00     0.040 A 
HETATM    6  C11 UNL     1      21.932  -0.371  53.623  1.00  0.00     0.030 A 
HETATM    7  C12 UNL     1      22.007  -1.203  54.715  1.00  0.00     0.002 A 
HETATM    8  C13 UNL     1      23.244  -1.406  55.290  1.00  0.00     0.001 A 
HETATM    9  C14 UNL     1      24.339  -0.768  54.744  1.00  0.00     0.011 A 
HETATM   10  C15 UNL     1      24.323   0.074  53.652  1.00  0.00    -0.015 A 
HETATM   11  H13 UNL     1      22.313   1.461  51.428  1.00  0.00     0.166 HD
ENDROOT
BRANCH   1  12
HETATM   12  C4  UNL     1      26.359   0.004  52.189  1.00  0.00     0.032 C 
BRANCH  12  13
HETATM   13  C3  UNL     1      26.358  -1.437  52.529  1.00  0.00     0.112 C 
BRANCH  13  14
HETATM   14  C2  UNL     1      27.716  -1.896  53.018  1.00  0.00     0.258 C 
HETATM   15  O2  UNL     1      27.919  -3.095  52.630  1.00  0.00    -0.265 OA
BRANCH  14  16
HETATM   16  O1  UNL     1      28.464  -0.991  53.758  1.00  0.00    -0.326 OA
HETATM   17  C1  UNL     1      29.873  -1.082  53.745  1.00  0.00     0.213 C 
ENDBRANCH  14  16
ENDBRANCH  13  14
ENDBRANCH  12  13
ENDBRANCH   1  12
BRANCH   1  18
HETATM   18  C6  UNL     1      26.003   1.887  53.765  1.00  0.00     0.132 C 
BRANCH  18  19
HETATM   19  C7  UNL     1      27.345   2.261  53.245  1.00  0.00     0.259 C 
HETATM   20  O3  UNL     1      28.265   2.470  52.422  1.00  0.00    -0.265 OA
BRANCH  19  21
HETATM   21  O4  UNL     1      28.172   2.629  54.297  1.00  0.00    -0.326 OA
HETATM   22  C8  UNL     1      29.536   2.284  54.241  1.00  0.00     0.213 C 
ENDBRANCH  19  21
ENDBRANCH  18  19
ENDBRANCH   1  18
TORSDOF 7
ENDMDL
MODEL 2
REMARK VINA RESULT:      -6.8      2.945      4.873
REMARK  7 active torsions:
REMARK  status: ('A' for Active; 'I' for Inactive)
REMARK    1  A    between atoms: O1_2  and  C2_3 
REMARK    2  A    between atoms: C2_3  and  C3_5 
REMARK    3  A    between atoms: C3_5  and  C4_6 
REMARK    4  A    between atoms: C4_6  and  C5_7 
REMARK    5  A    between atoms: C5_7  and  C6_8 
REMARK    6  A    between atoms: C6_8  and  C7_9 
REMARK    7  A    between atoms: C7_9  and  O4_11 
ROOT
HETATM    1  C5  UNL     1      24.700   1.367  52.405  1.00  0.00     0.051 A 
HETATM    2  C9  UNL     1      24.880   2.606  53.250  1.00  0.00     0.091 A 
HETATM    3  S1  UNL     1      23.950   3.960  53.334  1.00  0.00    -0.064 SA
HETATM    4  N1  UNL     1      26.056   2.518  54.083  1.00  0.00    -0.349 N 
HETATM    5  C10 UNL     1      26.667   1.270  53.749  1.00  0.00     0.040 A 
HETATM    6  C11 UNL     1      27.841   0.771  54.274  1.00  0.00     0.030 A 
HETATM    7  C12 UNL     1      28.350  -0.433  53.844  1.00  0.00     0.002 A 
HETATM    8  C13 UNL     1      27.650  -1.122  52.876  1.00  0.00     0.001 A 
HETATM    9  C14 UNL     1      26.482  -0.573  52.388  1.00  0.00     0.011 A 
HETATM   10  C15 UNL     1      25.926   0.626  52.782  1.00  0.00    -0.015 A 
HETATM   11  H13 UNL     1      26.394   3.214  54.781  1.00  0.00     0.166 HD
ENDROOT
BRANCH   1  12
HETATM   12  C4  UNL     1      23.419   0.722  52.777  1.00  0.00     0.032 C 
BRANCH  12  13
HETATM   13  C3  UNL     1      23.524  -0.355  53.788  1.00  0.00     0.112 C 
BRANCH  13  14
HETATM   14  C2  UNL     1      22.201  -0.595  54.486  1.00  0.00     0.258 C 
HETATM   15  O2  UNL     1      22.338  -1.539  55.334  1.00  0.00    -0.265 OA
BRANCH  14  16
HETATM   16  O1  UNL     1      21.129   0.202  54.108  1.00  0.00    -0.326 OA
HETATM   17  C1  UNL     1      19.973  -0.401  53.567  1.00  0.00     0.213 C 
ENDBRANCH  14  16
ENDBRANCH  13  14
ENDBRANCH  12  13
ENDBRANCH   1  12
BRANCH   1  18
HETATM   18  C6  UNL     1      24.726   1.812  50.971  1.00  0.00     0.132 C 
BRANCH  18  19
HETATM   19  C7  UNL     1      25.907   2.671  50.692  1.00  0.00     0.259 C 
HETATM   20  O3  UNL     1      27.090   3.081  50.721  1.00  0.00    -0.265 OA
BRANCH  19  21
HETATM   21  O4  UNL     1      25.538   3.726  49.870  1.00  0.00    -0.326 OA
HETATM   22  C8  UNL     1      26.547   4.488  49.249  1.00  0.00     0.213 C 
ENDBRANCH  19  21
ENDBRANCH  18  19
ENDBRANCH   1  18
TORSDOF 7
ENDMDL
MODEL 3
REMARK VINA RESULT:      -6.7      3.187      5.042
REMARK  7 active torsions:
REMARK  status: ('A' for Active; 'I' for Inactive)
REMARK    1  A    between atoms: O1_2  and  C2_3 
REMARK    2  A    between atoms: C2_3  and  C3_5 
REMARK    3  A    between atoms: C3_5  and  C4_6 
REMARK    4  A    between atoms: C4_6  and  C5_7 
REMARK    5  A    between atoms: C5_7  and  C6_8 
REMARK    6  A    between atoms: C6_8  and  C7_9 
REMARK    7  A    between atoms: C7_9  and  O4_11 
ROOT
HETATM    1  C5  UNL     1      24.319   1.954  51.707  1.00  0.00     0.051 A 
HETATM    2  C9  UNL     1      24.279   3.144  52.636  1.00  0.00     0.091 A 
HETATM    3  S1  UNL     1      23.311   4.472  52.596  1.00  0.00    -0.064 SA
HETATM    4  N1  UNL     1      25.258   3.029  53.691  1.00  0.00    -0.349 N 
HETATM    5  C10 UNL     1      25.964   1.815  53.427  1.00  0.00     0.040 A 
HETATM    6  C11 UNL     1      27.018   1.309  54.159  1.00  0.00     0.030 A 
HETATM    7  C12 UNL     1      27.642   0.142  53.781  1.00  0.00     0.002 A 
HETATM    8  C13 UNL     1      27.181  -0.501  52.652  1.00  0.00     0.001 A 
HETATM    9  C14 UNL     1      26.124   0.052  51.960  1.00  0.00     0.011 A 
HETATM   10  C15 UNL     1      25.461   1.215  52.292  1.00  0.00    -0.015 A 
HETATM   11  H13 UNL     1      25.421   3.689  54.481  1.00  0.00     0.166 HD
ENDROOT
BRANCH   1  12
HETATM   12  C4  UNL     1      23.009   1.263  51.767  1.00  0.00     0.032 C 
BRANCH  12  13
HETATM   13  C3  UNL     1      22.698   0.607  53.057  1.00  0.00     0.112 C 
BRANCH  13  14
HETATM   14  C2  UNL     1      21.242   0.784  53.436  1.00  0.00     0.258 C 
HETATM   15  O2  UNL     1      20.782   1.828  52.863  1.00  0.00    -0.265 OA
BRANCH  14  16
HETATM   16  O1  UNL     1      20.689  -0.161  54.290  1.00  0.00    -0.326 OA
HETATM   17  C1  UNL     1      21.338  -1.403  54.462  1.00  0.00     0.213 C 
ENDBRANCH  14  16
ENDBRANCH  13  14
ENDBRANCH  12  13
ENDBRANCH   1  12
BRANCH   1  18
HETATM   18  C6  UNL     1      24.629   2.483  50.337  1.00  0.00     0.132 C 
BRANCH  18  19
HETATM   19  C7  UNL     1      25.955   3.155  50.303  1.00  0.00     0.259 C 
HETATM   20  O3  UNL     1      27.166   3.369  50.541  1.00  0.00    -0.265 OA
BRANCH  19  21
HETATM   21  O4  UNL     1      25.884   4.297  49.517  1.00  0.00    -0.326 OA
HETATM   22  C8  UNL     1      27.055   4.761  48.887  1.00  0.00     0.213 C 
ENDBRANCH  19  21
ENDBRANCH  18  19
ENDBRANCH   1  18
TORSDOF 7
ENDMDL
MODEL 4
REMARK VINA RESULT:      -6.6      2.862      3.692
REMARK  7 active torsions:
REMARK  status: ('A' for Active; 'I' for Inactive)
REMARK    1  A    between atoms: O1_2  and  C2_3 
REMARK    2  A    between atoms: C2_3  and  C3_5 
REMARK    3  A    between atoms: C3_5  and  C4_6 
REMARK    4  A    between atoms: C4_6  and  C5_7 
REMARK    5  A    between atoms: C5_7  and  C6_8 
REMARK    6  A    between atoms: C6_8  and  C7_9 
REMARK    7  A    between atoms: C7_9  and  O4_11 
ROOT
HETATM    1  C5  UNL     1      24.279   2.033  52.203  1.00  0.00     0.051 A 
HETATM    2  C9  UNL     1      24.395   2.488  50.767  1.00  0.00     0.091 A 
HETATM    3  S1  UNL     1      25.586   3.353  50.035  1.00  0.00    -0.064 SA
HETATM    4  N1  UNL     1      23.262   2.062  49.980  1.00  0.00    -0.349 N 
HETATM    5  C10 UNL     1      22.393   1.389  50.894  1.00  0.00     0.040 A 
HETATM    6  C11 UNL     1      21.164   0.838  50.596  1.00  0.00     0.030 A 
HETATM    7  C12 UNL     1      20.401   0.245  51.575  1.00  0.00     0.002 A 
HETATM    8  C13 UNL     1      20.903   0.221  52.860  1.00  0.00     0.001 A 
HETATM    9  C14 UNL     1      22.138   0.788  53.099  1.00  0.00     0.011 A 
HETATM   10  C15 UNL     1      22.945   1.393  52.158  1.00  0.00    -0.015 A 
HETATM   11  H13 UNL     1      23.104   2.210  48.961  1.00  0.00     0.166 HD
ENDROOT
BRANCH   1  12
HETATM   12  C4  UNL     1      25.414   1.130  52.506  1.00  0.00     0.032 C 
BRANCH  12  13
HETATM   13  C3  UNL     1      26.018   1.300  53.847  1.00  0.00     0.112 C 
BRANCH  13  14
HETATM   14  C2  UNL     1      26.145  -0.024  54.574  1.00  0.00     0.258 C 
HETATM   15  O2  UNL     1      25.005  -0.596  54.608  1.00  0.00    -0.265 OA
BRANCH  14  16
HETATM   16  O1  UNL     1      27.404  -0.369  55.049  1.00  0.00    -0.326 OA
HETATM   17  C1  UNL     1      28.518   0.423  54.696  1.00  0.00     0.213 C 
ENDBRANCH  14  16
ENDBRANCH  13  14
ENDBRANCH  12  13
ENDBRANCH   1  12
BRANCH   1  18
HETATM   18  C6  UNL     1      24.285   3.271  53.052  1.00  0.00     0.132 C 
BRANCH  18  19
HETATM   19  C7  UNL     1      23.188   4.197  52.667  1.00  0.00     0.259 C 
HETATM   20  O3  UNL     1      22.027   4.603  52.429  1.00  0.00    -0.265 OA
BRANCH  19  21
HETATM   21  O4  UNL     1      23.712   5.443  52.353  1.00  0.00    -0.326 OA
HETATM   22  C8  UNL     1      23.250   6.103  51.198  1.00  0.00     0.213 C 
ENDBRANCH  19  21
ENDBRANCH  18  19
ENDBRANCH   1  18
TORSDOF 7
ENDMDL
MODEL 5
REMARK VINA RESULT:      -6.4      3.593      5.175
REMARK  7 active torsions:
REMARK  status: ('A' for Active; 'I' for Inactive)
REMARK    1  A    between atoms: O1_2  and  C2_3 
REMARK    2  A    between atoms: C2_3  and  C3_5 
REMARK    3  A    between atoms: C3_5  and  C4_6 
REMARK    4  A    between atoms: C4_6  and  C5_7 
REMARK    5  A    between atoms: C5_7  and  C6_8 
REMARK    6  A    between atoms: C6_8  and  C7_9 
REMARK    7  A    between atoms: C7_9  and  O4_11 
ROOT
HETATM    1  C5  UNL     1      22.766   2.122  51.946  1.00  0.00     0.051 A 
HETATM    2  C9  UNL     1      21.517   2.959  52.091  1.00  0.00     0.091 A 
HETATM    3  S1  UNL     1      21.173   4.443  51.472  1.00  0.00    -0.064 SA
HETATM    4  N1  UNL     1      20.522   2.297  52.901  1.00  0.00    -0.349 N 
HETATM    5  C10 UNL     1      21.127   1.073  53.325  1.00  0.00     0.040 A 
HETATM    6  C11 UNL     1      20.558   0.125  54.148  1.00  0.00     0.030 A 
HETATM    7  C12 UNL     1      21.259  -1.001  54.516  1.00  0.00     0.002 A 
HETATM    8  C13 UNL     1      22.544  -1.148  54.037  1.00  0.00     0.001 A 
HETATM    9  C14 UNL     1      23.060  -0.166  53.217  1.00  0.00     0.011 A 
HETATM   10  C15 UNL     1      22.405   0.979  52.815  1.00  0.00    -0.015 A 
HETATM   11  H13 UNL     1      19.563   2.633  53.131  1.00  0.00     0.166 HD
ENDROOT
BRANCH   1  12
HETATM   12  C4  UNL     1      22.957   1.803  50.512  1.00  0.00     0.032 C 
BRANCH  12  13
HETATM   13  C3  UNL     1      21.845   1.061  49.875  1.00  0.00     0.112 C 
BRANCH  13  14
HETATM   14  C2  UNL     1      21.416   1.708  48.573  1.00  0.00     0.258 C 
HETATM   15  O2  UNL     1      22.408   1.735  47.770  1.00  0.00    -0.265 OA
BRANCH  14  16
HETATM   16  O1  UNL     1      20.098   2.134  48.480  1.00  0.00    -0.326 OA
HETATM   17  C1  UNL     1      19.182   1.779  49.495  1.00  0.00     0.213 C 
ENDBRANCH  14  16
ENDBRANCH  13  14
ENDBRANCH  12  13
ENDBRANCH   1  12
BRANCH   1  18
HETATM   18  C6  UNL     1      23.898   2.929  52.512  1.00  0.00     0.132 C 
BRANCH  18  19
HETATM   19  C7  UNL     1      25.174   2.639  51.807  1.00  0.00     0.259 C 
HETATM   20  O3  UNL     1      26.058   2.680  50.921  1.00  0.00    -0.265 OA
BRANCH  19  21
HETATM   21  O4  UNL     1      25.937   1.755  52.558  1.00  0.00    -0.326 OA
HETATM   22  C8  UNL     1      26.513   0.642  51.916  1.00  0.00     0.213 C 
ENDBRANCH  19  21
ENDBRANCH  18  19
ENDBRANCH   1  18
TORSDOF 7
ENDMDL
MODEL 6
REMARK VINA RESULT:      -6.4      3.550      5.633
REMARK  7 active torsions:
REMARK  status: ('A' for Active; 'I' for Inactive)
REMARK    1  A    between atoms: O1_2  and  C2_3 
REMARK    2  A    between atoms: C2_3  and  C3_5 
REMARK    3  A    between atoms: C3_5  and  C4_6 
REMARK    4  A    between atoms: C4_6  and  C5_7 
REMARK    5  A    between atoms: C5_7  and  C6_8 
REMARK    6  A    between atoms: C6_8  and  C7_9 
REMARK    7  A    between atoms: C7_9  and  O4_11 
ROOT
HETATM    1  C5  UNL     1      24.104   1.523  52.426  1.00  0.00     0.051 A 
HETATM    2  C9  UNL     1      24.437   2.881  52.998  1.00  0.00     0.091 A 
HETATM    3  S1  UNL     1      23.540   4.259  53.018  1.00  0.00    -0.064 SA
HETATM    4  N1  UNL     1      25.748   2.897  53.603  1.00  0.00    -0.349 N 
HETATM    5  C10 UNL     1      26.287   1.592  53.383  1.00  0.00     0.040 A 
HETATM    6  C11 UNL     1      27.538   1.152  53.760  1.00  0.00     0.030 A 
HETATM    7  C12 UNL     1      27.958  -0.123  53.458  1.00  0.00     0.002 A 
HETATM    8  C13 UNL     1      27.090  -0.943  52.768  1.00  0.00     0.001 A 
HETATM    9  C14 UNL     1      25.851  -0.448  52.417  1.00  0.00     0.011 A 
HETATM   10  C15 UNL     1      25.378   0.818  52.694  1.00  0.00    -0.015 A 
HETATM   11  H13 UNL     1      26.210   3.690  54.097  1.00  0.00     0.166 HD
ENDROOT
BRANCH   1  12
HETATM   12  C4  UNL     1      22.915   0.991  53.133  1.00  0.00     0.032 C 
BRANCH  12  13
HETATM   13  C3  UNL     1      23.148  -0.235  53.929  1.00  0.00     0.112 C 
BRANCH  13  14
HETATM   14  C2  UNL     1      21.870  -1.027  54.121  1.00  0.00     0.258 C 
HETATM   15  O2  UNL     1      21.933  -1.663  55.226  1.00  0.00    -0.265 OA
BRANCH  14  16
HETATM   16  O1  UNL     1      20.908  -0.932  53.125  1.00  0.00    -0.326 OA
HETATM   17  C1  UNL     1      19.600  -0.521  53.463  1.00  0.00     0.213 C 
ENDBRANCH  14  16
ENDBRANCH  13  14
ENDBRANCH  12  13
ENDBRANCH   1  12
BRANCH   1  18
HETATM   18  C6  UNL     1      23.861   1.718  50.958  1.00  0.00     0.132 C 
BRANCH  18  19
HETATM   19  C7  UNL     1      22.457   1.395  50.594  1.00  0.00     0.259 C 
HETATM   20  O3  UNL     1      21.443   0.707  50.331  1.00  0.00    -0.265 OA
BRANCH  19  21
HETATM   21  O4  UNL     1      21.737   2.566  50.407  1.00  0.00    -0.326 OA
HETATM   22  C8  UNL     1      20.364   2.578  50.722  1.00  0.00     0.213 C 
ENDBRANCH  19  21
ENDBRANCH  18  19
ENDBRANCH   1  18
TORSDOF 7
ENDMDL
MODEL 7
REMARK VINA RESULT:      -6.4      2.862      4.713
REMARK  7 active torsions:
REMARK  status: ('A' for Active; 'I' for Inactive)
REMARK    1  A    between atoms: O1_2  and  C2_3 
REMARK    2  A    between atoms: C2_3  and  C3_5 
REMARK    3  A    between atoms: C3_5  and  C4_6 
REMARK    4  A    between atoms: C4_6  and  C5_7 
REMARK    5  A    between atoms: C5_7  and  C6_8 
REMARK    6  A    between atoms: C6_8  and  C7_9 
REMARK    7  A    between atoms: C7_9  and  O4_11 
ROOT
HETATM    1  C5  UNL     1      25.117   0.919  53.075  1.00  0.00     0.051 A 
HETATM    2  C9  UNL     1      26.158   0.389  52.118  1.00  0.00     0.091 A 
HETATM    3  S1  UNL     1      27.014  -1.014  52.173  1.00  0.00    -0.064 SA
HETATM    4  N1  UNL     1      26.380   1.295  51.017  1.00  0.00    -0.349 N 
HETATM    5  C10 UNL     1      25.543   2.424  51.275  1.00  0.00     0.040 A 
HETATM    6  C11 UNL     1      25.447   3.563  50.504  1.00  0.00     0.030 A 
HETATM    7  C12 UNL     1      24.627   4.602  50.879  1.00  0.00     0.002 A 
HETATM    8  C13 UNL     1      23.907   4.468  52.047  1.00  0.00     0.001 A 
HETATM    9  C14 UNL     1      24.043   3.306  52.778  1.00  0.00     0.011 A 
HETATM   10  C15 UNL     1      24.847   2.234  52.451  1.00  0.00    -0.015 A 
HETATM   11  H13 UNL     1      27.016   1.162  50.202  1.00  0.00     0.166 HD
ENDROOT
BRANCH   1  12
HETATM   12  C4  UNL     1      23.975  -0.025  53.102  1.00  0.00     0.032 C 
BRANCH  12  13
HETATM   13  C3  UNL     1      23.729  -0.685  54.404  1.00  0.00     0.112 C 
BRANCH  13  14
HETATM   14  C2  UNL     1      22.247  -0.855  54.673  1.00  0.00     0.258 C 
HETATM   15  O2  UNL     1      22.064  -1.914  55.362  1.00  0.00    -0.265 OA
BRANCH  14  16
HETATM   16  O1  UNL     1      21.393   0.111  54.157  1.00  0.00    -0.326 OA
HETATM   17  C1  UNL     1      20.151  -0.283  53.614  1.00  0.00     0.213 C 
ENDBRANCH  14  16
ENDBRANCH  13  14
ENDBRANCH  12  13
ENDBRANCH   1  12
BRANCH   1  18
HETATM   18  C6  UNL     1      25.784   1.053  54.413  1.00  0.00     0.132 C 
BRANCH  18  19
HETATM   19  C7  UNL     1      27.085   1.765  54.299  1.00  0.00     0.259 C 
HETATM   20  O3  UNL     1      27.916   2.639  53.960  1.00  0.00    -0.265 OA
BRANCH  19  21
HETATM   21  O4  UNL     1      28.063   1.074  54.999  1.00  0.00    -0.326 OA
HETATM   22  C8  UNL     1      29.295   0.816  54.368  1.00  0.00     0.213 C 
ENDBRANCH  19  21
ENDBRANCH  18  19
ENDBRANCH   1  18
TORSDOF 7
ENDMDL
MODEL 8
REMARK VINA RESULT:      -6.3      3.956      6.056
REMARK  7 active torsions:
REMARK  status: ('A' for Active; 'I' for Inactive)
REMARK    1  A    between atoms: O1_2  and  C2_3 
REMARK    2  A    between atoms: C2_3  and  C3_5 
REMARK    3  A    between atoms: C3_5  and  C4_6 
REMARK    4  A    between atoms: C4_6  and  C5_7 
REMARK    5  A    between atoms: C5_7  and  C6_8 
REMARK    6  A    between atoms: C6_8  and  C7_9 
REMARK    7  A    between atoms: C7_9  and  O4_11 
ROOT
HETATM    1  C5  UNL     1      24.229   3.204  51.151  1.00  0.00     0.051 A 
HETATM    2  C9  UNL     1      23.262   4.347  51.355  1.00  0.00     0.091 A 
HETATM    3  S1  UNL     1      21.816   4.369  52.137  1.00  0.00    -0.064 SA
HETATM    4  N1  UNL     1      23.744   5.567  50.751  1.00  0.00    -0.349 N 
HETATM    5  C10 UNL     1      24.976   5.218  50.116  1.00  0.00     0.040 A 
HETATM    6  C11 UNL     1      25.782   6.063  49.381  1.00  0.00     0.030 A 
HETATM    7  C12 UNL     1      26.932   5.598  48.786  1.00  0.00     0.002 A 
HETATM    8  C13 UNL     1      27.250   4.266  48.946  1.00  0.00     0.001 A 
HETATM    9  C14 UNL     1      26.406   3.469  49.691  1.00  0.00     0.011 A 
HETATM   10  C15 UNL     1      25.244   3.880  50.311  1.00  0.00    -0.015 A 
HETATM   11  H13 UNL     1      23.294   6.506  50.771  1.00  0.00     0.166 HD
ENDROOT
BRANCH   1  12
HETATM   12  C4  UNL     1      24.699   2.740  52.478  1.00  0.00     0.032 C 
BRANCH  12  13
HETATM   13  C3  UNL     1      24.499   1.300  52.752  1.00  0.00     0.112 C 
BRANCH  13  14
HETATM   14  C2  UNL     1      25.818   0.578  52.937  1.00  0.00     0.258 C 
HETATM   15  O2  UNL     1      26.418   0.503  51.813  1.00  0.00    -0.265 OA
BRANCH  14  16
HETATM   16  O1  UNL     1      26.132   0.147  54.219  1.00  0.00    -0.326 OA
HETATM   17  C1  UNL     1      27.466   0.235  54.672  1.00  0.00     0.213 C 
ENDBRANCH  14  16
ENDBRANCH  13  14
ENDBRANCH  12  13
ENDBRANCH   1  12
BRANCH   1  18
HETATM   18  C6  UNL     1      23.489   2.138  50.397  1.00  0.00     0.132 C 
BRANCH  18  19
HETATM   19  C7  UNL     1      22.982   2.648  49.096  1.00  0.00     0.259 C 
HETATM   20  O3  UNL     1      22.786   3.438  48.143  1.00  0.00    -0.265 OA
BRANCH  19  21
HETATM   21  O4  UNL     1      22.225   1.668  48.468  1.00  0.00    -0.326 OA
HETATM   22  C8  UNL     1      21.105   1.142  49.140  1.00  0.00     0.213 C 
ENDBRANCH  19  21
ENDBRANCH  18  19
ENDBRANCH   1  18
TORSDOF 7
ENDMDL
MODEL 9
REMARK VINA RESULT:      -6.2      3.095      4.337
REMARK  7 active torsions:
REMARK  status: ('A' for Active; 'I' for Inactive)
REMARK    1  A    between atoms: O1_2  and  C2_3 
REMARK    2  A    between atoms: C2_3  and  C3_5 
REMARK    3  A    between atoms: C3_5  and  C4_6 
REMARK    4  A    between atoms: C4_6  and  C5_7 
REMARK    5  A    between atoms: C5_7  and  C6_8 
REMARK    6  A    between atoms: C6_8  and  C7_9 
REMARK    7  A    between atoms: C7_9  and  O4_11 
ROOT
HETATM    1  C5  UNL     1      23.149   1.928  51.809  1.00  0.00     0.051 A 
HETATM    2  C9  UNL     1      22.600   1.977  50.403  1.00  0.00     0.091 A 
HETATM    3  S1  UNL     1      23.174   2.772  49.082  1.00  0.00    -0.064 SA
HETATM    4  N1  UNL     1      21.401   1.185  50.270  1.00  0.00    -0.349 N 
HETATM    5  C10 UNL     1      21.135   0.672  51.578  1.00  0.00     0.040 A 
HETATM    6  C11 UNL     1      20.064  -0.117  51.942  1.00  0.00     0.030 A 
HETATM    7  C12 UNL     1      19.898  -0.520  53.247  1.00  0.00     0.002 A 
HETATM    8  C13 UNL     1      20.833  -0.111  54.175  1.00  0.00     0.001 A 
HETATM    9  C14 UNL     1      21.883   0.677  53.751  1.00  0.00     0.011 A 
HETATM   10  C15 UNL     1      22.100   1.110  52.460  1.00  0.00    -0.015 A 
HETATM   11  H13 UNL     1      20.841   1.019  49.407  1.00  0.00     0.166 HD
ENDROOT
BRANCH   1  12
HETATM   12  C4  UNL     1      24.502   1.324  51.769  1.00  0.00     0.032 C 
BRANCH  12  13
HETATM   13  C3  UNL     1      25.496   1.937  52.677  1.00  0.00     0.112 C 
BRANCH  13  14
HETATM   14  C2  UNL     1      26.782   2.277  51.951  1.00  0.00     0.258 C 
HETATM   15  O2  UNL     1      26.512   3.002  50.936  1.00  0.00    -0.265 OA
BRANCH  14  16
HETATM   16  O1  UNL     1      27.962   1.773  52.480  1.00  0.00    -0.326 OA
HETATM   17  C1  UNL     1      28.561   2.423  53.580  1.00  0.00     0.213 C 
ENDBRANCH  14  16
ENDBRANCH  13  14
ENDBRANCH  12  13
ENDBRANCH   1  12
BRANCH   1  18
HETATM   18  C6  UNL     1      23.164   3.339  52.319  1.00  0.00     0.132 C 
BRANCH  18  19
HETATM   19  C7  UNL     1      21.804   3.941  52.288  1.00  0.00     0.259 C 
HETATM   20  O3  UNL     1      20.558   4.023  52.380  1.00  0.00    -0.265 OA
BRANCH  19  21
HETATM   21  O4  UNL     1      21.889   5.280  51.934  1.00  0.00    -0.326 OA
HETATM   22  C8  UNL     1      23.101   5.768  51.409  1.00  0.00     0.213 C 
ENDBRANCH  19  21
ENDBRANCH  18  19
ENDBRANCH   1  18
TORSDOF 7
ENDMDL
