MODEL 1
REMARK VINA RESULT:      -8.1      0.000      0.000
REMARK  3 active torsions:
REMARK  status: ('A' for Active; 'I' for Inactive)
REMARK       I    between atoms: C1_2  and  N1_3 
REMARK       I    between atoms: C1_2  and  N3_11 
REMARK    1  A    between atoms: N1_3  and  C2_4 
REMARK    2  A    between atoms: N3_11  and  S1_12 
REMARK    3  A    between atoms: S1_12  and  C7_15 
ROOT
HETATM    1  O1  UNL     1      26.414   1.662  51.130  1.00  0.00    -0.246 OA
HETATM    2  C1  UNL     1      26.125   2.263  52.200  1.00  0.00     0.334 C 
HETATM    3  N1  UNL     1      26.773   1.733  53.374  1.00  0.00    -0.305 N 
HETATM    4  N3  UNL     1      25.245   3.381  52.349  1.00  0.00    -0.232 N 
HETATM    5  H1  UNL     1      26.628   2.134  54.341  1.00  0.00     0.171 HD
HETATM    6  H5  UNL     1      25.102   3.775  53.305  1.00  0.00     0.183 HD
ENDROOT
BRANCH   4   7
HETATM    7  S1  UNL     1      24.568   3.864  50.819  1.00  0.00     0.266 S 
HETATM    8  O2  UNL     1      23.415   4.791  51.172  1.00  0.00    -0.200 OA
HETATM    9  O3  UNL     1      24.083   2.663  50.056  1.00  0.00    -0.200 OA
BRANCH   7  10
HETATM   10  C7  UNL     1      25.739   4.776  49.897  1.00  0.00     0.080 A 
HETATM   11  C8  UNL     1      26.804   4.110  49.296  1.00  0.00     0.027 A 
HETATM   12  C9  UNL     1      27.721   4.874  48.565  1.00  0.00     0.025 A 
HETATM   13  C10 UNL     1      27.536   6.239  48.471  1.00  0.00     0.034 A 
HETATM   14 CL2  UNL     1      28.724   7.148  47.538  1.00  0.00    -0.084 Cl
HETATM   15  C11 UNL     1      26.479   6.909  49.066  1.00  0.00     0.025 A 
HETATM   16  C12 UNL     1      25.560   6.149  49.796  1.00  0.00     0.027 A 
ENDBRANCH   7  10
ENDBRANCH   4   7
BRANCH   3  17
HETATM   17  C2  UNL     1      27.674   0.632  53.407  1.00  0.00     0.077 A 
HETATM   18  C3  UNL     1      29.055   0.821  53.499  1.00  0.00     0.034 A 
HETATM   19  C4  UNL     1      29.984  -0.198  53.535  1.00  0.00     0.022 A 
HETATM   20  C5  UNL     1      29.459  -1.481  53.472  1.00  0.00     0.118 A 
HETATM   21  N2  UNL     1      28.128  -1.728  53.383  1.00  0.00    -0.246 NA
HETATM   22  C6  UNL     1      27.262  -0.695  53.351  1.00  0.00     0.152 A 
HETATM   23 CL1  UNL     1      25.541  -0.999  53.234  1.00  0.00    -0.060 Cl
ENDBRANCH   3  17
TORSDOF 3
ENDMDL
MODEL 2
REMARK VINA RESULT:      -8.1      0.128      1.072
REMARK  3 active torsions:
REMARK  status: ('A' for Active; 'I' for Inactive)
REMARK       I    between atoms: C1_2  and  N1_3 
REMARK       I    between atoms: C1_2  and  N3_11 
REMARK    1  A    between atoms: N1_3  and  C2_4 
REMARK    2  A    between atoms: N3_11  and  S1_12 
REMARK    3  A    between atoms: S1_12  and  C7_15 
ROOT
HETATM    1  O1  UNL     1      26.402   1.573  51.207  1.00  0.00    -0.246 OA
HETATM    2  C1  UNL     1      26.156   2.191  52.277  1.00  0.00     0.334 C 
HETATM    3  N1  UNL     1      26.846   1.677  53.434  1.00  0.00    -0.305 N 
HETATM    4  N3  UNL     1      25.286   3.315  52.442  1.00  0.00    -0.232 N 
HETATM    5  H1  UNL     1      26.738   2.093  54.399  1.00  0.00     0.171 HD
HETATM    6  H5  UNL     1      25.180   3.725  53.396  1.00  0.00     0.183 HD
ENDROOT
BRANCH   4   7
HETATM    7  S1  UNL     1      24.553   3.778  50.932  1.00  0.00     0.266 S 
HETATM    8  O2  UNL     1      23.369   4.650  51.317  1.00  0.00    -0.200 OA
HETATM    9  O3  UNL     1      24.104   2.561  50.170  1.00  0.00    -0.200 OA
BRANCH   7  10
HETATM   10  C7  UNL     1      25.661   4.745  49.989  1.00  0.00     0.080 A 
HETATM   11  C8  UNL     1      25.460   6.120  49.897  1.00  0.00     0.027 A 
HETATM   12  C9  UNL     1      26.368   6.862  49.132  1.00  0.00     0.025 A 
HETATM   13  C10 UNL     1      27.413   6.210  48.508  1.00  0.00     0.034 A 
HETATM   14 CL2  UNL     1      28.524   7.197  47.560  1.00  0.00    -0.084 Cl
HETATM   15  C11 UNL     1      27.620   4.842  48.596  1.00  0.00     0.025 A 
HETATM   16  C12 UNL     1      26.715   4.097  49.359  1.00  0.00     0.027 A 
ENDBRANCH   7  10
ENDBRANCH   4   7
BRANCH   3  17
HETATM   17  C2  UNL     1      27.743   0.573  53.451  1.00  0.00     0.077 A 
HETATM   18  C3  UNL     1      29.125   0.756  53.550  1.00  0.00     0.034 A 
HETATM   19  C4  UNL     1      30.050  -0.267  53.570  1.00  0.00     0.022 A 
HETATM   20  C5  UNL     1      29.522  -1.547  53.484  1.00  0.00     0.118 A 
HETATM   21  N2  UNL     1      28.190  -1.789  53.386  1.00  0.00    -0.246 NA
HETATM   22  C6  UNL     1      27.328  -0.752  53.370  1.00  0.00     0.152 A 
HETATM   23 CL1  UNL     1      25.605  -1.048  53.243  1.00  0.00    -0.060 Cl
ENDBRANCH   3  17
TORSDOF 3
ENDMDL
MODEL 3
REMARK VINA RESULT:      -7.6      3.395      5.181
REMARK  3 active torsions:
REMARK  status: ('A' for Active; 'I' for Inactive)
REMARK       I    between atoms: C1_2  and  N1_3 
REMARK       I    between atoms: C1_2  and  N3_11 
REMARK    1  A    between atoms: N1_3  and  C2_4 
REMARK    2  A    between atoms: N3_11  and  S1_12 
REMARK    3  A    between atoms: S1_12  and  C7_15 
ROOT
HETATM    1  O1  UNL     1      25.031   2.609  52.858  1.00  0.00    -0.246 OA
HETATM    2  C1  UNL     1      25.492   2.501  51.689  1.00  0.00     0.334 C 
HETATM    3  N1  UNL     1      26.763   1.823  51.611  1.00  0.00    -0.305 N 
HETATM    4  N3  UNL     1      24.892   2.972  50.479  1.00  0.00    -0.232 N 
HETATM    5  H1  UNL     1      27.270   1.658  50.700  1.00  0.00     0.171 HD
HETATM    6  H5  UNL     1      25.395   2.808  49.579  1.00  0.00     0.183 HD
ENDROOT
BRANCH   4   7
HETATM    7  S1  UNL     1      23.369   3.758  50.790  1.00  0.00     0.266 S 
HETATM    8  O2  UNL     1      22.936   4.327  49.448  1.00  0.00    -0.200 OA
HETATM    9  O3  UNL     1      23.540   4.849  51.811  1.00  0.00    -0.200 OA
BRANCH   7  10
HETATM   10  C7  UNL     1      22.174   2.590  51.300  1.00  0.00     0.080 A 
HETATM   11  C8  UNL     1      21.261   2.936  52.293  1.00  0.00     0.027 A 
HETATM   12  C9  UNL     1      20.319   1.973  52.675  1.00  0.00     0.025 A 
HETATM   13  C10 UNL     1      20.332   0.737  52.061  1.00  0.00     0.034 A 
HETATM   14 CL2  UNL     1      19.122  -0.432  52.585  1.00  0.00    -0.084 Cl
HETATM   15  C11 UNL     1      21.237   0.386  51.072  1.00  0.00     0.025 A 
HETATM   16  C12 UNL     1      22.180   1.345  50.687  1.00  0.00     0.027 A 
ENDBRANCH   7  10
ENDBRANCH   4   7
BRANCH   3  17
HETATM   17  C2  UNL     1      27.496   1.293  52.709  1.00  0.00     0.077 A 
HETATM   18  C3  UNL     1      28.423   2.069  53.410  1.00  0.00     0.034 A 
HETATM   19  C4  UNL     1      29.168   1.621  54.481  1.00  0.00     0.022 A 
HETATM   20  C5  UNL     1      28.946   0.301  54.847  1.00  0.00     0.118 A 
HETATM   21  N2  UNL     1      28.060  -0.502  54.206  1.00  0.00    -0.246 NA
HETATM   22  C6  UNL     1      27.356  -0.013  53.164  1.00  0.00     0.152 A 
HETATM   23 CL1  UNL     1      26.209  -1.039  52.325  1.00  0.00    -0.060 Cl
ENDBRANCH   3  17
TORSDOF 3
ENDMDL
MODEL 4
REMARK VINA RESULT:      -7.4      1.587      1.922
REMARK  3 active torsions:
REMARK  status: ('A' for Active; 'I' for Inactive)
REMARK       I    between atoms: C1_2  and  N1_3 
REMARK       I    between atoms: C1_2  and  N3_11 
REMARK    1  A    between atoms: N1_3  and  C2_4 
REMARK    2  A    between atoms: N3_11  and  S1_12 
REMARK    3  A    between atoms: S1_12  and  C7_15 
ROOT
HETATM    1  O1  UNL     1      25.467   2.400  50.983  1.00  0.00    -0.246 OA
HETATM    2  C1  UNL     1      25.158   2.893  52.102  1.00  0.00     0.334 C 
HETATM    3  N1  UNL     1      25.696   2.180  53.234  1.00  0.00    -0.305 N 
HETATM    4  N3  UNL     1      24.353   4.051  52.340  1.00  0.00    -0.232 N 
HETATM    5  H1  UNL     1      25.522   2.476  54.234  1.00  0.00     0.171 HD
HETATM    6  H5  UNL     1      24.182   4.341  53.328  1.00  0.00     0.183 HD
ENDROOT
BRANCH   4   7
HETATM    7  S1  UNL     1      23.805   4.761  50.847  1.00  0.00     0.266 S 
HETATM    8  O2  UNL     1      22.683   5.706  51.247  1.00  0.00    -0.200 OA
HETATM    9  O3  UNL     1      23.308   3.696  49.909  1.00  0.00    -0.200 OA
BRANCH   7  10
HETATM   10  C7  UNL     1      25.081   5.706  50.118  1.00  0.00     0.080 A 
HETATM   11  C8  UNL     1      25.906   5.120  49.162  1.00  0.00     0.027 A 
HETATM   12  C9  UNL     1      26.917   5.908  48.601  1.00  0.00     0.025 A 
HETATM   13  C10 UNL     1      27.055   7.219  49.013  1.00  0.00     0.034 A 
HETATM   14 CL2  UNL     1      28.346   8.161  48.271  1.00  0.00    -0.084 Cl
HETATM   15  C11 UNL     1      26.239   7.810  49.964  1.00  0.00     0.025 A 
HETATM   16  C12 UNL     1      25.227   7.025  50.526  1.00  0.00     0.027 A 
ENDBRANCH   7  10
ENDBRANCH   4   7
BRANCH   3  17
HETATM   17  C2  UNL     1      26.511   1.016  53.180  1.00  0.00     0.077 A 
HETATM   18  C3  UNL     1      25.966  -0.247  52.930  1.00  0.00     0.034 A 
HETATM   19  C4  UNL     1      26.696  -1.415  52.864  1.00  0.00     0.022 A 
HETATM   20  C5  UNL     1      28.061  -1.274  53.068  1.00  0.00     0.118 A 
HETATM   21  N2  UNL     1      28.649  -0.076  53.314  1.00  0.00    -0.246 NA
HETATM   22  C6  UNL     1      27.889   1.037  53.368  1.00  0.00     0.152 A 
HETATM   23 CL1  UNL     1      28.633   2.591  53.686  1.00  0.00    -0.060 Cl
ENDBRANCH   3  17
TORSDOF 3
ENDMDL
MODEL 5
REMARK VINA RESULT:      -7.4      2.288      2.913
REMARK  3 active torsions:
REMARK  status: ('A' for Active; 'I' for Inactive)
REMARK       I    between atoms: C1_2  and  N1_3 
REMARK       I    between atoms: C1_2  and  N3_11 
REMARK    1  A    between atoms: N1_3  and  C2_4 
REMARK    2  A    between atoms: N3_11  and  S1_12 
REMARK    3  A    between atoms: S1_12  and  C7_15 
ROOT
HETATM    1  O1  UNL     1      24.767   2.852  50.518  1.00  0.00    -0.246 OA
HETATM    2  C1  UNL     1      24.685   3.759  51.389  1.00  0.00     0.334 C 
HETATM    3  N1  UNL     1      24.727   3.283  52.750  1.00  0.00    -0.305 N 
HETATM    4  N3  UNL     1      24.558   5.166  51.159  1.00  0.00    -0.232 N 
HETATM    5  H1  UNL     1      24.669   3.927  53.585  1.00  0.00     0.171 HD
HETATM    6  H5  UNL     1      24.500   5.800  51.986  1.00  0.00     0.183 HD
ENDROOT
BRANCH   4   7
HETATM    7  S1  UNL     1      24.525   5.530  49.457  1.00  0.00     0.266 S 
HETATM    8  O2  UNL     1      23.729   6.821  49.344  1.00  0.00    -0.200 OA
HETATM    9  O3  UNL     1      23.863   4.417  48.693  1.00  0.00    -0.200 OA
BRANCH   7  10
HETATM   10  C7  UNL     1      26.142   5.832  48.868  1.00  0.00     0.080 A 
HETATM   11  C8  UNL     1      27.083   4.806  48.898  1.00  0.00     0.027 A 
HETATM   12  C9  UNL     1      28.368   5.086  48.418  1.00  0.00     0.025 A 
HETATM   13  C10 UNL     1      28.647   6.351  47.940  1.00  0.00     0.034 A 
HETATM   14 CL2  UNL     1      30.282   6.643  47.350  1.00  0.00    -0.084 Cl
HETATM   15  C11 UNL     1      27.716   7.377  47.907  1.00  0.00     0.025 A 
HETATM   16  C12 UNL     1      26.431   7.101  48.385  1.00  0.00     0.027 A 
ENDBRANCH   7  10
ENDBRANCH   4   7
BRANCH   3  17
HETATM   17  C2  UNL     1      24.850   1.925  53.157  1.00  0.00     0.077 A 
HETATM   18  C3  UNL     1      23.746   1.068  53.184  1.00  0.00     0.034 A 
HETATM   19  C4  UNL     1      23.793  -0.255  53.567  1.00  0.00     0.022 A 
HETATM   20  C5  UNL     1      25.045  -0.720  53.945  1.00  0.00     0.118 A 
HETATM   21  N2  UNL     1      26.153   0.063  53.940  1.00  0.00    -0.246 NA
HETATM   22  C6  UNL     1      26.052   1.351  53.555  1.00  0.00     0.152 A 
HETATM   23 CL1  UNL     1      27.474   2.375  53.545  1.00  0.00    -0.060 Cl
ENDBRANCH   3  17
TORSDOF 3
ENDMDL
MODEL 6
REMARK VINA RESULT:      -7.3      1.963      2.403
REMARK  3 active torsions:
REMARK  status: ('A' for Active; 'I' for Inactive)
REMARK       I    between atoms: C1_2  and  N1_3 
REMARK       I    between atoms: C1_2  and  N3_11 
REMARK    1  A    between atoms: N1_3  and  C2_4 
REMARK    2  A    between atoms: N3_11  and  S1_12 
REMARK    3  A    between atoms: S1_12  and  C7_15 
ROOT
HETATM    1  O1  UNL     1      24.910   2.764  52.760  1.00  0.00    -0.246 OA
HETATM    2  C1  UNL     1      24.694   1.867  51.901  1.00  0.00     0.334 C 
HETATM    3  N1  UNL     1      25.545   0.709  52.022  1.00  0.00    -0.305 N 
HETATM    4  N3  UNL     1      23.718   1.894  50.855  1.00  0.00    -0.232 N 
HETATM    5  H1  UNL     1      25.479  -0.122  51.373  1.00  0.00     0.171 HD
HETATM    6  H5  UNL     1      23.655   1.072  50.214  1.00  0.00     0.183 HD
ENDROOT
BRANCH   4   7
HETATM    7  S1  UNL     1      22.799   3.373  50.882  1.00  0.00     0.266 S 
HETATM    8  O2  UNL     1      22.236   3.463  52.292  1.00  0.00    -0.200 OA
HETATM    9  O3  UNL     1      21.697   3.326  49.860  1.00  0.00    -0.200 OA
BRANCH   7  10
HETATM   10  C7  UNL     1      23.848   4.746  50.624  1.00  0.00     0.080 A 
HETATM   11  C8  UNL     1      23.683   5.888  51.402  1.00  0.00     0.027 A 
HETATM   12  C9  UNL     1      24.542   6.968  51.166  1.00  0.00     0.025 A 
HETATM   13  C10 UNL     1      25.505   6.859  50.183  1.00  0.00     0.034 A 
HETATM   14 CL2  UNL     1      26.557   8.251  49.932  1.00  0.00    -0.084 Cl
HETATM   15  C11 UNL     1      25.676   5.726  49.404  1.00  0.00     0.025 A 
HETATM   16  C12 UNL     1      24.820   4.645  49.637  1.00  0.00     0.027 A 
ENDBRANCH   7  10
ENDBRANCH   4   7
BRANCH   3  17
HETATM   17  C2  UNL     1      26.562   0.518  52.998  1.00  0.00     0.077 A 
HETATM   18  C3  UNL     1      27.864   0.984  52.797  1.00  0.00     0.034 A 
HETATM   19  C4  UNL     1      28.897   0.833  53.698  1.00  0.00     0.022 A 
HETATM   20  C5  UNL     1      28.570   0.164  54.869  1.00  0.00     0.118 A 
HETATM   21  N2  UNL     1      27.325  -0.312  55.122  1.00  0.00    -0.246 NA
HETATM   22  C6  UNL     1      26.350  -0.137  54.207  1.00  0.00     0.152 A 
HETATM   23 CL1  UNL     1      24.737  -0.747  54.518  1.00  0.00    -0.060 Cl
ENDBRANCH   3  17
TORSDOF 3
ENDMDL
MODEL 7
REMARK VINA RESULT:      -7.3      2.630      6.758
REMARK  3 active torsions:
REMARK  status: ('A' for Active; 'I' for Inactive)
REMARK       I    between atoms: C1_2  and  N1_3 
REMARK       I    between atoms: C1_2  and  N3_11 
REMARK    1  A    between atoms: N1_3  and  C2_4 
REMARK    2  A    between atoms: N3_11  and  S1_12 
REMARK    3  A    between atoms: S1_12  and  C7_15 
ROOT
HETATM    1  O1  UNL     1      25.841   3.523  51.640  1.00  0.00    -0.246 OA
HETATM    2  C1  UNL     1      25.112   2.958  50.780  1.00  0.00     0.334 C 
HETATM    3  N1  UNL     1      25.192   3.534  49.461  1.00  0.00    -0.305 N 
HETATM    4  N3  UNL     1      24.246   1.838  50.988  1.00  0.00    -0.232 N 
HETATM    5  H1  UNL     1      24.640   3.167  48.639  1.00  0.00     0.171 HD
HETATM    6  H5  UNL     1      23.700   1.477  50.175  1.00  0.00     0.183 HD
ENDROOT
BRANCH   4   7
HETATM    7  S1  UNL     1      24.295   1.295  52.641  1.00  0.00     0.266 S 
HETATM    8  O2  UNL     1      23.253   0.191  52.726  1.00  0.00    -0.200 OA
HETATM    9  O3  UNL     1      23.963   2.426  53.576  1.00  0.00    -0.200 OA
BRANCH   7  10
HETATM   10  C7  UNL     1      25.856   0.603  53.009  1.00  0.00     0.080 A 
HETATM   11  C8  UNL     1      26.284  -0.525  52.315  1.00  0.00     0.027 A 
HETATM   12  C9  UNL     1      27.540  -1.051  52.637  1.00  0.00     0.025 A 
HETATM   13  C10 UNL     1      28.295  -0.439  53.619  1.00  0.00     0.034 A 
HETATM   14 CL2  UNL     1      29.868  -1.148  53.981  1.00  0.00    -0.084 Cl
HETATM   15  C11 UNL     1      27.875   0.684  54.314  1.00  0.00     0.025 A 
HETATM   16  C12 UNL     1      26.621   1.213  53.994  1.00  0.00     0.027 A 
ENDBRANCH   7  10
ENDBRANCH   4   7
BRANCH   3  17
HETATM   17  C2  UNL     1      25.998   4.644  49.081  1.00  0.00     0.077 A 
HETATM   18  C3  UNL     1      27.357   4.494  48.793  1.00  0.00     0.034 A 
HETATM   19  C4  UNL     1      28.196   5.524  48.419  1.00  0.00     0.022 A 
HETATM   20  C5  UNL     1      27.600   6.775  48.339  1.00  0.00     0.118 A 
HETATM   21  N2  UNL     1      26.286   6.983  48.606  1.00  0.00    -0.246 NA
HETATM   22  C6  UNL     1      25.510   5.941  48.967  1.00  0.00     0.152 A 
HETATM   23 CL1  UNL     1      23.812   6.194  49.317  1.00  0.00    -0.060 Cl
ENDBRANCH   3  17
TORSDOF 3
ENDMDL
MODEL 8
REMARK VINA RESULT:      -7.0      2.237      2.808
REMARK  3 active torsions:
REMARK  status: ('A' for Active; 'I' for Inactive)
REMARK       I    between atoms: C1_2  and  N1_3 
REMARK       I    between atoms: C1_2  and  N3_11 
REMARK    1  A    between atoms: N1_3  and  C2_4 
REMARK    2  A    between atoms: N3_11  and  S1_12 
REMARK    3  A    between atoms: S1_12  and  C7_15 
ROOT
HETATM    1  O1  UNL     1      24.448   3.592  50.894  1.00  0.00    -0.246 OA
HETATM    2  C1  UNL     1      24.243   4.220  51.968  1.00  0.00     0.334 C 
HETATM    3  N1  UNL     1      24.464   3.444  53.163  1.00  0.00    -0.305 N 
HETATM    4  N3  UNL     1      23.826   5.582  52.103  1.00  0.00    -0.232 N 
HETATM    5  H1  UNL     1      24.332   3.836  54.135  1.00  0.00     0.171 HD
HETATM    6  H5  UNL     1      23.696   5.968  53.064  1.00  0.00     0.183 HD
ENDROOT
BRANCH   4   7
HETATM    7  S1  UNL     1      23.616   6.339  50.548  1.00  0.00     0.266 S 
HETATM    8  O2  UNL     1      22.873   7.634  50.837  1.00  0.00    -0.200 OA
HETATM    9  O3  UNL     1      22.819   5.450  49.634  1.00  0.00    -0.200 OA
BRANCH   7  10
HETATM   10  C7  UNL     1      25.167   6.741  49.852  1.00  0.00     0.080 A 
HETATM   11  C8  UNL     1      25.759   5.863  48.949  1.00  0.00     0.027 A 
HETATM   12  C9  UNL     1      27.002   6.220  48.412  1.00  0.00     0.025 A 
HETATM   13  C10 UNL     1      27.583   7.412  48.796  1.00  0.00     0.034 A 
HETATM   14 CL2  UNL     1      29.148   7.806  48.087  1.00  0.00    -0.084 Cl
HETATM   15  C11 UNL     1      27.000   8.291  49.694  1.00  0.00     0.025 A 
HETATM   16  C12 UNL     1      25.758   7.938  50.232  1.00  0.00     0.027 A 
ENDBRANCH   7  10
ENDBRANCH   4   7
BRANCH   3  17
HETATM   17  C2  UNL     1      24.878   2.084  53.212  1.00  0.00     0.077 A 
HETATM   18  C3  UNL     1      26.223   1.734  53.358  1.00  0.00     0.034 A 
HETATM   19  C4  UNL     1      26.694   0.439  53.413  1.00  0.00     0.022 A 
HETATM   20  C5  UNL     1      25.725  -0.549  53.309  1.00  0.00     0.118 A 
HETATM   21  N2  UNL     1      24.405  -0.273  53.165  1.00  0.00    -0.246 NA
HETATM   22  C6  UNL     1      23.997   1.012  53.118  1.00  0.00     0.152 A 
HETATM   23 CL1  UNL     1      22.295   1.384  52.932  1.00  0.00    -0.060 Cl
ENDBRANCH   3  17
TORSDOF 3
ENDMDL
MODEL 9
REMARK VINA RESULT:      -6.8      4.625      5.974
REMARK  3 active torsions:
REMARK  status: ('A' for Active; 'I' for Inactive)
REMARK       I    between atoms: C1_2  and  N1_3 
REMARK       I    between atoms: C1_2  and  N3_11 
REMARK    1  A    between atoms: N1_3  and  C2_4 
REMARK    2  A    between atoms: N3_11  and  S1_12 
REMARK    3  A    between atoms: S1_12  and  C7_15 
ROOT
HETATM    1  O1  UNL     1      21.070   2.772  52.184  1.00  0.00    -0.246 OA
HETATM    2  C1  UNL     1      21.843   2.027  51.523  1.00  0.00     0.334 C 
HETATM    3  N1  UNL     1      21.375   0.672  51.369  1.00  0.00    -0.305 N 
HETATM    4  N3  UNL     1      23.096   2.390  50.936  1.00  0.00    -0.232 N 
HETATM    5  H1  UNL     1      21.916  -0.066  50.841  1.00  0.00     0.171 HD
HETATM    6  H5  UNL     1      23.630   1.659  50.415  1.00  0.00     0.183 HD
ENDROOT
BRANCH   4   7
HETATM    7  S1  UNL     1      23.477   4.062  51.236  1.00  0.00     0.266 S 
HETATM    8  O2  UNL     1      23.808   4.132  52.719  1.00  0.00    -0.200 OA
HETATM    9  O3  UNL     1      22.302   4.938  50.902  1.00  0.00    -0.200 OA
BRANCH   7  10
HETATM   10  C7  UNL     1      24.899   4.534  50.336  1.00  0.00     0.080 A 
HETATM   11  C8  UNL     1      25.096   5.876  50.024  1.00  0.00     0.027 A 
HETATM   12  C9  UNL     1      26.246   6.215  49.302  1.00  0.00     0.025 A 
HETATM   13  C10 UNL     1      27.127   5.218  48.932  1.00  0.00     0.034 A 
HETATM   14 CL2  UNL     1      28.557   5.706  48.024  1.00  0.00    -0.084 Cl
HETATM   15  C11 UNL     1      26.938   3.880  49.239  1.00  0.00     0.025 A 
HETATM   16  C12 UNL     1      25.790   3.538  49.961  1.00  0.00     0.027 A 
ENDBRANCH   7  10
ENDBRANCH   4   7
BRANCH   3  17
HETATM   17  C2  UNL     1      20.159   0.143  51.885  1.00  0.00     0.077 A 
HETATM   18  C3  UNL     1      18.970   0.197  51.153  1.00  0.00     0.034 A 
HETATM   19  C4  UNL     1      17.758  -0.294  51.591  1.00  0.00     0.022 A 
HETATM   20  C5  UNL     1      17.773  -0.871  52.853  1.00  0.00     0.118 A 
HETATM   21  N2  UNL     1      18.895  -0.953  53.612  1.00  0.00    -0.246 NA
HETATM   22  C6  UNL     1      20.055  -0.457  53.136  1.00  0.00     0.152 A 
HETATM   23 CL1  UNL     1      21.512  -0.555  54.104  1.00  0.00    -0.060 Cl
ENDBRANCH   3  17
TORSDOF 3
ENDMDL
