MODEL 1
REMARK VINA RESULT:      -6.6      0.000      0.000
REMARK  2 active torsions:
REMARK  status: ('A' for Active; 'I' for Inactive)
REMARK    1  A    between atoms: O1_2  and  C2_3 
REMARK    2  A    between atoms: N3_10  and  C7_11 
ROOT
HETATM    1  C2  UNL     1      24.047   4.142  50.504  1.00  0.00     0.048 C 
HETATM    2  C3  UNL     1      23.900   3.248  49.514  1.00  0.00     0.051 C 
HETATM    3  C4  UNL     1      22.974   2.188  49.084  1.00  0.00     0.120 C 
HETATM    4  N1  UNL     1      21.885   1.507  49.360  1.00  0.00    -0.254 NA
HETATM    5  C5  UNL     1      21.218   1.856  50.590  1.00  0.00     0.228 C 
HETATM    6  N2  UNL     1      22.193   1.770  51.348  1.00  0.00    -0.263 NA
HETATM    7  C6  UNL     1      22.514   1.930  52.698  1.00  0.00     0.274 C 
HETATM    8  N3  UNL     1      23.884   2.423  52.874  1.00  0.00    -0.362 N 
HETATM    9  C13 UNL     1      23.720   3.864  52.962  1.00  0.00     0.131 C 
HETATM   10  C14 UNL     1      23.187   4.426  51.672  1.00  0.00     0.084 C 
ENDROOT
BRANCH   8  11
HETATM   11  C7  UNL     1      25.080   1.660  52.875  1.00  0.00     0.033 A 
HETATM   12  C8  UNL     1      25.146   0.336  52.501  1.00  0.00     0.032 A 
HETATM   13  C9  UNL     1      26.352  -0.331  52.538  1.00  0.00     0.046 A 
HETATM   14  C10 UNL     1      27.506   0.312  52.947  1.00  0.00     0.138 A 
HETATM   15  F1  UNL     1      28.662  -0.391  52.964  1.00  0.00    -0.204 F 
HETATM   16  C11 UNL     1      27.411   1.636  53.318  1.00  0.00     0.074 A 
HETATM   17 CL1  UNL     1      28.920   2.367  53.821  1.00  0.00    -0.081 Cl
HETATM   18  C12 UNL     1      26.205   2.338  53.291  1.00  0.00     0.056 A 
ENDBRANCH   8  11
BRANCH   1  19
HETATM   19  O1  UNL     1      25.208   4.937  50.389  1.00  0.00    -0.360 OA
HETATM   20  C1  UNL     1      26.240   4.441  49.560  1.00  0.00     0.209 C 
ENDBRANCH   1  19
TORSDOF 2
ENDMDL
MODEL 2
REMARK VINA RESULT:      -6.6      1.488      1.713
REMARK  2 active torsions:
REMARK  status: ('A' for Active; 'I' for Inactive)
REMARK    1  A    between atoms: O1_2  and  C2_3 
REMARK    2  A    between atoms: N3_10  and  C7_11 
ROOT
HETATM    1  C2  UNL     1      24.312   4.295  50.112  1.00  0.00     0.048 C 
HETATM    2  C3  UNL     1      23.966   3.379  49.194  1.00  0.00     0.051 C 
HETATM    3  C4  UNL     1      22.759   2.753  48.629  1.00  0.00     0.120 C 
HETATM    4  N1  UNL     1      21.449   2.667  48.669  1.00  0.00    -0.254 NA
HETATM    5  C5  UNL     1      20.793   3.493  49.654  1.00  0.00     0.228 C 
HETATM    6  N2  UNL     1      21.454   3.145  50.642  1.00  0.00    -0.263 NA
HETATM    7  C6  UNL     1      21.545   3.406  52.011  1.00  0.00     0.274 C 
HETATM    8  N3  UNL     1      22.926   3.292  52.492  1.00  0.00    -0.362 N 
HETATM    9  C13 UNL     1      23.428   4.654  52.416  1.00  0.00     0.131 C 
HETATM   10  C14 UNL     1      23.472   5.133  50.991  1.00  0.00     0.084 C 
ENDROOT
BRANCH   8  11
HETATM   11  C7  UNL     1      23.613   2.108  52.864  1.00  0.00     0.033 A 
HETATM   12  C8  UNL     1      23.025   0.863  52.914  1.00  0.00     0.032 A 
HETATM   13  C9  UNL     1      23.769  -0.235  53.292  1.00  0.00     0.046 A 
HETATM   14  C10 UNL     1      25.104  -0.107  53.625  1.00  0.00     0.138 A 
HETATM   15  F1  UNL     1      25.785  -1.218  53.989  1.00  0.00    -0.204 F 
HETATM   16  C11 UNL     1      25.666   1.151  53.567  1.00  0.00     0.074 A 
HETATM   17 CL1  UNL     1      27.360   1.217  54.005  1.00  0.00    -0.081 Cl
HETATM   18  C12 UNL     1      24.941   2.280  53.188  1.00  0.00     0.056 A 
ENDBRANCH   8  11
BRANCH   1  19
HETATM   19  O1  UNL     1      25.707   4.482  50.235  1.00  0.00    -0.360 OA
HETATM   20  C1  UNL     1      26.525   3.360  49.971  1.00  0.00     0.209 C 
ENDBRANCH   1  19
TORSDOF 2
ENDMDL
MODEL 3
REMARK VINA RESULT:      -6.5      3.137      4.620
REMARK  2 active torsions:
REMARK  status: ('A' for Active; 'I' for Inactive)
REMARK    1  A    between atoms: O1_2  and  C2_3 
REMARK    2  A    between atoms: N3_10  and  C7_11 
ROOT
HETATM    1  C2  UNL     1      20.354   3.499  51.587  1.00  0.00     0.048 C 
HETATM    2  C3  UNL     1      21.186   4.247  52.328  1.00  0.00     0.051 C 
HETATM    3  C4  UNL     1      22.533   4.836  52.258  1.00  0.00     0.120 C 
HETATM    4  N1  UNL     1      23.637   4.964  51.558  1.00  0.00    -0.254 NA
HETATM    5  C5  UNL     1      23.664   4.273  50.291  1.00  0.00     0.228 C 
HETATM    6  N2  UNL     1      23.330   3.152  50.696  1.00  0.00    -0.263 NA
HETATM    7  C6  UNL     1      23.089   1.867  50.204  1.00  0.00     0.274 C 
HETATM    8  N3  UNL     1      22.042   1.183  50.971  1.00  0.00    -0.362 N 
HETATM    9  C13 UNL     1      20.829   1.467  50.222  1.00  0.00     0.131 C 
HETATM   10  C14 UNL     1      20.523   2.940  50.230  1.00  0.00     0.084 C 
ENDROOT
BRANCH   8  11
HETATM   11  C7  UNL     1      22.190   0.481  52.195  1.00  0.00     0.033 A 
HETATM   12  C8  UNL     1      21.132   0.027  52.952  1.00  0.00     0.032 A 
HETATM   13  C9  UNL     1      21.368  -0.643  54.133  1.00  0.00     0.046 A 
HETATM   14  C10 UNL     1      22.658  -0.868  54.575  1.00  0.00     0.138 A 
HETATM   15  F1  UNL     1      22.831  -1.531  55.742  1.00  0.00    -0.204 F 
HETATM   16  C11 UNL     1      23.697  -0.403  53.799  1.00  0.00     0.074 A 
HETATM   17 CL1  UNL     1      25.294  -0.734  54.436  1.00  0.00    -0.081 Cl
HETATM   18  C12 UNL     1      23.491   0.278  52.599  1.00  0.00     0.056 A 
ENDBRANCH   8  11
BRANCH   1  19
HETATM   19  O1  UNL     1      19.120   3.222  52.216  1.00  0.00    -0.360 OA
HETATM   20  C1  UNL     1      17.950   3.539  51.489  1.00  0.00     0.209 C 
ENDBRANCH   1  19
TORSDOF 2
ENDMDL
MODEL 4
REMARK VINA RESULT:      -6.3      2.429      3.831
REMARK  2 active torsions:
REMARK  status: ('A' for Active; 'I' for Inactive)
REMARK    1  A    between atoms: O1_2  and  C2_3 
REMARK    2  A    between atoms: N3_10  and  C7_11 
ROOT
HETATM    1  C2  UNL     1      22.771   4.712  50.339  1.00  0.00     0.048 C 
HETATM    2  C3  UNL     1      23.185   5.702  51.145  1.00  0.00     0.051 C 
HETATM    3  C4  UNL     1      24.232   6.736  51.211  1.00  0.00     0.120 C 
HETATM    4  N1  UNL     1      25.293   7.257  50.640  1.00  0.00    -0.254 NA
HETATM    5  C5  UNL     1      25.718   6.633  49.410  1.00  0.00     0.228 C 
HETATM    6  N2  UNL     1      25.760   5.463  49.813  1.00  0.00    -0.263 NA
HETATM    7  C6  UNL     1      26.054   4.182  49.342  1.00  0.00     0.274 C 
HETATM    8  N3  UNL     1      25.236   3.161  50.005  1.00  0.00    -0.362 N 
HETATM    9  C13 UNL     1      24.102   2.997  49.111  1.00  0.00     0.131 C 
HETATM   10  C14 UNL     1      23.291   4.262  49.032  1.00  0.00     0.084 C 
ENDROOT
BRANCH   8  11
HETATM   11  C7  UNL     1      25.476   2.548  51.262  1.00  0.00     0.033 A 
HETATM   12  C8  UNL     1      24.510   1.889  51.991  1.00  0.00     0.032 A 
HETATM   13  C9  UNL     1      24.830   1.326  53.208  1.00  0.00     0.046 A 
HETATM   14  C10 UNL     1      26.114   1.412  53.713  1.00  0.00     0.138 A 
HETATM   15  F1  UNL     1      26.372   0.841  54.912  1.00  0.00    -0.204 F 
HETATM   16  C11 UNL     1      27.060   2.078  52.964  1.00  0.00     0.074 A 
HETATM   17 CL1  UNL     1      28.655   2.136  53.681  1.00  0.00    -0.081 Cl
HETATM   18  C12 UNL     1      26.766   2.657  51.729  1.00  0.00     0.056 A 
ENDBRANCH   8  11
BRANCH   1  19
HETATM   19  O1  UNL     1      21.651   4.006  50.831  1.00  0.00    -0.360 OA
HETATM   20  C1  UNL     1      21.450   4.026  52.230  1.00  0.00     0.209 C 
ENDBRANCH   1  19
TORSDOF 2
ENDMDL
MODEL 5
REMARK VINA RESULT:      -6.2      2.520      3.112
REMARK  2 active torsions:
REMARK  status: ('A' for Active; 'I' for Inactive)
REMARK    1  A    between atoms: O1_2  and  C2_3 
REMARK    2  A    between atoms: N3_10  and  C7_11 
ROOT
HETATM    1  C2  UNL     1      22.457   4.127  50.840  1.00  0.00     0.048 C 
HETATM    2  C3  UNL     1      23.211   3.698  49.817  1.00  0.00     0.051 C 
HETATM    3  C4  UNL     1      23.102   2.858  48.613  1.00  0.00     0.120 C 
HETATM    4  N1  UNL     1      22.334   2.074  47.891  1.00  0.00    -0.254 NA
HETATM    5  C5  UNL     1      20.995   1.870  48.389  1.00  0.00     0.228 C 
HETATM    6  N2  UNL     1      21.288   1.533  49.544  1.00  0.00    -0.263 NA
HETATM    7  C6  UNL     1      20.666   1.154  50.735  1.00  0.00     0.274 C 
HETATM    8  N3  UNL     1      21.428   1.598  51.908  1.00  0.00    -0.362 N 
HETATM    9  C13 UNL     1      20.821   2.874  52.246  1.00  0.00     0.131 C 
HETATM   10  C14 UNL     1      21.033   3.880  51.148  1.00  0.00     0.084 C 
ENDROOT
BRANCH   8  11
HETATM   11  C7  UNL     1      22.542   0.954  52.505  1.00  0.00     0.033 A 
HETATM   12  C8  UNL     1      23.840   1.101  52.067  1.00  0.00     0.032 A 
HETATM   13  C9  UNL     1      24.863   0.433  52.705  1.00  0.00     0.046 A 
HETATM   14  C10 UNL     1      24.606  -0.389  53.786  1.00  0.00     0.138 A 
HETATM   15  F1  UNL     1      25.648  -1.021  54.375  1.00  0.00    -0.204 F 
HETATM   16  C11 UNL     1      23.299  -0.519  54.204  1.00  0.00     0.074 A 
HETATM   17 CL1  UNL     1      23.070  -1.578  55.578  1.00  0.00    -0.081 Cl
HETATM   18  C12 UNL     1      22.243   0.144  53.579  1.00  0.00     0.056 A 
ENDBRANCH   8  11
BRANCH   1  19
HETATM   19  O1  UNL     1      23.147   4.954  51.753  1.00  0.00    -0.360 OA
HETATM   20  C1  UNL     1      23.738   6.127  51.228  1.00  0.00     0.209 C 
ENDBRANCH   1  19
TORSDOF 2
ENDMDL
MODEL 6
REMARK VINA RESULT:      -6.1      3.883      5.230
REMARK  2 active torsions:
REMARK  status: ('A' for Active; 'I' for Inactive)
REMARK    1  A    between atoms: O1_2  and  C2_3 
REMARK    2  A    between atoms: N3_10  and  C7_11 
ROOT
HETATM    1  C2  UNL     1      20.844   3.686  50.322  1.00  0.00     0.048 C 
HETATM    2  C3  UNL     1      21.100   4.470  51.381  1.00  0.00     0.051 C 
HETATM    3  C4  UNL     1      22.222   5.194  52.000  1.00  0.00     0.120 C 
HETATM    4  N1  UNL     1      23.505   5.470  51.954  1.00  0.00    -0.254 NA
HETATM    5  C5  UNL     1      24.244   4.858  50.876  1.00  0.00     0.228 C 
HETATM    6  N2  UNL     1      23.882   3.688  51.058  1.00  0.00    -0.263 NA
HETATM    7  C6  UNL     1      24.070   2.416  50.514  1.00  0.00     0.274 C 
HETATM    8  N3  UNL     1      22.867   1.588  50.648  1.00  0.00    -0.362 N 
HETATM    9  C13 UNL     1      22.171   1.791  49.388  1.00  0.00     0.131 C 
HETATM   10  C14 UNL     1      21.735   3.223  49.238  1.00  0.00     0.084 C 
ENDROOT
BRANCH   8  11
HETATM   11  C7  UNL     1      22.459   0.837  51.780  1.00  0.00     0.033 A 
HETATM   12  C8  UNL     1      23.311   0.449  52.791  1.00  0.00     0.032 A 
HETATM   13  C9  UNL     1      22.830  -0.285  53.854  1.00  0.00     0.046 A 
HETATM   14  C10 UNL     1      21.497  -0.642  53.923  1.00  0.00     0.138 A 
HETATM   15  F1  UNL     1      21.079  -1.363  54.989  1.00  0.00    -0.204 F 
HETATM   16  C11 UNL     1      20.667  -0.242  52.897  1.00  0.00     0.074 A 
HETATM   17 CL1  UNL     1      18.997  -0.739  53.070  1.00  0.00    -0.081 Cl
HETATM   18  C12 UNL     1      21.124   0.501  51.809  1.00  0.00     0.056 A 
ENDBRANCH   8  11
BRANCH   1  19
HETATM   19  O1  UNL     1      19.503   3.252  50.242  1.00  0.00    -0.360 OA
HETATM   20  C1  UNL     1      18.523   4.110  50.791  1.00  0.00     0.209 C 
ENDBRANCH   1  19
TORSDOF 2
ENDMDL
MODEL 7
REMARK VINA RESULT:      -6.0      2.752      4.260
REMARK  2 active torsions:
REMARK  status: ('A' for Active; 'I' for Inactive)
REMARK    1  A    between atoms: O1_2  and  C2_3 
REMARK    2  A    between atoms: N3_10  and  C7_11 
ROOT
HETATM    1  C2  UNL     1      21.266   4.239  50.193  1.00  0.00     0.048 C 
HETATM    2  C3  UNL     1      21.613   4.979  51.257  1.00  0.00     0.051 C 
HETATM    3  C4  UNL     1      22.756   5.757  51.762  1.00  0.00     0.120 C 
HETATM    4  N1  UNL     1      23.995   6.143  51.555  1.00  0.00    -0.254 NA
HETATM    5  C5  UNL     1      24.611   5.660  50.343  1.00  0.00     0.228 C 
HETATM    6  N2  UNL     1      24.370   4.455  50.492  1.00  0.00    -0.263 NA
HETATM    7  C6  UNL     1      24.571   3.237  49.839  1.00  0.00     0.274 C 
HETATM    8  N3  UNL     1      23.465   2.304  50.082  1.00  0.00    -0.362 N 
HETATM    9  C13 UNL     1      22.580   2.522  48.950  1.00  0.00     0.131 C 
HETATM   10  C14 UNL     1      22.020   3.918  48.964  1.00  0.00     0.084 C 
ENDROOT
BRANCH   8  11
HETATM   11  C7  UNL     1      23.285   1.456  51.204  1.00  0.00     0.033 A 
HETATM   12  C8  UNL     1      22.088   0.855  51.528  1.00  0.00     0.032 A 
HETATM   13  C9  UNL     1      22.001   0.048  52.642  1.00  0.00     0.046 A 
HETATM   14  C10 UNL     1      23.104  -0.170  53.447  1.00  0.00     0.138 A 
HETATM   15  F1  UNL     1      22.962  -0.971  54.528  1.00  0.00    -0.204 F 
HETATM   16  C11 UNL     1      24.288   0.444  53.101  1.00  0.00     0.074 A 
HETATM   17 CL1  UNL     1      25.628   0.111  54.176  1.00  0.00    -0.081 Cl
HETATM   18  C12 UNL     1      24.407   1.266  51.980  1.00  0.00     0.056 A 
ENDBRANCH   8  11
BRANCH   1  19
HETATM   19  O1  UNL     1      19.963   3.699  50.272  1.00  0.00    -0.360 OA
HETATM   20  C1  UNL     1      19.469   3.418  51.567  1.00  0.00     0.209 C 
ENDBRANCH   1  19
TORSDOF 2
ENDMDL
MODEL 8
REMARK VINA RESULT:      -5.9      3.241      4.061
REMARK  2 active torsions:
REMARK  status: ('A' for Active; 'I' for Inactive)
REMARK    1  A    between atoms: O1_2  and  C2_3 
REMARK    2  A    between atoms: N3_10  and  C7_11 
ROOT
HETATM    1  C2  UNL     1      21.178   4.190  50.099  1.00  0.00     0.048 C 
HETATM    2  C3  UNL     1      21.202   3.098  49.320  1.00  0.00     0.051 C 
HETATM    3  C4  UNL     1      21.284   1.633  49.439  1.00  0.00     0.120 C 
HETATM    4  N1  UNL     1      21.405   0.605  50.248  1.00  0.00    -0.254 NA
HETATM    5  C5  UNL     1      21.516   0.917  51.652  1.00  0.00     0.228 C 
HETATM    6  N2  UNL     1      22.439   1.740  51.575  1.00  0.00    -0.263 NA
HETATM    7  C6  UNL     1      23.205   2.564  52.402  1.00  0.00     0.274 C 
HETATM    8  N3  UNL     1      23.590   3.805  51.721  1.00  0.00    -0.362 N 
HETATM    9  C13 UNL     1      22.550   4.744  52.107  1.00  0.00     0.131 C 
HETATM   10  C14 UNL     1      21.211   4.316  51.571  1.00  0.00     0.084 C 
ENDROOT
BRANCH   8  11
HETATM   11  C7  UNL     1      24.681   3.998  50.835  1.00  0.00     0.033 A 
HETATM   12  C8  UNL     1      25.603   3.021  50.528  1.00  0.00     0.032 A 
HETATM   13  C9  UNL     1      26.637   3.298  49.659  1.00  0.00     0.046 A 
HETATM   14  C10 UNL     1      26.765   4.550  49.085  1.00  0.00     0.138 A 
HETATM   15  F1  UNL     1      27.798   4.766  48.239  1.00  0.00    -0.204 F 
HETATM   16  C11 UNL     1      25.829   5.508  49.410  1.00  0.00     0.074 A 
HETATM   17 CL1  UNL     1      26.071   7.060  48.637  1.00  0.00    -0.081 Cl
HETATM   18  C12 UNL     1      24.773   5.258  50.286  1.00  0.00     0.056 A 
ENDBRANCH   8  11
BRANCH   1  19
HETATM   19  O1  UNL     1      21.097   5.403  49.381  1.00  0.00    -0.360 OA
HETATM   20  C1  UNL     1      19.970   6.219  49.636  1.00  0.00     0.209 C 
ENDBRANCH   1  19
TORSDOF 2
ENDMDL
MODEL 9
REMARK VINA RESULT:      -5.9      3.373      5.145
REMARK  2 active torsions:
REMARK  status: ('A' for Active; 'I' for Inactive)
REMARK    1  A    between atoms: O1_2  and  C2_3 
REMARK    2  A    between atoms: N3_10  and  C7_11 
ROOT
HETATM    1  C2  UNL     1      22.600   1.844  51.212  1.00  0.00     0.048 C 
HETATM    2  C3  UNL     1      21.988   2.462  52.234  1.00  0.00     0.051 C 
HETATM    3  C4  UNL     1      20.737   3.179  52.528  1.00  0.00     0.120 C 
HETATM    4  N1  UNL     1      19.603   3.642  52.054  1.00  0.00    -0.254 NA
HETATM    5  C5  UNL     1      19.366   3.412  50.649  1.00  0.00     0.228 C 
HETATM    6  N2  UNL     1      20.434   3.865  50.216  1.00  0.00    -0.263 NA
HETATM    7  C6  UNL     1      21.096   4.060  49.002  1.00  0.00     0.274 C 
HETATM    8  N3  UNL     1      22.549   3.930  49.152  1.00  0.00    -0.362 N 
HETATM    9  C13 UNL     1      22.805   2.538  48.824  1.00  0.00     0.131 C 
HETATM   10  C14 UNL     1      22.151   1.621  49.822  1.00  0.00     0.084 C 
ENDROOT
BRANCH   8  11
HETATM   11  C7  UNL     1      23.461   4.924  49.592  1.00  0.00     0.033 A 
HETATM   12  C8  UNL     1      23.203   5.800  50.624  1.00  0.00     0.032 A 
HETATM   13  C9  UNL     1      24.147   6.739  50.983  1.00  0.00     0.046 A 
HETATM   14  C10 UNL     1      25.357   6.818  50.319  1.00  0.00     0.138 A 
HETATM   15  F1  UNL     1      26.246   7.758  50.713  1.00  0.00    -0.204 F 
HETATM   16  C11 UNL     1      25.589   5.930  49.291  1.00  0.00     0.074 A 
HETATM   17 CL1  UNL     1      27.146   6.102  48.510  1.00  0.00    -0.081 Cl
HETATM   18  C12 UNL     1      24.654   4.969  48.905  1.00  0.00     0.056 A 
ENDBRANCH   8  11
BRANCH   1  19
HETATM   19  O1  UNL     1      23.871   1.321  51.538  1.00  0.00    -0.360 OA
HETATM   20  C1  UNL     1      24.851   2.248  51.961  1.00  0.00     0.209 C 
ENDBRANCH   1  19
TORSDOF 2
ENDMDL
