MODEL 1
REMARK VINA RESULT:      -7.7      0.000      0.000
REMARK  5 active torsions:
REMARK  status: ('A' for Active; 'I' for Inactive)
REMARK    1  A    between atoms: C2_2  and  C5_5 
REMARK    2  A    between atoms: C7_7  and  C8_8 
REMARK    3  A    between atoms: C9_9  and  C10_10 
REMARK       I    between atoms: C10_10  and  N1_11 
REMARK    4  A    between atoms: C12_14  and  C13_15 
REMARK    5  A    between atoms: C17_19  and  O2_20 
ROOT
HETATM    1  C5  UNL     1      23.754   2.127  52.061  1.00  0.00    -0.015 A 
HETATM    2  C6  UNL     1      24.958   1.434  52.169  1.00  0.00     0.031 A 
HETATM    3  C7  UNL     1      25.043   0.192  52.765  1.00  0.00     0.019 A 
HETATM    4  C11 UNL     1      23.884  -0.363  53.266  1.00  0.00     0.031 A 
HETATM    5  C12 UNL     1      22.678   0.320  53.164  1.00  0.00    -0.015 A 
HETATM    6  C17 UNL     1      22.613   1.543  52.572  1.00  0.00     0.079 A 
ENDROOT
BRANCH   3   7
HETATM    7  C8  UNL     1      26.270  -0.545  52.890  1.00  0.00    -0.057 C 
HETATM    8  C9  UNL     1      27.310  -1.149  52.996  1.00  0.00    -0.000 C 
BRANCH   8   9
HETATM    9  C10 UNL     1      28.569  -1.855  53.134  1.00  0.00     0.294 C 
HETATM   10  N1  UNL     1      28.583  -3.284  53.156  1.00  0.00    -0.359 N 
HETATM   11  H11 UNL     1      28.980  -3.585  54.072  1.00  0.00     0.160 HD
HETATM   12  H12 UNL     1      28.208  -3.691  52.282  1.00  0.00     0.160 HD
HETATM   13  O1  UNL     1      29.607  -1.140  53.227  1.00  0.00    -0.258 OA
ENDBRANCH   8   9
ENDBRANCH   3   7
BRANCH   1  14
HETATM   14  C2  UNL     1      23.711   3.457  51.411  1.00  0.00    -0.021 C 
HETATM   15  C1  UNL     1      23.352   4.581  52.342  1.00  0.00     0.019 C 
HETATM   16  C3  UNL     1      22.739   3.376  50.235  1.00  0.00     0.019 C 
HETATM   17  C4  UNL     1      25.073   3.767  50.827  1.00  0.00     0.019 C 
ENDBRANCH   1  14
BRANCH   5  18
HETATM   18  C13 UNL     1      21.463  -0.304  53.710  1.00  0.00    -0.021 C 
HETATM   19  C14 UNL     1      20.368  -0.440  52.694  1.00  0.00     0.019 C 
HETATM   20  C15 UNL     1      21.760  -1.716  54.219  1.00  0.00     0.019 C 
HETATM   21  C16 UNL     1      20.889   0.463  54.891  1.00  0.00     0.019 C 
ENDBRANCH   5  18
BRANCH   6  22
HETATM   22  O2  UNL     1      21.441   2.276  52.438  1.00  0.00    -0.360 OA
HETATM   23  H23 UNL     1      20.604   1.794  52.788  1.00  0.00     0.217 HD
ENDBRANCH   6  22
TORSDOF 5
ENDMDL
MODEL 2
REMARK VINA RESULT:      -7.7      0.141      3.953
REMARK  5 active torsions:
REMARK  status: ('A' for Active; 'I' for Inactive)
REMARK    1  A    between atoms: C2_2  and  C5_5 
REMARK    2  A    between atoms: C7_7  and  C8_8 
REMARK    3  A    between atoms: C9_9  and  C10_10 
REMARK       I    between atoms: C10_10  and  N1_11 
REMARK    4  A    between atoms: C12_14  and  C13_15 
REMARK    5  A    between atoms: C17_19  and  O2_20 
ROOT
HETATM    1  C5  UNL     1      22.535   0.250  53.197  1.00  0.00    -0.015 A 
HETATM    2  C6  UNL     1      23.742  -0.435  53.321  1.00  0.00     0.031 A 
HETATM    3  C7  UNL     1      24.933   0.076  52.846  1.00  0.00     0.019 A 
HETATM    4  C11 UNL     1      24.904   1.311  52.231  1.00  0.00     0.031 A 
HETATM    5  C12 UNL     1      23.706   2.002  52.102  1.00  0.00    -0.015 A 
HETATM    6  C17 UNL     1      22.542   1.483  52.577  1.00  0.00     0.079 A 
ENDROOT
BRANCH   3   7
HETATM    7  C8  UNL     1      26.191  -0.608  52.960  1.00  0.00    -0.057 C 
HETATM    8  C9  UNL     1      27.255  -1.171  53.044  1.00  0.00    -0.000 C 
BRANCH   8   9
HETATM    9  C10 UNL     1      28.545  -1.828  53.138  1.00  0.00     0.294 C 
HETATM   10  N1  UNL     1      28.616  -3.256  53.153  1.00  0.00    -0.359 N 
HETATM   11  H11 UNL     1      29.053  -3.543  54.054  1.00  0.00     0.160 HD
HETATM   12  H12 UNL     1      28.228  -3.674  52.289  1.00  0.00     0.160 HD
HETATM   13  O1  UNL     1      29.556  -1.073  53.201  1.00  0.00    -0.258 OA
ENDBRANCH   8   9
ENDBRANCH   3   7
BRANCH   1  14
HETATM   14  C2  UNL     1      21.282  -0.338  53.723  1.00  0.00    -0.021 C 
HETATM   15  C1  UNL     1      20.172  -0.415  52.712  1.00  0.00     0.019 C 
HETATM   16  C3  UNL     1      20.862   0.467  54.951  1.00  0.00     0.019 C 
HETATM   17  C4  UNL     1      21.560  -1.748  54.201  1.00  0.00     0.019 C 
ENDBRANCH   1  14
BRANCH   5  18
HETATM   18  C13 UNL     1      23.715   3.316  51.440  1.00  0.00    -0.021 C 
HETATM   19  C14 UNL     1      23.374   4.443  52.371  1.00  0.00     0.019 C 
HETATM   20  C15 UNL     1      25.100   3.628  50.871  1.00  0.00     0.019 C 
HETATM   21  C16 UNL     1      22.746   3.391  50.270  1.00  0.00     0.019 C 
ENDBRANCH   5  18
BRANCH   6  22
HETATM   22  O2  UNL     1      21.313   2.123  52.480  1.00  0.00    -0.360 OA
HETATM   23  H23 UNL     1      20.506   1.498  52.605  1.00  0.00     0.217 HD
ENDBRANCH   6  22
TORSDOF 5
ENDMDL
MODEL 3
REMARK VINA RESULT:      -7.4      3.061      5.456
REMARK  5 active torsions:
REMARK  status: ('A' for Active; 'I' for Inactive)
REMARK    1  A    between atoms: C2_2  and  C5_5 
REMARK    2  A    between atoms: C7_7  and  C8_8 
REMARK    3  A    between atoms: C9_9  and  C10_10 
REMARK       I    between atoms: C10_10  and  N1_11 
REMARK    4  A    between atoms: C12_14  and  C13_15 
REMARK    5  A    between atoms: C17_19  and  O2_20 
ROOT
HETATM    1  C5  UNL     1      25.213   2.523  51.338  1.00  0.00    -0.015 A 
HETATM    2  C6  UNL     1      24.090   1.834  51.793  1.00  0.00     0.031 A 
HETATM    3  C7  UNL     1      24.155   0.920  52.825  1.00  0.00     0.019 A 
HETATM    4  C11 UNL     1      25.382   0.696  53.412  1.00  0.00     0.031 A 
HETATM    5  C12 UNL     1      26.508   1.378  52.966  1.00  0.00    -0.015 A 
HETATM    6  C17 UNL     1      26.426   2.276  51.948  1.00  0.00     0.079 A 
ENDROOT
BRANCH   3   7
HETATM    7  C8  UNL     1      23.014   0.196  53.314  1.00  0.00    -0.057 C 
HETATM    8  C9  UNL     1      22.066  -0.428  53.725  1.00  0.00    -0.000 C 
BRANCH   8   9
HETATM    9  C10 UNL     1      20.941  -1.195  54.225  1.00  0.00     0.294 C 
HETATM   10  N1  UNL     1      19.615  -0.866  53.805  1.00  0.00    -0.359 N 
HETATM   11  H11 UNL     1      19.068  -0.603  54.652  1.00  0.00     0.160 HD
HETATM   12  H12 UNL     1      19.496  -0.961  52.781  1.00  0.00     0.160 HD
HETATM   13  O1  UNL     1      21.213  -2.134  55.024  1.00  0.00    -0.258 OA
ENDBRANCH   8   9
ENDBRANCH   3   7
BRANCH   1  14
HETATM   14  C2  UNL     1      25.096   3.497  50.228  1.00  0.00    -0.021 C 
HETATM   15  C1  UNL     1      26.317   3.578  49.355  1.00  0.00     0.019 C 
HETATM   16  C3  UNL     1      24.749   4.858  50.828  1.00  0.00     0.019 C 
HETATM   17  C4  UNL     1      23.931   3.102  49.344  1.00  0.00     0.019 C 
ENDBRANCH   1  14
BRANCH   5  18
HETATM   18  C13 UNL     1      27.801   1.112  53.617  1.00  0.00    -0.021 C 
HETATM   19  C14 UNL     1      28.591   2.360  53.878  1.00  0.00     0.019 C 
HETATM   20  C15 UNL     1      27.596   0.435  54.973  1.00  0.00     0.019 C 
HETATM   21  C16 UNL     1      28.687   0.180  52.804  1.00  0.00     0.019 C 
ENDBRANCH   5  18
BRANCH   6  22
HETATM   22  O2  UNL     1      27.512   2.989  51.455  1.00  0.00    -0.360 OA
HETATM   23  H23 UNL     1      27.881   2.627  50.567  1.00  0.00     0.217 HD
ENDBRANCH   6  22
TORSDOF 5
ENDMDL
MODEL 4
REMARK VINA RESULT:      -7.2      3.071      5.955
REMARK  5 active torsions:
REMARK  status: ('A' for Active; 'I' for Inactive)
REMARK    1  A    between atoms: C2_2  and  C5_5 
REMARK    2  A    between atoms: C7_7  and  C8_8 
REMARK    3  A    between atoms: C9_9  and  C10_10 
REMARK       I    between atoms: C10_10  and  N1_11 
REMARK    4  A    between atoms: C12_14  and  C13_15 
REMARK    5  A    between atoms: C17_19  and  O2_20 
ROOT
HETATM    1  C5  UNL     1      26.492   1.376  52.994  1.00  0.00    -0.015 A 
HETATM    2  C6  UNL     1      25.363   0.694  53.442  1.00  0.00     0.031 A 
HETATM    3  C7  UNL     1      24.117   0.879  52.877  1.00  0.00     0.019 A 
HETATM    4  C11 UNL     1      24.009   1.776  51.835  1.00  0.00     0.031 A 
HETATM    5  C12 UNL     1      25.129   2.462  51.380  1.00  0.00    -0.015 A 
HETATM    6  C17 UNL     1      26.349   2.266  51.948  1.00  0.00     0.079 A 
ENDROOT
BRANCH   3   7
HETATM    7  C8  UNL     1      22.936   0.190  53.319  1.00  0.00    -0.057 C 
HETATM    8  C9  UNL     1      21.951  -0.403  53.683  1.00  0.00    -0.000 C 
BRANCH   8   9
HETATM    9  C10 UNL     1      20.778  -1.137  54.120  1.00  0.00     0.294 C 
HETATM   10  N1  UNL     1      19.478  -0.710  53.707  1.00  0.00    -0.359 N 
HETATM   11  H11 UNL     1      18.934  -0.472  54.564  1.00  0.00     0.160 HD
HETATM   12  H12 UNL     1      19.369  -0.732  52.678  1.00  0.00     0.160 HD
HETATM   13  O1  UNL     1      20.986  -2.140  54.860  1.00  0.00    -0.258 OA
ENDBRANCH   8   9
ENDBRANCH   3   7
BRANCH   1  14
HETATM   14  C2  UNL     1      27.809   1.144  53.630  1.00  0.00    -0.021 C 
HETATM   15  C1  UNL     1      28.625   2.393  53.821  1.00  0.00     0.019 C 
HETATM   16  C3  UNL     1      28.561   0.110  52.794  1.00  0.00     0.019 C 
HETATM   17  C4  UNL     1      27.597   0.526  54.996  1.00  0.00     0.019 C 
ENDBRANCH   1  14
BRANCH   5  18
HETATM   18  C13 UNL     1      24.974   3.410  50.266  1.00  0.00    -0.021 C 
HETATM   19  C14 UNL     1      24.766   4.823  50.725  1.00  0.00     0.019 C 
HETATM   20  C15 UNL     1      26.224   3.419  49.384  1.00  0.00     0.019 C 
HETATM   21  C16 UNL     1      23.809   3.057  49.353  1.00  0.00     0.019 C 
ENDBRANCH   5  18
BRANCH   6  22
HETATM   22  O2  UNL     1      27.506   2.918  51.542  1.00  0.00    -0.360 OA
HETATM   23  H23 UNL     1      28.342   2.662  52.082  1.00  0.00     0.217 HD
ENDBRANCH   6  22
TORSDOF 5
ENDMDL
MODEL 5
REMARK VINA RESULT:      -7.2      3.525      5.311
REMARK  5 active torsions:
REMARK  status: ('A' for Active; 'I' for Inactive)
REMARK    1  A    between atoms: C2_2  and  C5_5 
REMARK    2  A    between atoms: C7_7  and  C8_8 
REMARK    3  A    between atoms: C9_9  and  C10_10 
REMARK       I    between atoms: C10_10  and  N1_11 
REMARK    4  A    between atoms: C12_14  and  C13_15 
REMARK    5  A    between atoms: C17_19  and  O2_20 
ROOT
HETATM    1  C5  UNL     1      23.724   1.587  51.701  1.00  0.00    -0.015 A 
HETATM    2  C6  UNL     1      24.394   2.508  50.898  1.00  0.00     0.031 A 
HETATM    3  C7  UNL     1      25.771   2.573  50.842  1.00  0.00     0.019 A 
HETATM    4  C11 UNL     1      26.491   1.686  51.615  1.00  0.00     0.031 A 
HETATM    5  C12 UNL     1      25.833   0.764  52.420  1.00  0.00    -0.015 A 
HETATM    6  C17 UNL     1      24.474   0.713  52.462  1.00  0.00     0.079 A 
ENDROOT
BRANCH   3   7
HETATM    7  C8  UNL     1      26.488   3.512  50.023  1.00  0.00    -0.057 C 
HETATM    8  C9  UNL     1      27.076   4.312  49.338  1.00  0.00    -0.000 C 
BRANCH   8   9
HETATM    9  C10 UNL     1      27.770   5.291  48.522  1.00  0.00     0.294 C 
HETATM   10  N1  UNL     1      27.098   6.487  48.122  1.00  0.00    -0.359 N 
HETATM   11  H11 UNL     1      27.062   6.499  47.080  1.00  0.00     0.160 HD
HETATM   12  H12 UNL     1      26.805   7.058  48.933  1.00  0.00     0.160 HD
HETATM   13  O1  UNL     1      28.962   5.015  48.207  1.00  0.00    -0.258 OA
ENDBRANCH   8   9
ENDBRANCH   3   7
BRANCH   1  14
HETATM   14  C2  UNL     1      22.244   1.553  51.728  1.00  0.00    -0.021 C 
HETATM   15  C1  UNL     1      21.666   1.150  53.057  1.00  0.00     0.019 C 
HETATM   16  C3  UNL     1      21.772   0.625  50.611  1.00  0.00     0.019 C 
HETATM   17  C4  UNL     1      21.711   2.933  51.402  1.00  0.00     0.019 C 
ENDBRANCH   1  14
BRANCH   5  18
HETATM   18  C13 UNL     1      26.634  -0.166  53.231  1.00  0.00    -0.021 C 
HETATM   19  C14 UNL     1      26.593  -1.575  52.718  1.00  0.00     0.019 C 
HETATM   20  C15 UNL     1      28.106   0.250  53.239  1.00  0.00     0.019 C 
HETATM   21  C16 UNL     1      26.193  -0.205  54.687  1.00  0.00     0.019 C 
ENDBRANCH   5  18
BRANCH   6  22
HETATM   22  O2  UNL     1      23.757  -0.183  53.244  1.00  0.00    -0.360 OA
HETATM   23  H23 UNL     1      22.742  -0.017  53.246  1.00  0.00     0.217 HD
ENDBRANCH   6  22
TORSDOF 5
ENDMDL
MODEL 6
REMARK VINA RESULT:      -7.1      3.343      5.373
REMARK  5 active torsions:
REMARK  status: ('A' for Active; 'I' for Inactive)
REMARK    1  A    between atoms: C2_2  and  C5_5 
REMARK    2  A    between atoms: C7_7  and  C8_8 
REMARK    3  A    between atoms: C9_9  and  C10_10 
REMARK       I    between atoms: C10_10  and  N1_11 
REMARK    4  A    between atoms: C12_14  and  C13_15 
REMARK    5  A    between atoms: C17_19  and  O2_20 
ROOT
HETATM    1  C5  UNL     1      23.641   1.590  51.668  1.00  0.00    -0.015 A 
HETATM    2  C6  UNL     1      24.279   2.535  50.868  1.00  0.00     0.031 A 
HETATM    3  C7  UNL     1      25.653   2.650  50.816  1.00  0.00     0.019 A 
HETATM    4  C11 UNL     1      26.402   1.789  51.591  1.00  0.00     0.031 A 
HETATM    5  C12 UNL     1      25.775   0.843  52.393  1.00  0.00    -0.015 A 
HETATM    6  C17 UNL     1      24.419   0.743  52.431  1.00  0.00     0.079 A 
ENDROOT
BRANCH   3   7
HETATM    7  C8  UNL     1      26.338   3.614  50.000  1.00  0.00    -0.057 C 
HETATM    8  C9  UNL     1      26.903   4.437  49.321  1.00  0.00    -0.000 C 
BRANCH   8   9
HETATM    9  C10 UNL     1      27.571   5.443  48.518  1.00  0.00     0.294 C 
HETATM   10  N1  UNL     1      28.959   5.298  48.209  1.00  0.00    -0.359 N 
HETATM   11  H11 UNL     1      29.462   6.118  48.611  1.00  0.00     0.160 HD
HETATM   12  H12 UNL     1      29.150   4.437  47.669  1.00  0.00     0.160 HD
HETATM   13  O1  UNL     1      26.862   6.414  48.129  1.00  0.00    -0.258 OA
ENDBRANCH   8   9
ENDBRANCH   3   7
BRANCH   1  14
HETATM   14  C2  UNL     1      22.162   1.503  51.690  1.00  0.00    -0.021 C 
HETATM   15  C1  UNL     1      21.583   1.296  53.062  1.00  0.00     0.019 C 
HETATM   16  C3  UNL     1      21.740   0.389  50.734  1.00  0.00     0.019 C 
HETATM   17  C4  UNL     1      21.582   2.790  51.142  1.00  0.00     0.019 C 
ENDBRANCH   1  14
BRANCH   5  18
HETATM   18  C13 UNL     1      26.607  -0.058  53.206  1.00  0.00    -0.021 C 
HETATM   19  C14 UNL     1      26.177  -0.114  54.642  1.00  0.00     0.019 C 
HETATM   20  C15 UNL     1      26.534  -1.491  52.676  1.00  0.00     0.019 C 
HETATM   21  C16 UNL     1      28.078   0.328  53.192  1.00  0.00     0.019 C 
ENDBRANCH   5  18
BRANCH   6  22
HETATM   22  O2  UNL     1      23.732  -0.179  53.210  1.00  0.00    -0.360 OA
HETATM   23  H23 UNL     1      22.727   0.017  53.300  1.00  0.00     0.217 HD
ENDBRANCH   6  22
TORSDOF 5
ENDMDL
MODEL 7
REMARK VINA RESULT:      -6.8      3.117      5.652
REMARK  5 active torsions:
REMARK  status: ('A' for Active; 'I' for Inactive)
REMARK    1  A    between atoms: C2_2  and  C5_5 
REMARK    2  A    between atoms: C7_7  and  C8_8 
REMARK    3  A    between atoms: C9_9  and  C10_10 
REMARK       I    between atoms: C10_10  and  N1_11 
REMARK    4  A    between atoms: C12_14  and  C13_15 
REMARK    5  A    between atoms: C17_19  and  O2_20 
ROOT
HETATM    1  C5  UNL     1      24.012   2.168  51.152  1.00  0.00    -0.015 A 
HETATM    2  C6  UNL     1      22.688   1.751  51.271  1.00  0.00     0.031 A 
HETATM    3  C7  UNL     1      22.304   0.757  52.148  1.00  0.00     0.019 A 
HETATM    4  C11 UNL     1      23.281   0.168  52.923  1.00  0.00     0.031 A 
HETATM    5  C12 UNL     1      24.605   0.576  52.811  1.00  0.00    -0.015 A 
HETATM    6  C17 UNL     1      24.966   1.558  51.943  1.00  0.00     0.079 A 
ENDROOT
BRANCH   3   7
HETATM    7  C8  UNL     1      20.947   0.307  52.292  1.00  0.00    -0.057 C 
HETATM    8  C9  UNL     1      19.809  -0.081  52.399  1.00  0.00    -0.000 C 
BRANCH   8   9
HETATM    9  C10 UNL     1      18.447  -0.566  52.514  1.00  0.00     0.294 C 
HETATM   10  N1  UNL     1      18.050  -1.300  53.674  1.00  0.00    -0.359 N 
HETATM   11  H11 UNL     1      17.747  -2.248  53.363  1.00  0.00     0.160 HD
HETATM   12  H12 UNL     1      18.150  -0.744  54.540  1.00  0.00     0.160 HD
HETATM   13  O1  UNL     1      17.673  -0.299  51.552  1.00  0.00    -0.258 OA
ENDBRANCH   8   9
ENDBRANCH   3   7
BRANCH   1  14
HETATM   14  C2  UNL     1      24.377   3.240  50.198  1.00  0.00    -0.021 C 
HETATM   15  C1  UNL     1      25.748   3.084  49.598  1.00  0.00     0.019 C 
HETATM   16  C3  UNL     1      24.234   4.580  50.916  1.00  0.00     0.019 C 
HETATM   17  C4  UNL     1      23.381   3.249  49.058  1.00  0.00     0.019 C 
ENDBRANCH   1  14
BRANCH   5  18
HETATM   18  C13 UNL     1      25.620  -0.076  53.655  1.00  0.00    -0.021 C 
HETATM   19  C14 UNL     1      26.509   0.904  54.361  1.00  0.00     0.019 C 
HETATM   20  C15 UNL     1      24.958  -0.924  54.742  1.00  0.00     0.019 C 
HETATM   21  C16 UNL     1      26.521  -1.016  52.869  1.00  0.00     0.019 C 
ENDBRANCH   5  18
BRANCH   6  22
HETATM   22  O2  UNL     1      26.269   2.011  51.783  1.00  0.00    -0.360 OA
HETATM   23  H23 UNL     1      26.881   1.355  51.282  1.00  0.00     0.217 HD
ENDBRANCH   6  22
TORSDOF 5
ENDMDL
MODEL 8
REMARK VINA RESULT:      -6.8      3.132      6.184
REMARK  5 active torsions:
REMARK  status: ('A' for Active; 'I' for Inactive)
REMARK    1  A    between atoms: C2_2  and  C5_5 
REMARK    2  A    between atoms: C7_7  and  C8_8 
REMARK    3  A    between atoms: C9_9  and  C10_10 
REMARK       I    between atoms: C10_10  and  N1_11 
REMARK    4  A    between atoms: C12_14  and  C13_15 
REMARK    5  A    between atoms: C17_19  and  O2_20 
ROOT
HETATM    1  C5  UNL     1      24.314   1.044  52.951  1.00  0.00    -0.015 A 
HETATM    2  C6  UNL     1      23.128   0.337  53.137  1.00  0.00     0.031 A 
HETATM    3  C7  UNL     1      21.900   0.847  52.770  1.00  0.00     0.019 A 
HETATM    4  C11 UNL     1      21.867   2.103  52.201  1.00  0.00     0.031 A 
HETATM    5  C12 UNL     1      23.044   2.817  52.011  1.00  0.00    -0.015 A 
HETATM    6  C17 UNL     1      24.247   2.298  52.378  1.00  0.00     0.079 A 
ENDROOT
BRANCH   3   7
HETATM    7  C8  UNL     1      20.662   0.140  52.950  1.00  0.00    -0.057 C 
HETATM    8  C9  UNL     1      19.614  -0.441  53.092  1.00  0.00    -0.000 C 
BRANCH   8   9
HETATM    9  C10 UNL     1      18.345  -1.127  53.245  1.00  0.00     0.294 C 
HETATM   10  N1  UNL     1      18.267  -2.306  54.048  1.00  0.00    -0.359 N 
HETATM   11  H11 UNL     1      17.958  -3.090  53.434  1.00  0.00     0.160 HD
HETATM   12  H12 UNL     1      18.528  -2.125  55.032  1.00  0.00     0.160 HD
HETATM   13  O1  UNL     1      17.357  -0.623  52.639  1.00  0.00    -0.258 OA
ENDBRANCH   8   9
ENDBRANCH   3   7
BRANCH   1  14
HETATM   14  C2  UNL     1      25.610   0.455  53.359  1.00  0.00    -0.021 C 
HETATM   15  C1  UNL     1      26.436   1.349  54.242  1.00  0.00     0.019 C 
HETATM   16  C3  UNL     1      26.371   0.065  52.094  1.00  0.00     0.019 C 
HETATM   17  C4  UNL     1      25.352  -0.826  54.124  1.00  0.00     0.019 C 
ENDBRANCH   1  14
BRANCH   5  18
HETATM   18  C13 UNL     1      22.970   4.154  51.401  1.00  0.00    -0.021 C 
HETATM   19  C14 UNL     1      23.684   4.237  50.084  1.00  0.00     0.019 C 
HETATM   20  C15 UNL     1      21.517   4.548  51.132  1.00  0.00     0.019 C 
HETATM   21  C16 UNL     1      23.549   5.240  52.295  1.00  0.00     0.019 C 
ENDBRANCH   5  18
BRANCH   6  22
HETATM   22  O2  UNL     1      25.458   2.959  52.216  1.00  0.00    -0.360 OA
HETATM   23  H23 UNL     1      25.465   3.916  52.592  1.00  0.00     0.217 HD
ENDBRANCH   6  22
TORSDOF 5
ENDMDL
MODEL 9
REMARK VINA RESULT:      -6.6      3.571      5.873
REMARK  5 active torsions:
REMARK  status: ('A' for Active; 'I' for Inactive)
REMARK    1  A    between atoms: C2_2  and  C5_5 
REMARK    2  A    between atoms: C7_7  and  C8_8 
REMARK    3  A    between atoms: C9_9  and  C10_10 
REMARK       I    between atoms: C10_10  and  N1_11 
REMARK    4  A    between atoms: C12_14  and  C13_15 
REMARK    5  A    between atoms: C17_19  and  O2_20 
ROOT
HETATM    1  C5  UNL     1      24.307   3.202  50.604  1.00  0.00    -0.015 A 
HETATM    2  C6  UNL     1      23.002   2.736  50.460  1.00  0.00     0.031 A 
HETATM    3  C7  UNL     1      22.543   1.613  51.117  1.00  0.00     0.019 A 
HETATM    4  C11 UNL     1      23.424   0.942  51.940  1.00  0.00     0.031 A 
HETATM    5  C12 UNL     1      24.729   1.398  52.090  1.00  0.00    -0.015 A 
HETATM    6  C17 UNL     1      25.164   2.508  51.436  1.00  0.00     0.079 A 
ENDROOT
BRANCH   3   7
HETATM    7  C8  UNL     1      21.204   1.110  50.988  1.00  0.00    -0.057 C 
HETATM    8  C9  UNL     1      20.073   0.700  50.890  1.00  0.00    -0.000 C 
BRANCH   8   9
HETATM    9  C10 UNL     1      18.705   0.228  50.780  1.00  0.00     0.294 C 
HETATM   10  N1  UNL     1      17.914   0.601  49.650  1.00  0.00    -0.359 N 
HETATM   11  H11 UNL     1      17.089   1.134  50.000  1.00  0.00     0.160 HD
HETATM   12  H12 UNL     1      18.324   0.268  48.760  1.00  0.00     0.160 HD
HETATM   13  O1  UNL     1      18.288  -0.506  51.720  1.00  0.00    -0.258 OA
ENDBRANCH   8   9
ENDBRANCH   3   7
BRANCH   1  14
HETATM   14  C2  UNL     1      24.755   4.414  49.880  1.00  0.00    -0.021 C 
HETATM   15  C1  UNL     1      26.146   4.311  49.319  1.00  0.00     0.019 C 
HETATM   16  C3  UNL     1      24.622   5.606  50.826  1.00  0.00     0.019 C 
HETATM   17  C4  UNL     1      23.815   4.673  48.721  1.00  0.00     0.019 C 
ENDBRANCH   1  14
BRANCH   5  18
HETATM   18  C13 UNL     1      25.640   0.657  52.976  1.00  0.00    -0.021 C 
HETATM   19  C14 UNL     1      26.267   1.523  54.028  1.00  0.00     0.019 C 
HETATM   20  C15 UNL     1      24.892  -0.453  53.717  1.00  0.00     0.019 C 
HETATM   21  C16 UNL     1      26.771  -0.023  52.219  1.00  0.00     0.019 C 
ENDBRANCH   5  18
BRANCH   6  22
HETATM   22  O2  UNL     1      26.452   3.015  51.542  1.00  0.00    -0.360 OA
HETATM   23  H23 UNL     1      27.163   2.458  51.052  1.00  0.00     0.217 HD
ENDBRANCH   6  22
TORSDOF 5
ENDMDL
