MODEL 1
REMARK VINA RESULT:      -8.4      0.000      0.000
REMARK  8 active torsions:
REMARK  status: ('A' for Active; 'I' for Inactive)
REMARK    1  A    between atoms: C2_2  and  N1_3 
REMARK    2  A    between atoms: N1_3  and  O1_4 
REMARK    3  A    between atoms: N1_3  and  C3_5 
REMARK    4  A    between atoms: C5_7  and  N2_8 
REMARK    5  A    between atoms: N2_8  and  C6_9 
REMARK    6  A    between atoms: C13_19  and  O2_20 
REMARK    7  A    between atoms: C16_23  and  N6_24 
REMARK    8  A    between atoms: C19_27  and  N7_28 
ROOT
HETATM    1  C3  UNL     1      22.641   1.188  53.090  1.00  0.00     0.090 A 
HETATM    2  C4  UNL     1      23.925   1.547  53.434  1.00  0.00     0.067 A 
HETATM    3  C5  UNL     1      24.690   2.505  52.804  1.00  0.00     0.085 A 
HETATM    4  C13 UNL     1      24.048   3.133  51.725  1.00  0.00     0.097 A 
HETATM    5  C15 UNL     1      22.768   2.779  51.378  1.00  0.00     0.071 A 
HETATM    6  C16 UNL     1      22.022   1.815  52.025  1.00  0.00     0.062 A 
ENDROOT
BRANCH   3   7
HETATM    7  N2  UNL     1      25.990   2.856  53.176  1.00  0.00    -0.184 N 
HETATM    8  H6  UNL     1      26.161   3.893  53.276  1.00  0.00     0.184 HD
BRANCH   7   9
HETATM    9  C6  UNL     1      27.100   2.004  53.431  1.00  0.00     0.744 A 
HETATM   10  N3  UNL     1      28.257   2.339  54.000  1.00  0.00    -0.071 NA
HETATM   11  C7  UNL     1      29.257   1.470  54.198  1.00  0.00     0.168 A 
HETATM   12  C8  UNL     1      29.099   0.165  53.800  1.00  0.00     0.077 A 
HETATM   13  C9  UNL     1      29.858  -0.990  53.824  1.00  0.00     0.035 A 
HETATM   14  N4  UNL     1      27.947  -0.194  53.227  1.00  0.00    -0.222 N 
HETATM   15  C10 UNL     1      29.105  -2.014  53.249  1.00  0.00     0.029 A 
HETATM   16  C11 UNL     1      27.889  -1.488  52.874  1.00  0.00     0.033 A 
HETATM   17  C12 UNL     1      26.784  -2.234  52.221  1.00  0.00     0.070 C 
HETATM   18  N5  UNL     1      27.011   0.717  53.066  1.00  0.00     0.026 NA
ENDBRANCH   7   9
ENDBRANCH   3   7
BRANCH   4  19
HETATM   19  O2  UNL     1      24.751   4.108  51.038  1.00  0.00    -0.354 OA
HETATM   20  C14 UNL     1      25.241   3.827  49.737  1.00  0.00     0.210 C 
ENDBRANCH   4  19
BRANCH   1  21
HETATM   21  N1  UNL     1      21.860   0.205  53.751  1.00  0.00    -0.235 N 
BRANCH  21  22
HETATM   22  C2  UNL     1      21.974  -1.211  53.639  1.00  0.00     0.113 C 
HETATM   23  C1  UNL     1      21.937  -1.968  54.714  1.00  0.00     0.032 C 
ENDBRANCH  21  22
BRANCH  21  24
HETATM   24  O1  UNL     1      20.916   0.734  54.558  1.00  0.00    -0.283 OA
HETATM   25  H4  UNL     1      20.033   0.814  54.167  1.00  0.00     0.245 HD
ENDBRANCH  21  24
ENDBRANCH   1  21
BRANCH   6  26
HETATM   26  N6  UNL     1      20.721   1.607  51.493  1.00  0.00    -0.379 N 
HETATM   27  C17 UNL     1      20.187   0.520  50.702  1.00  0.00     0.125 C 
HETATM   28  C18 UNL     1      18.868   0.104  51.261  1.00  0.00     0.055 C 
HETATM   29  C19 UNL     1      17.935   1.258  51.417  1.00  0.00     0.225 C 
HETATM   30  C22 UNL     1      18.570   2.601  51.142  1.00  0.00     0.055 C 
HETATM   31  C23 UNL     1      19.888   2.721  51.871  1.00  0.00     0.125 C 
BRANCH  29  32
HETATM   32  N7  UNL     1      16.777   1.071  50.603  1.00  0.00     0.084 N 
HETATM   33  C20 UNL     1      16.837   1.629  49.292  1.00  0.00     0.309 C 
HETATM   34  C21 UNL     1      16.468  -0.342  50.518  1.00  0.00     0.309 C 
ENDBRANCH  29  32
ENDBRANCH   6  26
TORSDOF 8
ENDMDL
MODEL 2
REMARK VINA RESULT:      -8.3      1.966      2.342
REMARK  8 active torsions:
REMARK  status: ('A' for Active; 'I' for Inactive)
REMARK    1  A    between atoms: C2_2  and  N1_3 
REMARK    2  A    between atoms: N1_3  and  O1_4 
REMARK    3  A    between atoms: N1_3  and  C3_5 
REMARK    4  A    between atoms: C5_7  and  N2_8 
REMARK    5  A    between atoms: N2_8  and  C6_9 
REMARK    6  A    between atoms: C13_19  and  O2_20 
REMARK    7  A    between atoms: C16_23  and  N6_24 
REMARK    8  A    between atoms: C19_27  and  N7_28 
ROOT
HETATM    1  C3  UNL     1      22.540   2.374  52.207  1.00  0.00     0.090 A 
HETATM    2  C4  UNL     1      23.613   2.472  53.065  1.00  0.00     0.067 A 
HETATM    3  C5  UNL     1      24.910   2.761  52.702  1.00  0.00     0.085 A 
HETATM    4  C13 UNL     1      25.090   2.961  51.323  1.00  0.00     0.097 A 
HETATM    5  C15 UNL     1      24.024   2.865  50.465  1.00  0.00     0.071 A 
HETATM    6  C16 UNL     1      22.732   2.574  50.853  1.00  0.00     0.062 A 
ENDROOT
BRANCH   3   7
HETATM    7  N2  UNL     1      25.983   2.860  53.593  1.00  0.00    -0.184 N 
HETATM    8  H6  UNL     1      25.927   3.671  54.268  1.00  0.00     0.184 HD
BRANCH   7   9
HETATM    9  C6  UNL     1      27.126   2.023  53.701  1.00  0.00     0.744 A 
HETATM   10  N3  UNL     1      28.331   2.361  54.156  1.00  0.00    -0.071 NA
HETATM   11  C7  UNL     1      29.361   1.506  54.220  1.00  0.00     0.168 A 
HETATM   12  C8  UNL     1      29.181   0.211  53.798  1.00  0.00     0.077 A 
HETATM   13  C9  UNL     1      29.957  -0.930  53.703  1.00  0.00     0.035 A 
HETATM   14  N4  UNL     1      27.981  -0.152  53.337  1.00  0.00    -0.222 N 
HETATM   15  C10 UNL     1      29.164  -1.949  53.177  1.00  0.00     0.029 A 
HETATM   16  C11 UNL     1      27.907  -1.435  52.949  1.00  0.00     0.033 A 
HETATM   17  C12 UNL     1      26.751  -2.180  52.391  1.00  0.00     0.070 C 
HETATM   18  N5  UNL     1      27.019   0.746  53.306  1.00  0.00     0.026 NA
ENDBRANCH   7   9
ENDBRANCH   3   7
BRANCH   4  19
HETATM   19  O2  UNL     1      26.367   3.255  50.877  1.00  0.00    -0.354 OA
HETATM   20  C14 UNL     1      26.537   3.871  49.611  1.00  0.00     0.210 C 
ENDBRANCH   4  19
BRANCH   1  21
HETATM   21  N1  UNL     1      21.206   2.083  52.594  1.00  0.00    -0.235 N 
BRANCH  21  22
HETATM   22  C2  UNL     1      20.653   0.808  52.909  1.00  0.00     0.113 C 
HETATM   23  C1  UNL     1      20.685   0.357  54.144  1.00  0.00     0.032 C 
ENDBRANCH  21  22
BRANCH  21  24
HETATM   24  O1  UNL     1      20.420   3.180  52.644  1.00  0.00    -0.283 OA
HETATM   25  H4  UNL     1      20.061   3.394  53.519  1.00  0.00     0.245 HD
ENDBRANCH  21  24
ENDBRANCH   1  21
BRANCH   6  26
HETATM   26  N6  UNL     1      21.785   2.519  49.795  1.00  0.00    -0.379 N 
HETATM   27  C17 UNL     1      20.983   1.420  49.301  1.00  0.00     0.125 C 
HETATM   28  C18 UNL     1      19.578   1.883  49.111  1.00  0.00     0.055 C 
HETATM   29  C19 UNL     1      19.499   3.116  48.276  1.00  0.00     0.225 C 
HETATM   30  C22 UNL     1      20.845   3.720  47.948  1.00  0.00     0.055 C 
HETATM   31  C23 UNL     1      21.693   3.826  49.194  1.00  0.00     0.125 C 
BRANCH  29  32
HETATM   32  N7  UNL     1      18.758   2.859  47.083  1.00  0.00     0.084 N 
HETATM   33  C20 UNL     1      17.359   3.125  47.146  1.00  0.00     0.309 C 
HETATM   34  C21 UNL     1      19.345   3.593  45.980  1.00  0.00     0.309 C 
ENDBRANCH  29  32
ENDBRANCH   6  26
TORSDOF 8
ENDMDL
MODEL 3
REMARK VINA RESULT:      -7.9      3.137      5.265
REMARK  8 active torsions:
REMARK  status: ('A' for Active; 'I' for Inactive)
REMARK    1  A    between atoms: C2_2  and  N1_3 
REMARK    2  A    between atoms: N1_3  and  O1_4 
REMARK    3  A    between atoms: N1_3  and  C3_5 
REMARK    4  A    between atoms: C5_7  and  N2_8 
REMARK    5  A    between atoms: N2_8  and  C6_9 
REMARK    6  A    between atoms: C13_19  and  O2_20 
REMARK    7  A    between atoms: C16_23  and  N6_24 
REMARK    8  A    between atoms: C19_27  and  N7_28 
ROOT
HETATM    1  C3  UNL     1      23.956   4.173  51.199  1.00  0.00     0.090 A 
HETATM    2  C4  UNL     1      24.423   3.265  52.124  1.00  0.00     0.067 A 
HETATM    3  C5  UNL     1      23.922   1.999  52.333  1.00  0.00     0.085 A 
HETATM    4  C13 UNL     1      22.841   1.665  51.500  1.00  0.00     0.097 A 
HETATM    5  C15 UNL     1      22.373   2.565  50.577  1.00  0.00     0.071 A 
HETATM    6  C16 UNL     1      22.892   3.830  50.386  1.00  0.00     0.062 A 
ENDROOT
BRANCH   3   7
HETATM    7  N2  UNL     1      24.417   1.092  53.275  1.00  0.00    -0.184 N 
HETATM    8  H6  UNL     1      23.842   1.008  54.157  1.00  0.00     0.184 HD
BRANCH   7   9
HETATM    9  C6  UNL     1      25.583   0.283  53.198  1.00  0.00     0.744 A 
HETATM   10  N3  UNL     1      25.653  -0.992  52.821  1.00  0.00    -0.071 NA
HETATM   11  C7  UNL     1      26.799  -1.686  52.783  1.00  0.00     0.168 A 
HETATM   12  C8  UNL     1      27.969  -1.065  53.148  1.00  0.00     0.077 A 
HETATM   13  C9  UNL     1      29.303  -1.416  53.242  1.00  0.00     0.035 A 
HETATM   14  N4  UNL     1      27.923   0.214  53.529  1.00  0.00    -0.222 N 
HETATM   15  C10 UNL     1      30.012  -0.301  53.687  1.00  0.00     0.029 A 
HETATM   16  C11 UNL     1      29.116   0.730  53.865  1.00  0.00     0.033 A 
HETATM   17  C12 UNL     1      29.448   2.099  54.332  1.00  0.00     0.070 C 
HETATM   18  N5  UNL     1      26.759   0.828  53.541  1.00  0.00     0.026 NA
ENDBRANCH   7   9
ENDBRANCH   3   7
BRANCH   4  19
HETATM   19  O2  UNL     1      22.279   0.408  51.648  1.00  0.00    -0.354 OA
HETATM   20  C14 UNL     1      20.948   0.292  52.124  1.00  0.00     0.210 C 
ENDBRANCH   4  19
BRANCH   1  21
HETATM   21  N1  UNL     1      24.486   5.472  50.988  1.00  0.00    -0.235 N 
BRANCH  21  22
HETATM   22  C2  UNL     1      25.331   5.902  49.924  1.00  0.00     0.113 C 
HETATM   23  C1  UNL     1      26.156   5.056  49.347  1.00  0.00     0.032 C 
ENDBRANCH  21  22
BRANCH  21  24
HETATM   24  O1  UNL     1      24.115   6.355  51.940  1.00  0.00    -0.283 OA
HETATM   25  H4  UNL     1      23.471   7.023  51.659  1.00  0.00     0.245 HD
ENDBRANCH  21  24
ENDBRANCH   1  21
BRANCH   6  26
HETATM   26  N6  UNL     1      22.249   4.597  49.379  1.00  0.00    -0.379 N 
HETATM   27  C17 UNL     1      21.356   5.731  49.481  1.00  0.00     0.125 C 
HETATM   28  C18 UNL     1      21.783   6.784  48.516  1.00  0.00     0.055 C 
HETATM   29  C19 UNL     1      21.932   6.251  47.131  1.00  0.00     0.225 C 
HETATM   30  C22 UNL     1      21.787   4.750  47.033  1.00  0.00     0.055 C 
HETATM   31  C23 UNL     1      22.624   4.070  48.091  1.00  0.00     0.125 C 
BRANCH  29  32
HETATM   32  N7  UNL     1      21.020   6.904  46.249  1.00  0.00     0.084 N 
HETATM   33  C20 UNL     1      19.744   6.287  46.098  1.00  0.00     0.309 C 
HETATM   34  C21 UNL     1      20.848   8.282  46.662  1.00  0.00     0.309 C 
ENDBRANCH  29  32
ENDBRANCH   6  26
TORSDOF 8
ENDMDL
MODEL 4
REMARK VINA RESULT:      -7.6      1.794      3.592
REMARK  8 active torsions:
REMARK  status: ('A' for Active; 'I' for Inactive)
REMARK    1  A    between atoms: C2_2  and  N1_3 
REMARK    2  A    between atoms: N1_3  and  O1_4 
REMARK    3  A    between atoms: N1_3  and  C3_5 
REMARK    4  A    between atoms: C5_7  and  N2_8 
REMARK    5  A    between atoms: N2_8  and  C6_9 
REMARK    6  A    between atoms: C13_19  and  O2_20 
REMARK    7  A    between atoms: C16_23  and  N6_24 
REMARK    8  A    between atoms: C19_27  and  N7_28 
ROOT
HETATM    1  C3  UNL     1      22.419   1.902  51.072  1.00  0.00     0.090 A 
HETATM    2  C4  UNL     1      23.432   1.340  51.816  1.00  0.00     0.067 A 
HETATM    3  C5  UNL     1      23.270   0.604  52.969  1.00  0.00     0.085 A 
HETATM    4  C13 UNL     1      21.933   0.449  53.369  1.00  0.00     0.097 A 
HETATM    5  C15 UNL     1      20.920   1.007  52.630  1.00  0.00     0.071 A 
HETATM    6  C16 UNL     1      21.107   1.742  51.477  1.00  0.00     0.062 A 
ENDROOT
BRANCH   3   7
HETATM    7  N2  UNL     1      24.315   0.037  53.704  1.00  0.00    -0.184 N 
HETATM    8  H6  UNL     1      24.036  -0.768  54.328  1.00  0.00     0.184 HD
BRANCH   7   9
HETATM    9  C6  UNL     1      25.688   0.406  53.722  1.00  0.00     0.744 A 
HETATM   10  N3  UNL     1      26.190   1.627  53.895  1.00  0.00    -0.071 NA
HETATM   11  C7  UNL     1      27.504   1.890  53.893  1.00  0.00     0.168 A 
HETATM   12  C8  UNL     1      28.392   0.858  53.702  1.00  0.00     0.077 A 
HETATM   13  C9  UNL     1      29.765   0.717  53.634  1.00  0.00     0.035 A 
HETATM   14  N4  UNL     1      27.911  -0.375  53.526  1.00  0.00    -0.222 N 
HETATM   15  C10 UNL     1      30.050  -0.630  53.414  1.00  0.00     0.029 A 
HETATM   16  C11 UNL     1      28.856  -1.312  53.348  1.00  0.00     0.033 A 
HETATM   17  C12 UNL     1      28.699  -2.771  53.124  1.00  0.00     0.070 C 
HETATM   18  N5  UNL     1      26.607  -0.553  53.541  1.00  0.00     0.026 NA
ENDBRANCH   7   9
ENDBRANCH   3   7
BRANCH   4  19
HETATM   19  O2  UNL     1      21.685  -0.279  54.521  1.00  0.00    -0.354 OA
HETATM   20  C14 UNL     1      21.186  -1.601  54.414  1.00  0.00     0.210 C 
ENDBRANCH   4  19
BRANCH   1  21
HETATM   21  N1  UNL     1      22.597   2.653  49.881  1.00  0.00    -0.235 N 
BRANCH  21  22
HETATM   22  C2  UNL     1      22.627   2.163  48.543  1.00  0.00     0.113 C 
HETATM   23  C1  UNL     1      21.972   2.789  47.590  1.00  0.00     0.032 C 
ENDBRANCH  21  22
BRANCH  21  24
HETATM   24  O1  UNL     1      22.756   3.974  50.108  1.00  0.00    -0.283 OA
HETATM   25  H4  UNL     1      23.287   4.449  49.451  1.00  0.00     0.245 HD
ENDBRANCH  21  24
ENDBRANCH   1  21
BRANCH   6  26
HETATM   26  N6  UNL     1      19.915   2.231  50.877  1.00  0.00    -0.379 N 
HETATM   27  C17 UNL     1      19.129   1.711  49.780  1.00  0.00     0.125 C 
HETATM   28  C18 UNL     1      17.685   1.733  50.155  1.00  0.00     0.055 C 
HETATM   29  C19 UNL     1      17.248   3.076  50.633  1.00  0.00     0.225 C 
HETATM   30  C22 UNL     1      18.379   4.066  50.795  1.00  0.00     0.055 C 
HETATM   31  C23 UNL     1      19.523   3.440  51.557  1.00  0.00     0.125 C 
BRANCH  29  32
HETATM   32  N7  UNL     1      16.237   3.602  49.774  1.00  0.00     0.084 N 
HETATM   33  C20 UNL     1      15.121   4.210  50.419  1.00  0.00     0.309 C 
HETATM   34  C21 UNL     1      16.831   4.540  48.842  1.00  0.00     0.309 C 
ENDBRANCH  29  32
ENDBRANCH   6  26
TORSDOF 8
ENDMDL
MODEL 5
REMARK VINA RESULT:      -7.6      2.042      9.013
REMARK  8 active torsions:
REMARK  status: ('A' for Active; 'I' for Inactive)
REMARK    1  A    between atoms: C2_2  and  N1_3 
REMARK    2  A    between atoms: N1_3  and  O1_4 
REMARK    3  A    between atoms: N1_3  and  C3_5 
REMARK    4  A    between atoms: C5_7  and  N2_8 
REMARK    5  A    between atoms: N2_8  and  C6_9 
REMARK    6  A    between atoms: C13_19  and  O2_20 
REMARK    7  A    between atoms: C16_23  and  N6_24 
REMARK    8  A    between atoms: C19_27  and  N7_28 
ROOT
HETATM    1  C3  UNL     1      23.302   2.400  52.091  1.00  0.00     0.090 A 
HETATM    2  C4  UNL     1      21.937   2.502  51.934  1.00  0.00     0.067 A 
HETATM    3  C5  UNL     1      20.999   1.653  52.479  1.00  0.00     0.085 A 
HETATM    4  C13 UNL     1      21.543   0.613  53.249  1.00  0.00     0.097 A 
HETATM    5  C15 UNL     1      22.902   0.508  53.409  1.00  0.00     0.071 A 
HETATM    6  C16 UNL     1      23.823   1.371  52.853  1.00  0.00     0.062 A 
ENDROOT
BRANCH   3   7
HETATM    7  N2  UNL     1      19.617   1.781  52.309  1.00  0.00    -0.184 N 
HETATM    8  H6  UNL     1      19.034   1.115  52.885  1.00  0.00     0.184 HD
BRANCH   7   9
HETATM    9  C6  UNL     1      18.907   2.679  51.467  1.00  0.00     0.744 A 
HETATM   10  N3  UNL     1      17.879   3.455  51.805  1.00  0.00    -0.071 NA
HETATM   11  C7  UNL     1      17.260   4.274  50.943  1.00  0.00     0.168 A 
HETATM   12  C8  UNL     1      17.695   4.326  49.640  1.00  0.00     0.077 A 
HETATM   13  C9  UNL     1      17.341   5.008  48.492  1.00  0.00     0.035 A 
HETATM   14  N4  UNL     1      18.725   3.556  49.278  1.00  0.00    -0.222 N 
HETATM   15  C10 UNL     1      18.198   4.604  47.468  1.00  0.00     0.029 A 
HETATM   16  C11 UNL     1      19.074   3.677  47.988  1.00  0.00     0.033 A 
HETATM   17  C12 UNL     1      20.155   2.988  47.240  1.00  0.00     0.070 C 
HETATM   18  N5  UNL     1      19.280   2.778  50.183  1.00  0.00     0.026 NA
ENDBRANCH   7   9
ENDBRANCH   3   7
BRANCH   4  19
HETATM   19  O2  UNL     1      20.664  -0.285  53.831  1.00  0.00    -0.354 OA
HETATM   20  C14 UNL     1      21.150  -1.536  54.290  1.00  0.00     0.210 C 
ENDBRANCH   4  19
BRANCH   1  21
HETATM   21  N1  UNL     1      24.259   3.285  51.532  1.00  0.00    -0.235 N 
BRANCH  21  22
HETATM   22  C2  UNL     1      24.956   3.140  50.297  1.00  0.00     0.113 C 
HETATM   23  C1  UNL     1      26.259   3.304  50.246  1.00  0.00     0.032 C 
ENDBRANCH  21  22
BRANCH  21  24
HETATM   24  O1  UNL     1      24.497   4.364  52.307  1.00  0.00    -0.283 OA
HETATM   25  H4  UNL     1      24.312   4.247  53.251  1.00  0.00     0.245 HD
ENDBRANCH  21  24
ENDBRANCH   1  21
BRANCH   6  26
HETATM   26  N6  UNL     1      25.181   1.070  53.145  1.00  0.00    -0.379 N 
HETATM   27  C17 UNL     1      26.087   1.641  54.118  1.00  0.00     0.125 C 
HETATM   28  C18 UNL     1      26.798   0.543  54.834  1.00  0.00     0.055 C 
HETATM   29  C19 UNL     1      27.444  -0.417  53.892  1.00  0.00     0.225 C 
HETATM   30  C22 UNL     1      27.103  -0.173  52.440  1.00  0.00     0.055 C 
HETATM   31  C23 UNL     1      25.613   0.008  52.271  1.00  0.00     0.125 C 
BRANCH  29  32
HETATM   32  N7  UNL     1      28.858  -0.422  54.083  1.00  0.00     0.084 N 
HETATM   33  C20 UNL     1      29.576  -1.465  53.427  1.00  0.00     0.309 C 
HETATM   34  C21 UNL     1      29.405   0.863  53.697  1.00  0.00     0.309 C 
ENDBRANCH  29  32
ENDBRANCH   6  26
TORSDOF 8
ENDMDL
MODEL 6
REMARK VINA RESULT:      -7.6      5.558      9.647
REMARK  8 active torsions:
REMARK  status: ('A' for Active; 'I' for Inactive)
REMARK    1  A    between atoms: C2_2  and  N1_3 
REMARK    2  A    between atoms: N1_3  and  O1_4 
REMARK    3  A    between atoms: N1_3  and  C3_5 
REMARK    4  A    between atoms: C5_7  and  N2_8 
REMARK    5  A    between atoms: N2_8  and  C6_9 
REMARK    6  A    between atoms: C13_19  and  O2_20 
REMARK    7  A    between atoms: C16_23  and  N6_24 
REMARK    8  A    between atoms: C19_27  and  N7_28 
ROOT
HETATM    1  C3  UNL     1      27.739   6.529  48.530  1.00  0.00     0.090 A 
HETATM    2  C4  UNL     1      27.169   5.290  48.721  1.00  0.00     0.067 A 
HETATM    3  C5  UNL     1      26.025   5.033  49.443  1.00  0.00     0.085 A 
HETATM    4  C13 UNL     1      25.435   6.175  50.010  1.00  0.00     0.097 A 
HETATM    5  C15 UNL     1      25.999   7.412  49.821  1.00  0.00     0.071 A 
HETATM    6  C16 UNL     1      27.148   7.644  49.093  1.00  0.00     0.062 A 
ENDROOT
BRANCH   3   7
HETATM    7  N2  UNL     1      25.462   3.766  49.619  1.00  0.00    -0.184 N 
HETATM    8  H6  UNL     1      24.761   3.483  48.881  1.00  0.00     0.184 HD
BRANCH   7   9
HETATM    9  C6  UNL     1      25.707   2.823  50.653  1.00  0.00     0.744 A 
HETATM   10  N3  UNL     1      26.885   2.500  51.185  1.00  0.00    -0.071 NA
HETATM   11  C7  UNL     1      27.029   1.592  52.159  1.00  0.00     0.168 A 
HETATM   12  C8  UNL     1      25.915   0.950  52.645  1.00  0.00     0.077 A 
HETATM   13  C9  UNL     1      25.649  -0.010  53.604  1.00  0.00     0.035 A 
HETATM   14  N4  UNL     1      24.723   1.257  52.127  1.00  0.00    -0.222 N 
HETATM   15  C10 UNL     1      24.273  -0.239  53.615  1.00  0.00     0.029 A 
HETATM   16  C11 UNL     1      23.698   0.577  52.667  1.00  0.00     0.033 A 
HETATM   17  C12 UNL     1      22.251   0.652  52.347  1.00  0.00     0.070 C 
HETATM   18  N5  UNL     1      24.663   2.160  51.172  1.00  0.00     0.026 NA
ENDBRANCH   7   9
ENDBRANCH   3   7
BRANCH   4  19
HETATM   19  O2  UNL     1      24.280   6.001  50.753  1.00  0.00    -0.354 OA
HETATM   20  C14 UNL     1      23.276   7.002  50.722  1.00  0.00     0.210 C 
ENDBRANCH   4  19
BRANCH   1  21
HETATM   21  N1  UNL     1      28.915   6.782  47.777  1.00  0.00    -0.235 N 
BRANCH  21  22
HETATM   22  C2  UNL     1      30.262   6.507  48.154  1.00  0.00     0.113 C 
HETATM   23  C1  UNL     1      30.862   5.418  47.729  1.00  0.00     0.032 C 
ENDBRANCH  21  22
BRANCH  21  24
HETATM   24  O1  UNL     1      28.664   7.354  46.581  1.00  0.00    -0.283 OA
HETATM   25  H4  UNL     1      28.598   6.742  45.832  1.00  0.00     0.245 HD
ENDBRANCH  21  24
ENDBRANCH   1  21
BRANCH   6  26
HETATM   26  N6  UNL     1      27.556   9.003  49.034  1.00  0.00    -0.379 N 
HETATM   27  C17 UNL     1      28.695   9.674  49.623  1.00  0.00     0.125 C 
HETATM   28  C18 UNL     1      29.341  10.542  48.596  1.00  0.00     0.055 C 
HETATM   29  C19 UNL     1      28.365  11.462  47.944  1.00  0.00     0.225 C 
HETATM   30  C22 UNL     1      26.927  11.205  48.331  1.00  0.00     0.055 C 
HETATM   31  C23 UNL     1      26.609   9.732  48.228  1.00  0.00     0.125 C 
BRANCH  29  32
HETATM   32  N7  UNL     1      28.720  12.821  48.198  1.00  0.00     0.084 N 
HETATM   33  C20 UNL     1      29.491  13.466  47.187  1.00  0.00     0.309 C 
HETATM   34  C21 UNL     1      27.523  13.593  48.464  1.00  0.00     0.309 C 
ENDBRANCH  29  32
ENDBRANCH   6  26
TORSDOF 8
ENDMDL
MODEL 7
REMARK VINA RESULT:      -7.5      1.902      8.859
REMARK  8 active torsions:
REMARK  status: ('A' for Active; 'I' for Inactive)
REMARK    1  A    between atoms: C2_2  and  N1_3 
REMARK    2  A    between atoms: N1_3  and  O1_4 
REMARK    3  A    between atoms: N1_3  and  C3_5 
REMARK    4  A    between atoms: C5_7  and  N2_8 
REMARK    5  A    between atoms: N2_8  and  C6_9 
REMARK    6  A    between atoms: C13_19  and  O2_20 
REMARK    7  A    between atoms: C16_23  and  N6_24 
REMARK    8  A    between atoms: C19_27  and  N7_28 
ROOT
HETATM    1  C3  UNL     1      22.468   0.715  53.176  1.00  0.00     0.090 A 
HETATM    2  C4  UNL     1      21.401   1.515  52.832  1.00  0.00     0.067 A 
HETATM    3  C5  UNL     1      21.483   2.748  52.222  1.00  0.00     0.085 A 
HETATM    4  C13 UNL     1      22.795   3.170  51.956  1.00  0.00     0.097 A 
HETATM    5  C15 UNL     1      23.861   2.377  52.296  1.00  0.00     0.071 A 
HETATM    6  C16 UNL     1      23.754   1.144  52.907  1.00  0.00     0.062 A 
ENDROOT
BRANCH   3   7
HETATM    7  N2  UNL     1      20.383   3.539  51.877  1.00  0.00    -0.184 N 
HETATM    8  H6  UNL     1      20.467   4.558  52.144  1.00  0.00     0.184 HD
BRANCH   7   9
HETATM    9  C6  UNL     1      19.181   3.151  51.226  1.00  0.00     0.744 A 
HETATM   10  N3  UNL     1      19.068   2.489  50.076  1.00  0.00    -0.071 NA
HETATM   11  C7  UNL     1      17.889   2.165  49.526  1.00  0.00     0.168 A 
HETATM   12  C8  UNL     1      16.730   2.529  50.168  1.00  0.00     0.077 A 
HETATM   13  C9  UNL     1      15.373   2.391  49.941  1.00  0.00     0.035 A 
HETATM   14  N4  UNL     1      16.819   3.193  51.323  1.00  0.00    -0.222 N 
HETATM   15  C10 UNL     1      14.695   2.996  50.999  1.00  0.00     0.029 A 
HETATM   16  C11 UNL     1      15.633   3.503  51.871  1.00  0.00     0.033 A 
HETATM   17  C12 UNL     1      15.344   4.229  53.133  1.00  0.00     0.070 C 
HETATM   18  N5  UNL     1      18.013   3.475  51.799  1.00  0.00     0.026 NA
ENDBRANCH   7   9
ENDBRANCH   3   7
BRANCH   4  19
HETATM   19  O2  UNL     1      22.963   4.401  51.344  1.00  0.00    -0.354 OA
HETATM   20  C14 UNL     1      23.672   5.425  52.023  1.00  0.00     0.210 C 
ENDBRANCH   4  19
BRANCH   1  21
HETATM   21  N1  UNL     1      22.371  -0.557  53.798  1.00  0.00    -0.235 N 
BRANCH  21  22
HETATM   22  C2  UNL     1      22.421  -0.847  55.192  1.00  0.00     0.113 C 
HETATM   23  C1  UNL     1      23.410  -1.555  55.689  1.00  0.00     0.032 C 
ENDBRANCH  21  22
BRANCH  21  24
HETATM   24  O1  UNL     1      22.221  -1.566  52.914  1.00  0.00    -0.283 OA
HETATM   25  H4  UNL     1      21.647  -2.291  53.204  1.00  0.00     0.245 HD
ENDBRANCH  21  24
ENDBRANCH   1  21
BRANCH   6  26
HETATM   26  N6  UNL     1      24.990   0.497  53.174  1.00  0.00    -0.379 N 
HETATM   27  C17 UNL     1      25.504  -0.779  52.726  1.00  0.00     0.125 C 
HETATM   28  C18 UNL     1      26.911  -0.609  52.262  1.00  0.00     0.055 C 
HETATM   29  C19 UNL     1      27.763   0.064  53.285  1.00  0.00     0.225 C 
HETATM   30  C22 UNL     1      26.995   0.574  54.482  1.00  0.00     0.055 C 
HETATM   31  C23 UNL     1      25.774   1.345  54.037  1.00  0.00     0.125 C 
BRANCH  29  32
HETATM   32  N7  UNL     1      28.820  -0.803  53.696  1.00  0.00     0.084 N 
HETATM   33  C20 UNL     1      28.877  -2.072  53.050  1.00  0.00     0.309 C 
HETATM   34  C21 UNL     1      30.091  -0.122  53.546  1.00  0.00     0.309 C 
ENDBRANCH  29  32
ENDBRANCH   6  26
TORSDOF 8
ENDMDL
MODEL 8
REMARK VINA RESULT:      -7.5      4.053      6.349
REMARK  8 active torsions:
REMARK  status: ('A' for Active; 'I' for Inactive)
REMARK    1  A    between atoms: C2_2  and  N1_3 
REMARK    2  A    between atoms: N1_3  and  O1_4 
REMARK    3  A    between atoms: N1_3  and  C3_5 
REMARK    4  A    between atoms: C5_7  and  N2_8 
REMARK    5  A    between atoms: N2_8  and  C6_9 
REMARK    6  A    between atoms: C13_19  and  O2_20 
REMARK    7  A    between atoms: C16_23  and  N6_24 
REMARK    8  A    between atoms: C19_27  and  N7_28 
ROOT
HETATM    1  C3  UNL     1      24.923   3.388  50.939  1.00  0.00     0.090 A 
HETATM    2  C4  UNL     1      25.617   4.321  50.201  1.00  0.00     0.067 A 
HETATM    3  C5  UNL     1      25.086   5.128  49.220  1.00  0.00     0.085 A 
HETATM    4  C13 UNL     1      23.712   4.935  48.999  1.00  0.00     0.097 A 
HETATM    5  C15 UNL     1      23.016   4.008  49.733  1.00  0.00     0.071 A 
HETATM    6  C16 UNL     1      23.571   3.209  50.711  1.00  0.00     0.062 A 
ENDROOT
BRANCH   3   7
HETATM    7  N2  UNL     1      25.811   6.072  48.487  1.00  0.00    -0.184 N 
HETATM    8  H6  UNL     1      25.228   6.700  47.869  1.00  0.00     0.184 HD
BRANCH   7   9
HETATM    9  C6  UNL     1      27.215   6.289  48.465  1.00  0.00     0.744 A 
HETATM   10  N3  UNL     1      28.167   5.377  48.271  1.00  0.00    -0.071 NA
HETATM   11  C7  UNL     1      29.475   5.667  48.271  1.00  0.00     0.168 A 
HETATM   12  C8  UNL     1      29.872   6.965  48.482  1.00  0.00     0.077 A 
HETATM   13  C9  UNL     1      31.072   7.647  48.555  1.00  0.00     0.035 A 
HETATM   14  N4  UNL     1      28.936   7.897  48.679  1.00  0.00    -0.222 N 
HETATM   15  C10 UNL     1      30.791   8.991  48.799  1.00  0.00     0.029 A 
HETATM   16  C11 UNL     1      29.424   9.132  48.875  1.00  0.00     0.033 A 
HETATM   17  C12 UNL     1      28.693  10.400  49.124  1.00  0.00     0.070 C 
HETATM   18  N5  UNL     1      27.671   7.534  48.664  1.00  0.00     0.026 NA
ENDBRANCH   7   9
ENDBRANCH   3   7
BRANCH   4  19
HETATM   19  O2  UNL     1      23.102   5.709  48.027  1.00  0.00    -0.354 OA
HETATM   20  C14 UNL     1      22.291   5.083  47.046  1.00  0.00     0.210 C 
ENDBRANCH   4  19
BRANCH   1  21
HETATM   21  N1  UNL     1      25.480   2.566  51.953  1.00  0.00    -0.235 N 
BRANCH  21  22
HETATM   22  C2  UNL     1      26.243   1.375  51.782  1.00  0.00     0.113 C 
HETATM   23  C1  UNL     1      26.044   0.339  52.567  1.00  0.00     0.032 C 
ENDBRANCH  21  22
BRANCH  21  24
HETATM   24  O1  UNL     1      25.218   3.014  53.199  1.00  0.00    -0.283 OA
HETATM   25  H4  UNL     1      24.294   2.937  53.483  1.00  0.00     0.245 HD
ENDBRANCH  21  24
ENDBRANCH   1  21
BRANCH   6  26
HETATM   26  N6  UNL     1      22.666   2.314  51.341  1.00  0.00    -0.379 N 
HETATM   27  C17 UNL     1      22.555   0.873  51.262  1.00  0.00     0.125 C 
HETATM   28  C18 UNL     1      22.399   0.315  52.637  1.00  0.00     0.055 C 
HETATM   29  C19 UNL     1      21.288   0.971  53.387  1.00  0.00     0.225 C 
HETATM   30  C22 UNL     1      20.681   2.155  52.671  1.00  0.00     0.055 C 
HETATM   31  C23 UNL     1      21.764   3.078  52.165  1.00  0.00     0.125 C 
BRANCH  29  32
HETATM   32  N7  UNL     1      20.284   0.013  53.721  1.00  0.00     0.084 N 
HETATM   33  C20 UNL     1      19.285  -0.218  52.730  1.00  0.00     0.309 C 
HETATM   34  C21 UNL     1      20.912  -1.242  54.081  1.00  0.00     0.309 C 
ENDBRANCH  29  32
ENDBRANCH   6  26
TORSDOF 8
ENDMDL
MODEL 9
REMARK VINA RESULT:      -7.5      1.784      3.819
REMARK  8 active torsions:
REMARK  status: ('A' for Active; 'I' for Inactive)
REMARK    1  A    between atoms: C2_2  and  N1_3 
REMARK    2  A    between atoms: N1_3  and  O1_4 
REMARK    3  A    between atoms: N1_3  and  C3_5 
REMARK    4  A    between atoms: C5_7  and  N2_8 
REMARK    5  A    between atoms: N2_8  and  C6_9 
REMARK    6  A    between atoms: C13_19  and  O2_20 
REMARK    7  A    between atoms: C16_23  and  N6_24 
REMARK    8  A    between atoms: C19_27  and  N7_28 
ROOT
HETATM    1  C3  UNL     1      23.057   2.152  51.597  1.00  0.00     0.090 A 
HETATM    2  C4  UNL     1      23.943   1.475  52.405  1.00  0.00     0.067 A 
HETATM    3  C5  UNL     1      23.628   0.429  53.245  1.00  0.00     0.085 A 
HETATM    4  C13 UNL     1      22.270   0.070  53.231  1.00  0.00     0.097 A 
HETATM    5  C15 UNL     1      21.384   0.741  52.427  1.00  0.00     0.071 A 
HETATM    6  C16 UNL     1      21.724   1.788  51.593  1.00  0.00     0.062 A 
ENDROOT
BRANCH   3   7
HETATM    7  N2  UNL     1      24.547  -0.247  54.052  1.00  0.00    -0.184 N 
HETATM    8  H6  UNL     1      24.220  -0.435  55.039  1.00  0.00     0.184 HD
BRANCH   7   9
HETATM    9  C6  UNL     1      25.851  -0.704  53.719  1.00  0.00     0.744 A 
HETATM   10  N3  UNL     1      26.176  -1.866  53.155  1.00  0.00    -0.071 NA
HETATM   11  C7  UNL     1      27.438  -2.222  52.878  1.00  0.00     0.168 A 
HETATM   12  C8  UNL     1      28.460  -1.356  53.187  1.00  0.00     0.077 A 
HETATM   13  C9  UNL     1      29.838  -1.349  53.069  1.00  0.00     0.035 A 
HETATM   14  N4  UNL     1      28.158  -0.185  53.753  1.00  0.00    -0.222 N 
HETATM   15  C10 UNL     1      30.308  -0.141  53.584  1.00  0.00     0.029 A 
HETATM   16  C11 UNL     1      29.224   0.588  54.016  1.00  0.00     0.033 A 
HETATM   17  C12 UNL     1      29.273   1.937  54.634  1.00  0.00     0.070 C 
HETATM   18  N5  UNL     1      26.895   0.093  53.994  1.00  0.00     0.026 NA
ENDBRANCH   7   9
ENDBRANCH   3   7
BRANCH   4  19
HETATM   19  O2  UNL     1      21.872  -0.974  54.050  1.00  0.00    -0.354 OA
HETATM   20  C14 UNL     1      20.514  -1.381  54.046  1.00  0.00     0.210 C 
ENDBRANCH   4  19
BRANCH   1  21
HETATM   21  N1  UNL     1      23.394   3.224  50.730  1.00  0.00    -0.235 N 
BRANCH  21  22
HETATM   22  C2  UNL     1      23.386   4.617  51.030  1.00  0.00     0.113 C 
HETATM   23  C1  UNL     1      23.359   5.028  52.279  1.00  0.00     0.032 C 
ENDBRANCH  21  22
BRANCH  21  24
HETATM   24  O1  UNL     1      23.748   2.812  49.494  1.00  0.00    -0.283 OA
HETATM   25  H4  UNL     1      23.026   2.763  48.850  1.00  0.00     0.245 HD
ENDBRANCH  21  24
ENDBRANCH   1  21
BRANCH   6  26
HETATM   26  N6  UNL     1      20.644   2.340  50.854  1.00  0.00    -0.379 N 
HETATM   27  C17 UNL     1      20.218   2.111  49.490  1.00  0.00     0.125 C 
HETATM   28  C18 UNL     1      18.740   1.910  49.462  1.00  0.00     0.055 C 
HETATM   29  C19 UNL     1      18.009   3.014  50.150  1.00  0.00     0.225 C 
HETATM   30  C22 UNL     1      18.911   3.994  50.864  1.00  0.00     0.055 C 
HETATM   31  C23 UNL     1      19.929   3.259  51.704  1.00  0.00     0.125 C 
BRANCH  29  32
HETATM   32  N7  UNL     1      17.157   3.693  49.228  1.00  0.00     0.084 N 
HETATM   33  C20 UNL     1      17.662   4.912  48.688  1.00  0.00     0.309 C 
HETATM   34  C21 UNL     1      16.798   2.794  48.149  1.00  0.00     0.309 C 
ENDBRANCH  29  32
ENDBRANCH   6  26
TORSDOF 8
ENDMDL
