MODEL 1
REMARK VINA RESULT:      -7.9      0.000      0.000
REMARK  6 active torsions:
REMARK  status: ('A' for Active; 'I' for Inactive)
REMARK    1  A    between atoms: O1_1  and  C1_2 
REMARK    2  A    between atoms: C4_5  and  N1_6 
REMARK    3  A    between atoms: N1_6  and  C5_7 
REMARK    4  A    between atoms: C7_12  and  N4_13 
REMARK    5  A    between atoms: N4_13  and  C8_14 
REMARK    6  A    between atoms: C8_14  and  C9_15 
ROOT
HETATM    1  C5  UNL     1      26.419   2.383  51.753  1.00  0.00     0.745 A 
HETATM    2  N2  UNL     1      27.026   3.111  50.806  1.00  0.00    -0.030 NA
HETATM    3  C6  UNL     1      26.377   3.717  49.803  1.00  0.00     0.259 A 
HETATM    4 CL1  UNL     1      27.332   4.623  48.663  1.00  0.00    -0.040 Cl
HETATM    5  N3  UNL     1      25.041   3.594  49.731  1.00  0.00    -0.030 NA
HETATM    6  C7  UNL     1      24.380   2.875  50.652  1.00  0.00     0.741 A 
HETATM    7  N5  UNL     1      25.094   2.299  51.626  1.00  0.00     0.130 NA
ENDROOT
BRANCH   1   8
HETATM    8  N1  UNL     1      27.195   1.780  52.776  1.00  0.00    -0.188 N 
HETATM    9  H4  UNL     1      27.529   2.420  53.559  1.00  0.00     0.184 HD
BRANCH   8  10
HETATM   10  C4  UNL     1      27.601   0.428  52.912  1.00  0.00     0.049 A 
HETATM   11  C3  UNL     1      26.782  -0.612  52.525  1.00  0.00     0.033 A 
HETATM   12  C2  UNL     1      27.135  -1.925  52.638  1.00  0.00     0.039 A 
HETATM   13  C1  UNL     1      28.360  -2.286  53.157  1.00  0.00     0.065 A 
HETATM   14  C14 UNL     1      29.221  -1.288  53.560  1.00  0.00     0.039 A 
HETATM   15  C13 UNL     1      28.809   0.016  53.421  1.00  0.00     0.033 A 
BRANCH  13  16
HETATM   16  O1  UNL     1      28.654  -3.624  53.243  1.00  0.00    -0.361 OA
HETATM   17  H1  UNL     1      28.346  -4.324  52.556  1.00  0.00     0.217 HD
ENDBRANCH  13  16
ENDBRANCH   8  10
ENDBRANCH   1   8
BRANCH   6  18
HETATM   18  N4  UNL     1      22.964   2.737  50.588  1.00  0.00    -0.216 N 
HETATM   19  H5  UNL     1      22.374   3.596  50.568  1.00  0.00     0.178 HD
BRANCH  18  20
HETATM   20  C8  UNL     1      22.400   1.401  50.552  1.00  0.00     0.203 C 
BRANCH  20  21
HETATM   21  C9  UNL     1      21.900   0.943  51.870  1.00  0.00     0.070 A 
HETATM   22  C10 UNL     1      22.494  -0.013  52.688  1.00  0.00     0.036 A 
HETATM   23  C11 UNL     1      21.709  -0.150  53.833  1.00  0.00     0.027 A 
HETATM   24  C12 UNL     1      20.677   0.745  53.631  1.00  0.00     0.142 A 
HETATM   25  O2  UNL     1      20.807   1.372  52.480  1.00  0.00    -0.325 OA
ENDBRANCH  20  21
ENDBRANCH  18  20
ENDBRANCH   6  18
TORSDOF 6
ENDMDL
MODEL 2
REMARK VINA RESULT:      -7.8      3.168      6.243
REMARK  6 active torsions:
REMARK  status: ('A' for Active; 'I' for Inactive)
REMARK    1  A    between atoms: O1_1  and  C1_2 
REMARK    2  A    between atoms: C4_5  and  N1_6 
REMARK    3  A    between atoms: N1_6  and  C5_7 
REMARK    4  A    between atoms: C7_12  and  N4_13 
REMARK    5  A    between atoms: N4_13  and  C8_14 
REMARK    6  A    between atoms: C8_14  and  C9_15 
ROOT
HETATM    1  C5  UNL     1      26.344  -0.172  53.990  1.00  0.00     0.745 A 
HETATM    2  N2  UNL     1      27.584  -0.673  54.069  1.00  0.00    -0.030 NA
HETATM    3  C6  UNL     1      28.656  -0.094  53.511  1.00  0.00     0.259 A 
HETATM    4 CL1  UNL     1      30.192  -0.889  53.717  1.00  0.00    -0.040 Cl
HETATM    5  N3  UNL     1      28.491   1.053  52.832  1.00  0.00    -0.030 NA
HETATM    6  C7  UNL     1      27.270   1.600  52.720  1.00  0.00     0.741 A 
HETATM    7  N5  UNL     1      26.246   0.966  53.303  1.00  0.00     0.130 NA
ENDROOT
BRANCH   1   8
HETATM    8  N1  UNL     1      25.272  -0.860  54.616  1.00  0.00    -0.188 N 
HETATM    9  H4  UNL     1      25.531  -1.524  55.407  1.00  0.00     0.184 HD
BRANCH   8  10
HETATM   10  C4  UNL     1      23.883  -0.793  54.337  1.00  0.00     0.049 A 
HETATM   11  C3  UNL     1      22.943  -1.239  55.244  1.00  0.00     0.033 A 
HETATM   12  C2  UNL     1      21.600  -1.192  55.014  1.00  0.00     0.039 A 
HETATM   13  C1  UNL     1      21.102  -0.681  53.834  1.00  0.00     0.065 A 
HETATM   14  C14 UNL     1      21.994  -0.220  52.890  1.00  0.00     0.039 A 
HETATM   15  C13 UNL     1      23.336  -0.294  53.180  1.00  0.00     0.033 A 
BRANCH  13  16
HETATM   16  O1  UNL     1      19.739  -0.662  53.665  1.00  0.00    -0.361 OA
HETATM   17  H1  UNL     1      19.079  -1.155  54.279  1.00  0.00     0.217 HD
ENDBRANCH  13  16
ENDBRANCH   8  10
ENDBRANCH   1   8
BRANCH   6  18
HETATM   18  N4  UNL     1      27.080   2.815  52.003  1.00  0.00    -0.216 N 
HETATM   19  H5  UNL     1      27.507   3.691  52.374  1.00  0.00     0.178 HD
BRANCH  18  20
HETATM   20  C8  UNL     1      26.299   2.784  50.781  1.00  0.00     0.203 C 
BRANCH  20  21
HETATM   21  C9  UNL     1      26.539   3.953  49.904  1.00  0.00     0.070 A 
HETATM   22  C10 UNL     1      25.663   5.014  49.689  1.00  0.00     0.036 A 
HETATM   23  C11 UNL     1      26.269   5.900  48.799  1.00  0.00     0.027 A 
HETATM   24  C12 UNL     1      27.489   5.312  48.530  1.00  0.00     0.142 A 
HETATM   25  O2  UNL     1      27.627   4.177  49.184  1.00  0.00    -0.325 OA
ENDBRANCH  20  21
ENDBRANCH  18  20
ENDBRANCH   6  18
TORSDOF 6
ENDMDL
MODEL 3
REMARK VINA RESULT:      -7.7      3.502      7.273
REMARK  6 active torsions:
REMARK  status: ('A' for Active; 'I' for Inactive)
REMARK    1  A    between atoms: O1_1  and  C1_2 
REMARK    2  A    between atoms: C4_5  and  N1_6 
REMARK    3  A    between atoms: N1_6  and  C5_7 
REMARK    4  A    between atoms: C7_12  and  N4_13 
REMARK    5  A    between atoms: N4_13  and  C8_14 
REMARK    6  A    between atoms: C8_14  and  C9_15 
ROOT
HETATM    1  C5  UNL     1      23.386   0.743  52.404  1.00  0.00     0.745 A 
HETATM    2  N2  UNL     1      22.254   0.118  52.759  1.00  0.00    -0.030 NA
HETATM    3  C6  UNL     1      22.180  -0.775  53.754  1.00  0.00     0.259 A 
HETATM    4 CL1  UNL     1      20.623  -1.486  54.075  1.00  0.00    -0.040 Cl
HETATM    5  N3  UNL     1      23.295  -1.071  54.442  1.00  0.00    -0.030 NA
HETATM    6  C7  UNL     1      24.457  -0.477  54.129  1.00  0.00     0.741 A 
HETATM    7  N5  UNL     1      24.457   0.406  53.123  1.00  0.00     0.130 NA
ENDROOT
BRANCH   1   8
HETATM    8  N1  UNL     1      23.363   1.675  51.334  1.00  0.00    -0.188 N 
HETATM    9  H4  UNL     1      23.166   1.282  50.365  1.00  0.00     0.184 HD
BRANCH   8  10
HETATM   10  C4  UNL     1      23.568   3.078  51.367  1.00  0.00     0.049 A 
HETATM   11  C3  UNL     1      23.204   3.835  52.462  1.00  0.00     0.033 A 
HETATM   12  C2  UNL     1      23.385   5.184  52.532  1.00  0.00     0.039 A 
HETATM   13  C1  UNL     1      23.956   5.877  51.486  1.00  0.00     0.065 A 
HETATM   14  C14 UNL     1      24.341   5.173  50.366  1.00  0.00     0.039 A 
HETATM   15  C13 UNL     1      24.133   3.815  50.354  1.00  0.00     0.033 A 
BRANCH  13  16
HETATM   16  O1  UNL     1      24.110   7.236  51.622  1.00  0.00    -0.361 OA
HETATM   17  H1  UNL     1      23.430   7.926  51.280  1.00  0.00     0.217 HD
ENDBRANCH  13  16
ENDBRANCH   8  10
ENDBRANCH   1   8
BRANCH   6  18
HETATM   18  N4  UNL     1      25.647  -0.781  54.850  1.00  0.00    -0.216 N 
HETATM   19  H5  UNL     1      25.746  -1.723  55.284  1.00  0.00     0.178 HD
BRANCH  18  20
HETATM   20  C8  UNL     1      26.675   0.237  54.949  1.00  0.00     0.203 C 
BRANCH  20  21
HETATM   21  C9  UNL     1      27.960  -0.168  54.330  1.00  0.00     0.070 A 
HETATM   22  C10 UNL     1      29.088   0.632  54.179  1.00  0.00     0.036 A 
HETATM   23  C11 UNL     1      30.075  -0.128  53.551  1.00  0.00     0.027 A 
HETATM   24  C12 UNL     1      29.472  -1.355  53.361  1.00  0.00     0.142 A 
HETATM   25  O2  UNL     1      28.238  -1.358  53.822  1.00  0.00    -0.325 OA
ENDBRANCH  20  21
ENDBRANCH  18  20
ENDBRANCH   6  18
TORSDOF 6
ENDMDL
MODEL 4
REMARK VINA RESULT:      -7.4      2.135      3.056
REMARK  6 active torsions:
REMARK  status: ('A' for Active; 'I' for Inactive)
REMARK    1  A    between atoms: O1_1  and  C1_2 
REMARK    2  A    between atoms: C4_5  and  N1_6 
REMARK    3  A    between atoms: N1_6  and  C5_7 
REMARK    4  A    between atoms: C7_12  and  N4_13 
REMARK    5  A    between atoms: N4_13  and  C8_14 
REMARK    6  A    between atoms: C8_14  and  C9_15 
ROOT
HETATM    1  C5  UNL     1      26.232   2.340  51.559  1.00  0.00     0.745 A 
HETATM    2  N2  UNL     1      26.932   3.112  50.716  1.00  0.00    -0.030 NA
HETATM    3  C6  UNL     1      26.397   3.730  49.655  1.00  0.00     0.259 A 
HETATM    4 CL1  UNL     1      27.461   4.695  48.671  1.00  0.00    -0.040 Cl
HETATM    5  N3  UNL     1      25.085   3.575  49.411  1.00  0.00    -0.030 NA
HETATM    6  C7  UNL     1      24.334   2.812  50.222  1.00  0.00     0.741 A 
HETATM    7  N5  UNL     1      24.937   2.225  51.262  1.00  0.00     0.130 NA
ENDROOT
BRANCH   1   8
HETATM    8  N1  UNL     1      26.891   1.727  52.656  1.00  0.00    -0.188 N 
HETATM    9  H4  UNL     1      27.099   2.350  53.493  1.00  0.00     0.184 HD
BRANCH   8  10
HETATM   10  C4  UNL     1      27.322   0.384  52.803  1.00  0.00     0.049 A 
HETATM   11  C3  UNL     1      28.561   0.077  53.326  1.00  0.00     0.033 A 
HETATM   12  C2  UNL     1      29.012  -1.200  53.484  1.00  0.00     0.039 A 
HETATM   13  C1  UNL     1      28.230  -2.276  53.120  1.00  0.00     0.065 A 
HETATM   14  C14 UNL     1      26.981  -2.030  52.592  1.00  0.00     0.039 A 
HETATM   15  C13 UNL     1      26.583  -0.722  52.457  1.00  0.00     0.033 A 
BRANCH  13  16
HETATM   16  O1  UNL     1      28.743  -3.537  53.305  1.00  0.00    -0.361 OA
HETATM   17  H1  UNL     1      29.748  -3.748  53.331  1.00  0.00     0.217 HD
ENDBRANCH  13  16
ENDBRANCH   8  10
ENDBRANCH   1   8
BRANCH   6  18
HETATM   18  N4  UNL     1      22.943   2.639  49.975  1.00  0.00    -0.216 N 
HETATM   19  H5  UNL     1      22.643   2.104  49.132  1.00  0.00     0.178 HD
BRANCH  18  20
HETATM   20  C8  UNL     1      21.997   3.216  50.911  1.00  0.00     0.203 C 
BRANCH  20  21
HETATM   21  C9  UNL     1      21.708   4.644  50.643  1.00  0.00     0.070 A 
HETATM   22  C10 UNL     1      22.113   5.725  51.421  1.00  0.00     0.036 A 
HETATM   23  C11 UNL     1      21.637   6.891  50.822  1.00  0.00     0.027 A 
HETATM   24  C12 UNL     1      20.965   6.434  49.705  1.00  0.00     0.142 A 
HETATM   25  O2  UNL     1      21.019   5.121  49.619  1.00  0.00    -0.325 OA
ENDBRANCH  20  21
ENDBRANCH  18  20
ENDBRANCH   6  18
TORSDOF 6
ENDMDL
MODEL 5
REMARK VINA RESULT:      -7.3      2.517      3.698
REMARK  6 active torsions:
REMARK  status: ('A' for Active; 'I' for Inactive)
REMARK    1  A    between atoms: O1_1  and  C1_2 
REMARK    2  A    between atoms: C4_5  and  N1_6 
REMARK    3  A    between atoms: N1_6  and  C5_7 
REMARK    4  A    between atoms: C7_12  and  N4_13 
REMARK    5  A    between atoms: N4_13  and  C8_14 
REMARK    6  A    between atoms: C8_14  and  C9_15 
ROOT
HETATM    1  C5  UNL     1      26.256   2.435  51.546  1.00  0.00     0.745 A 
HETATM    2  N2  UNL     1      27.026   3.144  50.709  1.00  0.00    -0.030 NA
HETATM    3  C6  UNL     1      26.557   3.789  49.633  1.00  0.00     0.259 A 
HETATM    4 CL1  UNL     1      27.707   4.662  48.659  1.00  0.00    -0.040 Cl
HETATM    5  N3  UNL     1      25.242   3.730  49.367  1.00  0.00    -0.030 NA
HETATM    6  C7  UNL     1      24.422   3.032  50.171  1.00  0.00     0.741 A 
HETATM    7  N5  UNL     1      24.961   2.413  51.228  1.00  0.00     0.130 NA
ENDROOT
BRANCH   1   8
HETATM    8  N1  UNL     1      26.849   1.786  52.661  1.00  0.00    -0.188 N 
HETATM    9  H4  UNL     1      27.009   2.383  53.527  1.00  0.00     0.184 HD
BRANCH   8  10
HETATM   10  C4  UNL     1      27.266   0.438  52.792  1.00  0.00     0.049 A 
HETATM   11  C3  UNL     1      28.491   0.112  53.336  1.00  0.00     0.033 A 
HETATM   12  C2  UNL     1      28.930  -1.171  53.479  1.00  0.00     0.039 A 
HETATM   13  C1  UNL     1      28.149  -2.235  53.078  1.00  0.00     0.065 A 
HETATM   14  C14 UNL     1      26.913  -1.970  52.527  1.00  0.00     0.039 A 
HETATM   15  C13 UNL     1      26.528  -0.656  52.409  1.00  0.00     0.033 A 
BRANCH  13  16
HETATM   16  O1  UNL     1      28.649  -3.502  53.251  1.00  0.00    -0.361 OA
HETATM   17  H1  UNL     1      28.170  -4.355  52.935  1.00  0.00     0.217 HD
ENDBRANCH  13  16
ENDBRANCH   8  10
ENDBRANCH   1   8
BRANCH   6  18
HETATM   18  N4  UNL     1      23.026   2.960  49.900  1.00  0.00    -0.216 N 
HETATM   19  H5  UNL     1      22.354   3.257  50.640  1.00  0.00     0.178 HD
BRANCH  18  20
HETATM   20  C8  UNL     1      22.597   2.475  48.603  1.00  0.00     0.203 C 
BRANCH  20  21
HETATM   21  C9  UNL     1      22.284   3.563  47.647  1.00  0.00     0.070 A 
HETATM   22  C10 UNL     1      21.924   3.406  46.311  1.00  0.00     0.036 A 
HETATM   23  C11 UNL     1      21.716   4.674  45.769  1.00  0.00     0.027 A 
HETATM   24  C12 UNL     1      21.968   5.528  46.825  1.00  0.00     0.142 A 
HETATM   25  O2  UNL     1      22.297   4.860  47.911  1.00  0.00    -0.325 OA
ENDBRANCH  20  21
ENDBRANCH  18  20
ENDBRANCH   6  18
TORSDOF 6
ENDMDL
MODEL 6
REMARK VINA RESULT:      -7.2      3.587      6.603
REMARK  6 active torsions:
REMARK  status: ('A' for Active; 'I' for Inactive)
REMARK    1  A    between atoms: O1_1  and  C1_2 
REMARK    2  A    between atoms: C4_5  and  N1_6 
REMARK    3  A    between atoms: N1_6  and  C5_7 
REMARK    4  A    between atoms: C7_12  and  N4_13 
REMARK    5  A    between atoms: N4_13  and  C8_14 
REMARK    6  A    between atoms: C8_14  and  C9_15 
ROOT
HETATM    1  C5  UNL     1      23.196   1.266  52.509  1.00  0.00     0.745 A 
HETATM    2  N2  UNL     1      22.021   0.683  52.785  1.00  0.00    -0.030 NA
HETATM    3  C6  UNL     1      21.891  -0.394  53.572  1.00  0.00     0.259 A 
HETATM    4 CL1  UNL     1      20.283  -1.015  53.819  1.00  0.00    -0.040 Cl
HETATM    5  N3  UNL     1      22.994  -0.928  54.122  1.00  0.00    -0.030 NA
HETATM    6  C7  UNL     1      24.199  -0.387  53.879  1.00  0.00     0.741 A 
HETATM    7  N5  UNL     1      24.251   0.688  53.083  1.00  0.00     0.130 NA
ENDROOT
BRANCH   1   8
HETATM    8  N1  UNL     1      23.229   2.404  51.663  1.00  0.00    -0.188 N 
HETATM    9  H4  UNL     1      22.306   2.914  51.516  1.00  0.00     0.184 HD
BRANCH   8  10
HETATM   10  C4  UNL     1      24.329   2.972  50.971  1.00  0.00     0.049 A 
HETATM   11  C3  UNL     1      25.622   2.552  51.206  1.00  0.00     0.033 A 
HETATM   12  C2  UNL     1      26.706   3.072  50.563  1.00  0.00     0.039 A 
HETATM   13  C1  UNL     1      26.559   4.067  49.619  1.00  0.00     0.065 A 
HETATM   14  C14 UNL     1      25.289   4.526  49.343  1.00  0.00     0.039 A 
HETATM   15  C13 UNL     1      24.237   3.963  50.024  1.00  0.00     0.033 A 
BRANCH  13  16
HETATM   16  O1  UNL     1      27.691   4.546  49.007  1.00  0.00    -0.361 OA
HETATM   17  H1  UNL     1      28.097   5.471  49.197  1.00  0.00     0.217 HD
ENDBRANCH  13  16
ENDBRANCH   8  10
ENDBRANCH   1   8
BRANCH   6  18
HETATM   18  N4  UNL     1      25.376  -0.943  54.455  1.00  0.00    -0.216 N 
HETATM   19  H5  UNL     1      25.604  -1.943  54.267  1.00  0.00     0.178 HD
BRANCH  18  20
HETATM   20  C8  UNL     1      26.211  -0.093  55.281  1.00  0.00     0.203 C 
BRANCH  20  21
HETATM   21  C9  UNL     1      27.528   0.202  54.670  1.00  0.00     0.070 A 
HETATM   22  C10 UNL     1      28.216  -0.604  53.767  1.00  0.00     0.036 A 
HETATM   23  C11 UNL     1      29.410   0.037  53.440  1.00  0.00     0.027 A 
HETATM   24  C12 UNL     1      29.368   1.206  54.175  1.00  0.00     0.142 A 
HETATM   25  O2  UNL     1      28.262   1.282  54.886  1.00  0.00    -0.325 OA
ENDBRANCH  20  21
ENDBRANCH  18  20
ENDBRANCH   6  18
TORSDOF 6
ENDMDL
MODEL 7
REMARK VINA RESULT:      -7.1      1.653      2.432
REMARK  6 active torsions:
REMARK  status: ('A' for Active; 'I' for Inactive)
REMARK    1  A    between atoms: O1_1  and  C1_2 
REMARK    2  A    between atoms: C4_5  and  N1_6 
REMARK    3  A    between atoms: N1_6  and  C5_7 
REMARK    4  A    between atoms: C7_12  and  N4_13 
REMARK    5  A    between atoms: N4_13  and  C8_14 
REMARK    6  A    between atoms: C8_14  and  C9_15 
ROOT
HETATM    1  C5  UNL     1      24.921   3.331  51.249  1.00  0.00     0.745 A 
HETATM    2  N2  UNL     1      24.684   3.992  50.107  1.00  0.00    -0.030 NA
HETATM    3  C6  UNL     1      23.457   4.292  49.663  1.00  0.00     0.259 A 
HETATM    4 CL1  UNL     1      23.342   5.158  48.156  1.00  0.00    -0.040 Cl
HETATM    5  N3  UNL     1      22.395   3.915  50.393  1.00  0.00    -0.030 NA
HETATM    6  C7  UNL     1      22.572   3.248  51.546  1.00  0.00     0.741 A 
HETATM    7  N5  UNL     1      23.827   2.983  51.927  1.00  0.00     0.130 NA
ENDROOT
BRANCH   1   8
HETATM    8  N1  UNL     1      26.259   3.060  51.635  1.00  0.00    -0.188 N 
HETATM    9  H4  UNL     1      26.954   3.861  51.535  1.00  0.00     0.184 HD
BRANCH   8  10
HETATM   10  C4  UNL     1      26.818   1.859  52.142  1.00  0.00     0.049 A 
HETATM   11  C3  UNL     1      27.909   1.871  52.986  1.00  0.00     0.033 A 
HETATM   12  C2  UNL     1      28.475   0.739  53.494  1.00  0.00     0.039 A 
HETATM   13  C1  UNL     1      27.969  -0.505  53.183  1.00  0.00     0.065 A 
HETATM   14  C14 UNL     1      26.878  -0.579  52.345  1.00  0.00     0.039 A 
HETATM   15  C13 UNL     1      26.352   0.597  51.864  1.00  0.00     0.033 A 
BRANCH  13  16
HETATM   16  O1  UNL     1      28.585  -1.605  53.729  1.00  0.00    -0.361 OA
HETATM   17  H1  UNL     1      29.387  -2.084  53.300  1.00  0.00     0.217 HD
ENDBRANCH  13  16
ENDBRANCH   8  10
ENDBRANCH   1   8
BRANCH   6  18
HETATM   18  N4  UNL     1      21.455   2.842  52.330  1.00  0.00    -0.216 N 
HETATM   19  H5  UNL     1      21.025   3.527  52.987  1.00  0.00     0.178 HD
BRANCH  18  20
HETATM   20  C8  UNL     1      20.961   1.487  52.180  1.00  0.00     0.203 C 
BRANCH  20  21
HETATM   21  C9  UNL     1      21.573   0.533  53.135  1.00  0.00     0.070 A 
HETATM   22  C10 UNL     1      21.020   0.107  54.340  1.00  0.00     0.036 A 
HETATM   23  C11 UNL     1      21.913  -0.787  54.931  1.00  0.00     0.027 A 
HETATM   24  C12 UNL     1      22.962  -0.845  54.035  1.00  0.00     0.142 A 
HETATM   25  O2  UNL     1      22.743  -0.067  52.994  1.00  0.00    -0.325 OA
ENDBRANCH  20  21
ENDBRANCH  18  20
ENDBRANCH   6  18
TORSDOF 6
ENDMDL
MODEL 8
REMARK VINA RESULT:      -7.1      3.195      5.480
REMARK  6 active torsions:
REMARK  status: ('A' for Active; 'I' for Inactive)
REMARK    1  A    between atoms: O1_1  and  C1_2 
REMARK    2  A    between atoms: C4_5  and  N1_6 
REMARK    3  A    between atoms: N1_6  and  C5_7 
REMARK    4  A    between atoms: C7_12  and  N4_13 
REMARK    5  A    between atoms: N4_13  and  C8_14 
REMARK    6  A    between atoms: C8_14  and  C9_15 
ROOT
HETATM    1  C5  UNL     1      24.350   1.571  51.810  1.00  0.00     0.745 A 
HETATM    2  N2  UNL     1      23.139   1.305  51.300  1.00  0.00    -0.030 NA
HETATM    3  C6  UNL     1      22.644   1.906  50.210  1.00  0.00     0.259 A 
HETATM    4 CL1  UNL     1      21.050   1.433  49.691  1.00  0.00    -0.040 Cl
HETATM    5  N3  UNL     1      23.392   2.829  49.585  1.00  0.00    -0.030 NA
HETATM    6  C7  UNL     1      24.613   3.137  50.052  1.00  0.00     0.741 A 
HETATM    7  N5  UNL     1      25.043   2.496  51.146  1.00  0.00     0.130 NA
ENDROOT
BRANCH   1   8
HETATM    8  N1  UNL     1      24.786   0.879  52.970  1.00  0.00    -0.188 N 
HETATM    9  H4  UNL     1      24.052   0.698  53.719  1.00  0.00     0.184 HD
BRANCH   8  10
HETATM   10  C4  UNL     1      26.079   0.387  53.284  1.00  0.00     0.049 A 
HETATM   11  C3  UNL     1      26.665  -0.622  52.547  1.00  0.00     0.033 A 
HETATM   12  C2  UNL     1      27.904  -1.122  52.817  1.00  0.00     0.039 A 
HETATM   13  C1  UNL     1      28.653  -0.630  53.864  1.00  0.00     0.065 A 
HETATM   14  C14 UNL     1      28.119   0.379  54.635  1.00  0.00     0.039 A 
HETATM   15  C13 UNL     1      26.865   0.842  54.315  1.00  0.00     0.033 A 
BRANCH  13  16
HETATM   16  O1  UNL     1      29.894  -1.178  54.081  1.00  0.00    -0.361 OA
HETATM   17  H1  UNL     1      30.056  -2.176  54.261  1.00  0.00     0.217 HD
ENDBRANCH  13  16
ENDBRANCH   8  10
ENDBRANCH   1   8
BRANCH   6  18
HETATM   18  N4  UNL     1      25.417   4.113  49.399  1.00  0.00    -0.216 N 
HETATM   19  H5  UNL     1      24.963   4.976  49.030  1.00  0.00     0.178 HD
BRANCH  18  20
HETATM   20  C8  UNL     1      26.841   3.867  49.276  1.00  0.00     0.203 C 
BRANCH  20  21
HETATM   21  C9  UNL     1      27.585   5.013  48.701  1.00  0.00     0.070 A 
HETATM   22  C10 UNL     1      27.054   6.258  48.376  1.00  0.00     0.036 A 
HETATM   23  C11 UNL     1      28.085   7.046  47.866  1.00  0.00     0.027 A 
HETATM   24  C12 UNL     1      29.188   6.217  47.916  1.00  0.00     0.142 A 
HETATM   25  O2  UNL     1      28.874   5.035  48.406  1.00  0.00    -0.325 OA
ENDBRANCH  20  21
ENDBRANCH  18  20
ENDBRANCH   6  18
TORSDOF 6
ENDMDL
MODEL 9
REMARK VINA RESULT:      -7.1      2.999      5.057
REMARK  6 active torsions:
REMARK  status: ('A' for Active; 'I' for Inactive)
REMARK    1  A    between atoms: O1_1  and  C1_2 
REMARK    2  A    between atoms: C4_5  and  N1_6 
REMARK    3  A    between atoms: N1_6  and  C5_7 
REMARK    4  A    between atoms: C7_12  and  N4_13 
REMARK    5  A    between atoms: N4_13  and  C8_14 
REMARK    6  A    between atoms: C8_14  and  C9_15 
ROOT
HETATM    1  C5  UNL     1      26.465   2.451  52.180  1.00  0.00     0.745 A 
HETATM    2  N2  UNL     1      25.178   2.737  52.422  1.00  0.00    -0.030 NA
HETATM    3  C6  UNL     1      24.395   3.416  51.573  1.00  0.00     0.259 A 
HETATM    4 CL1  UNL     1      22.745   3.693  52.055  1.00  0.00    -0.040 Cl
HETATM    5  N3  UNL     1      24.918   3.842  50.412  1.00  0.00    -0.030 NA
HETATM    6  C7  UNL     1      26.204   3.587  50.118  1.00  0.00     0.741 A 
HETATM    7  N5  UNL     1      26.925   2.902  51.013  1.00  0.00     0.130 NA
ENDROOT
BRANCH   1   8
HETATM    8  N1  UNL     1      27.212   1.724  53.143  1.00  0.00    -0.188 N 
HETATM    9  H4  UNL     1      27.526   2.263  54.006  1.00  0.00     0.184 HD
BRANCH   8  10
HETATM   10  C4  UNL     1      27.609   0.363  53.124  1.00  0.00     0.049 A 
HETATM   11  C3  UNL     1      26.742  -0.636  52.732  1.00  0.00     0.033 A 
HETATM   12  C2  UNL     1      27.086  -1.955  52.700  1.00  0.00     0.039 A 
HETATM   13  C1  UNL     1      28.351  -2.366  53.065  1.00  0.00     0.065 A 
HETATM   14  C14 UNL     1      29.260  -1.411  53.465  1.00  0.00     0.039 A 
HETATM   15  C13 UNL     1      28.855  -0.098  53.477  1.00  0.00     0.033 A 
BRANCH  13  16
HETATM   16  O1  UNL     1      28.632  -3.709  53.009  1.00  0.00    -0.361 OA
HETATM   17  H1  UNL     1      28.432  -4.368  53.771  1.00  0.00     0.217 HD
ENDBRANCH  13  16
ENDBRANCH   8  10
ENDBRANCH   1   8
BRANCH   6  18
HETATM   18  N4  UNL     1      26.771   4.032  48.890  1.00  0.00    -0.216 N 
HETATM   19  H5  UNL     1      26.581   3.490  48.021  1.00  0.00     0.178 HD
BRANCH  18  20
HETATM   20  C8  UNL     1      27.593   5.227  48.902  1.00  0.00     0.203 C 
BRANCH  20  21
HETATM   21  C9  UNL     1      26.803   6.480  48.865  1.00  0.00     0.070 A 
HETATM   22  C10 UNL     1      26.583   7.281  47.748  1.00  0.00     0.036 A 
HETATM   23  C11 UNL     1      25.791   8.360  48.141  1.00  0.00     0.027 A 
HETATM   24  C12 UNL     1      25.580   8.139  49.488  1.00  0.00     0.142 A 
HETATM   25  O2  UNL     1      26.179   7.037  49.890  1.00  0.00    -0.325 OA
ENDBRANCH  20  21
ENDBRANCH  18  20
ENDBRANCH   6  18
TORSDOF 6
ENDMDL
