MODEL 1
REMARK VINA RESULT:      -7.8      0.000      0.000
REMARK  6 active torsions:
REMARK  status: ('A' for Active; 'I' for Inactive)
REMARK    1  A    between atoms: C3_3  and  N1_4 
REMARK    2  A    between atoms: N1_4  and  C4_5 
REMARK    3  A    between atoms: C13_17  and  C14_18 
REMARK    4  A    between atoms: C14_18  and  C15_19 
REMARK    5  A    between atoms: C15_19  and  N4_20 
REMARK       I    between atoms: N4_20  and  C16_21 
REMARK    6  A    between atoms: C16_21  and  C17_23 
ROOT
HETATM    1  C1  UNL     1      24.180   3.193  53.011  1.00  0.00     0.028 C 
HETATM    2  C2  UNL     1      23.484   2.680  52.009  1.00  0.00     0.011 A 
HETATM    3  C3  UNL     1      23.404   3.396  50.832  1.00  0.00     0.067 A 
HETATM    4  C10 UNL     1      22.665   2.811  49.824  1.00  0.00     0.089 A 
HETATM    5  C11 UNL     1      22.533   3.498  48.566  1.00  0.00     0.103 C 
HETATM    6  N2  UNL     1      22.436   4.042  47.568  1.00  0.00    -0.191 NA
HETATM    7  C12 UNL     1      22.053   1.586  50.002  1.00  0.00     0.142 A 
HETATM    8  N3  UNL     1      22.164   0.931  51.166  1.00  0.00    -0.259 NA
HETATM    9  C13 UNL     1      22.871   1.457  52.179  1.00  0.00     0.066 A 
ENDROOT
BRANCH   3  10
HETATM   10  N1  UNL     1      24.050   4.656  50.692  1.00  0.00    -0.354 N 
HETATM   11  H3  UNL     1      23.529   5.382  51.221  1.00  0.00     0.166 HD
BRANCH  10  12
HETATM   12  C4  UNL     1      25.236   4.886  49.941  1.00  0.00     0.033 A 
HETATM   13  C5  UNL     1      26.142   3.852  49.851  1.00  0.00     0.029 A 
HETATM   14  C6  UNL     1      27.300   4.107  49.106  1.00  0.00     0.004 A 
HETATM   15  C7  UNL     1      27.476   5.359  48.506  1.00  0.00     0.019 A 
HETATM   16  C8  UNL     1      26.523   6.346  48.641  1.00  0.00     0.013 A 
HETATM   17 BR1  UNL     1      26.739   8.078  47.827  1.00  0.00    -0.051 Br
HETATM   18  C9  UNL     1      25.355   6.138  49.374  1.00  0.00     0.048 A 
ENDBRANCH  10  12
ENDBRANCH   3  10
BRANCH   9  19
HETATM   19  C14 UNL     1      22.932   0.748  53.296  1.00  0.00     0.025 C 
BRANCH  19  20
HETATM   20  C15 UNL     1      23.566  -0.590  53.375  1.00  0.00     0.153 C 
BRANCH  20  21
HETATM   21  N4  UNL     1      24.989  -0.464  53.131  1.00  0.00    -0.347 N 
HETATM   22  C16 UNL     1      25.932  -0.567  54.189  1.00  0.00     0.296 C 
HETATM   23  O1  UNL     1      25.600  -0.773  55.395  1.00  0.00    -0.258 OA
HETATM   24  H12 UNL     1      25.371  -0.292  52.169  1.00  0.00     0.163 HD
BRANCH  22  25
HETATM   25  C17 UNL     1      27.342  -0.436  53.908  1.00  0.00    -0.006 C 
HETATM   26  C18 UNL     1      28.539  -0.325  53.690  1.00  0.00    -0.101 C 
HETATM   27  C19 UNL     1      29.977  -0.173  53.443  1.00  0.00     0.112 C 
ENDBRANCH  22  25
ENDBRANCH  20  21
ENDBRANCH  19  20
ENDBRANCH   9  19
TORSDOF 6
ENDMDL
MODEL 2
REMARK VINA RESULT:      -7.6      3.567      5.565
REMARK  6 active torsions:
REMARK  status: ('A' for Active; 'I' for Inactive)
REMARK    1  A    between atoms: C3_3  and  N1_4 
REMARK    2  A    between atoms: N1_4  and  C4_5 
REMARK    3  A    between atoms: C13_17  and  C14_18 
REMARK    4  A    between atoms: C14_18  and  C15_19 
REMARK    5  A    between atoms: C15_19  and  N4_20 
REMARK       I    between atoms: N4_20  and  C16_21 
REMARK    6  A    between atoms: C16_21  and  C17_23 
ROOT
HETATM    1  C1  UNL     1      22.092   1.886  50.300  1.00  0.00     0.028 C 
HETATM    2  C2  UNL     1      22.960   1.537  51.236  1.00  0.00     0.011 A 
HETATM    3  C3  UNL     1      24.254   2.009  51.140  1.00  0.00     0.067 A 
HETATM    4  C10 UNL     1      25.112   1.612  52.145  1.00  0.00     0.089 A 
HETATM    5  C11 UNL     1      26.479   2.061  52.114  1.00  0.00     0.103 C 
HETATM    6  N2  UNL     1      27.559   2.425  52.089  1.00  0.00    -0.191 NA
HETATM    7  C12 UNL     1      24.684   0.794  53.173  1.00  0.00     0.142 A 
HETATM    8  N3  UNL     1      23.415   0.364  53.219  1.00  0.00    -0.259 NA
HETATM    9  C13 UNL     1      22.540   0.721  52.265  1.00  0.00     0.066 A 
ENDROOT
BRANCH   3  10
HETATM   10  N1  UNL     1      24.651   2.849  50.063  1.00  0.00    -0.354 N 
HETATM   11  H3  UNL     1      24.766   2.286  49.199  1.00  0.00     0.166 HD
BRANCH  10  12
HETATM   12  C4  UNL     1      24.860   4.253  50.158  1.00  0.00     0.033 A 
HETATM   13  C5  UNL     1      24.067   4.956  51.039  1.00  0.00     0.029 A 
HETATM   14  C6  UNL     1      24.294   6.335  51.111  1.00  0.00     0.004 A 
HETATM   15  C7  UNL     1      25.284   6.917  50.311  1.00  0.00     0.019 A 
HETATM   16  C8  UNL     1      26.039   6.147  49.451  1.00  0.00     0.013 A 
HETATM   17 BR1  UNL     1      27.406   6.921  48.338  1.00  0.00    -0.051 Br
HETATM   18  C9  UNL     1      25.847   4.770  49.345  1.00  0.00     0.048 A 
ENDBRANCH  10  12
ENDBRANCH   3  10
BRANCH   9  19
HETATM   19  C14 UNL     1      21.305   0.255  52.383  1.00  0.00     0.025 C 
BRANCH  19  20
HETATM   20  C15 UNL     1      20.526   0.327  53.643  1.00  0.00     0.153 C 
BRANCH  20  21
HETATM   21  N4  UNL     1      19.818  -0.922  53.844  1.00  0.00    -0.347 N 
HETATM   22  C16 UNL     1      18.542  -1.148  53.262  1.00  0.00     0.296 C 
HETATM   23  O1  UNL     1      17.947  -0.292  52.542  1.00  0.00    -0.258 OA
HETATM   24  H12 UNL     1      20.221  -1.697  54.424  1.00  0.00     0.163 HD
BRANCH  22  25
HETATM   25  C17 UNL     1      17.865  -2.405  53.485  1.00  0.00    -0.006 C 
HETATM   26  C18 UNL     1      17.300  -3.473  53.656  1.00  0.00    -0.101 C 
HETATM   27  C19 UNL     1      16.607  -4.754  53.839  1.00  0.00     0.112 C 
ENDBRANCH  22  25
ENDBRANCH  20  21
ENDBRANCH  19  20
ENDBRANCH   9  19
TORSDOF 6
ENDMDL
MODEL 3
REMARK VINA RESULT:      -7.5      3.329      6.467
REMARK  6 active torsions:
REMARK  status: ('A' for Active; 'I' for Inactive)
REMARK    1  A    between atoms: C3_3  and  N1_4 
REMARK    2  A    between atoms: N1_4  and  C4_5 
REMARK    3  A    between atoms: C13_17  and  C14_18 
REMARK    4  A    between atoms: C14_18  and  C15_19 
REMARK    5  A    between atoms: C15_19  and  N4_20 
REMARK       I    between atoms: N4_20  and  C16_21 
REMARK    6  A    between atoms: C16_21  and  C17_23 
ROOT
HETATM    1  C1  UNL     1      23.240   1.602  50.907  1.00  0.00     0.028 C 
HETATM    2  C2  UNL     1      22.462   1.274  51.926  1.00  0.00     0.011 A 
HETATM    3  C3  UNL     1      22.915   0.324  52.819  1.00  0.00     0.067 A 
HETATM    4  C10 UNL     1      22.061   0.024  53.860  1.00  0.00     0.089 A 
HETATM    5  C11 UNL     1      22.462  -0.958  54.832  1.00  0.00     0.103 C 
HETATM    6  N2  UNL     1      22.786  -1.734  55.603  1.00  0.00    -0.191 NA
HETATM    7  C12 UNL     1      20.834   0.647  53.983  1.00  0.00     0.142 A 
HETATM    8  N3  UNL     1      20.442   1.565  53.088  1.00  0.00    -0.259 NA
HETATM    9  C13 UNL     1      21.236   1.892  52.056  1.00  0.00     0.066 A 
ENDROOT
BRANCH   3  10
HETATM   10  N1  UNL     1      24.187  -0.293  52.653  1.00  0.00    -0.354 N 
HETATM   11  H3  UNL     1      24.079  -1.200  52.161  1.00  0.00     0.166 HD
BRANCH  10  12
HETATM   12  C4  UNL     1      25.423   0.255  53.095  1.00  0.00     0.033 A 
HETATM   13  C5  UNL     1      25.422   1.564  53.523  1.00  0.00     0.029 A 
HETATM   14  C6  UNL     1      26.652   2.076  53.953  1.00  0.00     0.004 A 
HETATM   15  C7  UNL     1      27.788   1.260  53.928  1.00  0.00     0.019 A 
HETATM   16  C8  UNL     1      27.711  -0.043  53.485  1.00  0.00     0.013 A 
HETATM   17 BR1  UNL     1      29.259  -1.188  53.439  1.00  0.00    -0.051 Br
HETATM   18  C9  UNL     1      26.508  -0.596  53.048  1.00  0.00     0.048 A 
ENDBRANCH  10  12
ENDBRANCH   3  10
BRANCH   9  19
HETATM   19  C14 UNL     1      20.776   2.807  51.216  1.00  0.00     0.025 C 
BRANCH  19  20
HETATM   20  C15 UNL     1      20.586   4.230  51.589  1.00  0.00     0.153 C 
BRANCH  20  21
HETATM   21  N4  UNL     1      21.669   5.021  51.038  1.00  0.00    -0.347 N 
HETATM   22  C16 UNL     1      22.861   5.256  51.776  1.00  0.00     0.296 C 
HETATM   23  O1  UNL     1      23.054   4.798  52.942  1.00  0.00    -0.258 OA
HETATM   24  H12 UNL     1      21.611   5.447  50.081  1.00  0.00     0.163 HD
BRANCH  22  25
HETATM   25  C17 UNL     1      23.918   6.050  51.196  1.00  0.00    -0.006 C 
HETATM   26  C18 UNL     1      24.809   6.736  50.720  1.00  0.00    -0.101 C 
HETATM   27  C19 UNL     1      25.862   7.579  50.143  1.00  0.00     0.112 C 
ENDBRANCH  22  25
ENDBRANCH  20  21
ENDBRANCH  19  20
ENDBRANCH   9  19
TORSDOF 6
ENDMDL
MODEL 4
REMARK VINA RESULT:      -7.5      3.635      6.572
REMARK  6 active torsions:
REMARK  status: ('A' for Active; 'I' for Inactive)
REMARK    1  A    between atoms: C3_3  and  N1_4 
REMARK    2  A    between atoms: N1_4  and  C4_5 
REMARK    3  A    between atoms: C13_17  and  C14_18 
REMARK    4  A    between atoms: C14_18  and  C15_19 
REMARK    5  A    between atoms: C15_19  and  N4_20 
REMARK       I    between atoms: N4_20  and  C16_21 
REMARK    6  A    between atoms: C16_21  and  C17_23 
ROOT
HETATM    1  C1  UNL     1      23.406   4.864  52.741  1.00  0.00     0.028 C 
HETATM    2  C2  UNL     1      23.396   4.637  51.437  1.00  0.00     0.011 A 
HETATM    3  C3  UNL     1      22.804   3.478  50.978  1.00  0.00     0.067 A 
HETATM    4  C10 UNL     1      22.824   3.297  49.610  1.00  0.00     0.089 A 
HETATM    5  C11 UNL     1      22.227   2.111  49.054  1.00  0.00     0.103 C 
HETATM    6  N2  UNL     1      21.748   1.173  48.616  1.00  0.00    -0.191 NA
HETATM    7  C12 UNL     1      23.406   4.228  48.771  1.00  0.00     0.142 A 
HETATM    8  N3  UNL     1      23.967   5.338  49.271  1.00  0.00    -0.259 NA
HETATM    9  C13 UNL     1      23.974   5.562  50.594  1.00  0.00     0.066 A 
ENDROOT
BRANCH   3  10
HETATM   10  N1  UNL     1      22.217   2.546  51.878  1.00  0.00    -0.354 N 
HETATM   11  H3  UNL     1      21.215   2.775  52.023  1.00  0.00     0.166 HD
BRANCH  10  12
HETATM   12  C4  UNL     1      22.903   1.459  52.489  1.00  0.00     0.033 A 
HETATM   13  C5  UNL     1      22.180   0.644  53.332  1.00  0.00     0.029 A 
HETATM   14  C6  UNL     1      22.881  -0.417  53.918  1.00  0.00     0.004 A 
HETATM   15  C7  UNL     1      24.238  -0.594  53.629  1.00  0.00     0.019 A 
HETATM   16  C8  UNL     1      24.895   0.265  52.774  1.00  0.00     0.013 A 
HETATM   17 BR1  UNL     1      26.763   0.045  52.359  1.00  0.00    -0.051 Br
HETATM   18  C9  UNL     1      24.239   1.335  52.167  1.00  0.00     0.048 A 
ENDBRANCH  10  12
ENDBRANCH   3  10
BRANCH   9  19
HETATM   19  C14 UNL     1      24.549   6.682  51.007  1.00  0.00     0.025 C 
BRANCH  19  20
HETATM   20  C15 UNL     1      25.333   7.569  50.115  1.00  0.00     0.153 C 
BRANCH  20  21
HETATM   21  N4  UNL     1      26.609   6.947  49.817  1.00  0.00    -0.347 N 
HETATM   22  C16 UNL     1      27.123   6.915  48.493  1.00  0.00     0.296 C 
HETATM   23  O1  UNL     1      26.514   7.419  47.501  1.00  0.00    -0.258 OA
HETATM   24  H12 UNL     1      27.192   6.499  50.565  1.00  0.00     0.163 HD
BRANCH  22  25
HETATM   25  C17 UNL     1      28.396   6.285  48.233  1.00  0.00    -0.006 C 
HETATM   26  C18 UNL     1      29.482   5.766  48.026  1.00  0.00    -0.101 C 
HETATM   27  C19 UNL     1      30.795   5.164  47.768  1.00  0.00     0.112 C 
ENDBRANCH  22  25
ENDBRANCH  20  21
ENDBRANCH  19  20
ENDBRANCH   9  19
TORSDOF 6
ENDMDL
MODEL 5
REMARK VINA RESULT:      -7.4      4.099      6.964
REMARK  6 active torsions:
REMARK  status: ('A' for Active; 'I' for Inactive)
REMARK    1  A    between atoms: C3_3  and  N1_4 
REMARK    2  A    between atoms: N1_4  and  C4_5 
REMARK    3  A    between atoms: C13_17  and  C14_18 
REMARK    4  A    between atoms: C14_18  and  C15_19 
REMARK    5  A    between atoms: C15_19  and  N4_20 
REMARK       I    between atoms: N4_20  and  C16_21 
REMARK    6  A    between atoms: C16_21  and  C17_23 
ROOT
HETATM    1  C1  UNL     1      24.540   3.365  49.256  1.00  0.00     0.028 C 
HETATM    2  C2  UNL     1      23.655   4.080  49.933  1.00  0.00     0.011 A 
HETATM    3  C3  UNL     1      22.700   3.412  50.672  1.00  0.00     0.067 A 
HETATM    4  C10 UNL     1      21.805   4.210  51.355  1.00  0.00     0.089 A 
HETATM    5  C11 UNL     1      20.778   3.587  52.148  1.00  0.00     0.103 C 
HETATM    6  N2  UNL     1      19.969   3.090  52.779  1.00  0.00    -0.191 NA
HETATM    7  C12 UNL     1      21.878   5.588  51.291  1.00  0.00     0.142 A 
HETATM    8  N3  UNL     1      22.828   6.186  50.558  1.00  0.00    -0.259 NA
HETATM    9  C13 UNL     1      23.722   5.455  49.874  1.00  0.00     0.066 A 
ENDROOT
BRANCH   3  10
HETATM   10  N1  UNL     1      22.661   1.990  50.709  1.00  0.00    -0.354 N 
HETATM   11  H3  UNL     1      22.216   1.625  49.846  1.00  0.00     0.166 HD
BRANCH  10  12
HETATM   12  C4  UNL     1      23.160   1.188  51.773  1.00  0.00     0.033 A 
HETATM   13  C5  UNL     1      24.487   1.335  52.112  1.00  0.00     0.029 A 
HETATM   14  C6  UNL     1      24.950   0.533  53.162  1.00  0.00     0.004 A 
HETATM   15  C7  UNL     1      24.072  -0.351  53.798  1.00  0.00     0.019 A 
HETATM   16  C8  UNL     1      22.754  -0.443  53.402  1.00  0.00     0.013 A 
HETATM   17 BR1  UNL     1      21.524  -1.651  54.258  1.00  0.00    -0.051 Br
HETATM   18  C9  UNL     1      22.249   0.335  52.361  1.00  0.00     0.048 A 
ENDBRANCH  10  12
ENDBRANCH   3  10
BRANCH   9  19
HETATM   19  C14 UNL     1      24.628   6.123  49.174  1.00  0.00     0.025 C 
BRANCH  19  20
HETATM   20  C15 UNL     1      25.740   6.881  49.797  1.00  0.00     0.153 C 
BRANCH  20  21
HETATM   21  N4  UNL     1      26.999   6.237  49.479  1.00  0.00    -0.347 N 
HETATM   22  C16 UNL     1      27.805   6.686  48.398  1.00  0.00     0.296 C 
HETATM   23  O1  UNL     1      27.484   7.660  47.653  1.00  0.00    -0.258 OA
HETATM   24  H12 UNL     1      27.357   5.421  50.032  1.00  0.00     0.163 HD
BRANCH  22  25
HETATM   25  C17 UNL     1      29.053   6.020  48.109  1.00  0.00    -0.006 C 
HETATM   26  C18 UNL     1      30.119   5.472  47.875  1.00  0.00    -0.101 C 
HETATM   27  C19 UNL     1      31.407   4.834  47.581  1.00  0.00     0.112 C 
ENDBRANCH  22  25
ENDBRANCH  20  21
ENDBRANCH  19  20
ENDBRANCH   9  19
TORSDOF 6
ENDMDL
MODEL 6
REMARK VINA RESULT:      -7.4      4.080      6.818
REMARK  6 active torsions:
REMARK  status: ('A' for Active; 'I' for Inactive)
REMARK    1  A    between atoms: C3_3  and  N1_4 
REMARK    2  A    between atoms: N1_4  and  C4_5 
REMARK    3  A    between atoms: C13_17  and  C14_18 
REMARK    4  A    between atoms: C14_18  and  C15_19 
REMARK    5  A    between atoms: C15_19  and  N4_20 
REMARK       I    between atoms: N4_20  and  C16_21 
REMARK    6  A    between atoms: C16_21  and  C17_23 
ROOT
HETATM    1  C1  UNL     1      23.414   4.985  52.615  1.00  0.00     0.028 C 
HETATM    2  C2  UNL     1      23.438   4.765  51.310  1.00  0.00     0.011 A 
HETATM    3  C3  UNL     1      22.857   3.609  50.828  1.00  0.00     0.067 A 
HETATM    4  C10 UNL     1      22.914   3.435  49.460  1.00  0.00     0.089 A 
HETATM    5  C11 UNL     1      22.331   2.254  48.882  1.00  0.00     0.103 C 
HETATM    6  N2  UNL     1      21.863   1.318  48.427  1.00  0.00    -0.191 NA
HETATM    7  C12 UNL     1      23.517   4.371  48.642  1.00  0.00     0.142 A 
HETATM    8  N3  UNL     1      24.065   5.478  49.163  1.00  0.00    -0.259 NA
HETATM    9  C13 UNL     1      24.038   5.695  50.487  1.00  0.00     0.066 A 
ENDROOT
BRANCH   3  10
HETATM   10  N1  UNL     1      22.247   2.672  51.708  1.00  0.00    -0.354 N 
HETATM   11  H3  UNL     1      21.248   2.916  51.848  1.00  0.00     0.166 HD
BRANCH  10  12
HETATM   12  C4  UNL     1      22.909   1.564  52.306  1.00  0.00     0.033 A 
HETATM   13  C5  UNL     1      24.276   1.484  52.157  1.00  0.00     0.029 A 
HETATM   14  C6  UNL     1      24.901   0.384  52.756  1.00  0.00     0.004 A 
HETATM   15  C7  UNL     1      24.132  -0.553  53.456  1.00  0.00     0.019 A 
HETATM   16  C8  UNL     1      22.765  -0.406  53.562  1.00  0.00     0.013 A 
HETATM   17 BR1  UNL     1      21.683  -1.680  54.517  1.00  0.00    -0.051 Br
HETATM   18  C9  UNL     1      22.100   0.674  52.982  1.00  0.00     0.048 A 
ENDBRANCH  10  12
ENDBRANCH   3  10
BRANCH   9  19
HETATM   19  C14 UNL     1      24.602   6.812  50.921  1.00  0.00     0.025 C 
BRANCH  19  20
HETATM   20  C15 UNL     1      25.443   7.683  50.065  1.00  0.00     0.153 C 
BRANCH  20  21
HETATM   21  N4  UNL     1      26.703   7.020  49.793  1.00  0.00    -0.347 N 
HETATM   22  C16 UNL     1      27.229   6.946  48.475  1.00  0.00     0.296 C 
HETATM   23  O1  UNL     1      26.644   7.445  47.467  1.00  0.00    -0.258 OA
HETATM   24  H12 UNL     1      27.267   6.573  50.556  1.00  0.00     0.163 HD
BRANCH  22  25
HETATM   25  C17 UNL     1      28.487   6.276  48.242  1.00  0.00    -0.006 C 
HETATM   26  C18 UNL     1      29.550   5.715  48.026  1.00  0.00    -0.101 C 
HETATM   27  C19 UNL     1      30.816   5.028  47.747  1.00  0.00     0.112 C 
ENDBRANCH  22  25
ENDBRANCH  20  21
ENDBRANCH  19  20
ENDBRANCH   9  19
TORSDOF 6
ENDMDL
MODEL 7
REMARK VINA RESULT:      -7.4      4.265      7.543
REMARK  6 active torsions:
REMARK  status: ('A' for Active; 'I' for Inactive)
REMARK    1  A    between atoms: C3_3  and  N1_4 
REMARK    2  A    between atoms: N1_4  and  C4_5 
REMARK    3  A    between atoms: C13_17  and  C14_18 
REMARK    4  A    between atoms: C14_18  and  C15_19 
REMARK    5  A    between atoms: C15_19  and  N4_20 
REMARK       I    between atoms: N4_20  and  C16_21 
REMARK    6  A    between atoms: C16_21  and  C17_23 
ROOT
HETATM    1  C1  UNL     1      25.021   3.333  49.757  1.00  0.00     0.028 C 
HETATM    2  C2  UNL     1      24.088   4.053  50.359  1.00  0.00     0.011 A 
HETATM    3  C3  UNL     1      23.023   3.393  50.941  1.00  0.00     0.067 A 
HETATM    4  C10 UNL     1      22.083   4.197  51.553  1.00  0.00     0.089 A 
HETATM    5  C11 UNL     1      20.943   3.583  52.181  1.00  0.00     0.103 C 
HETATM    6  N2  UNL     1      20.044   3.092  52.682  1.00  0.00    -0.191 NA
HETATM    7  C12 UNL     1      22.217   5.571  51.572  1.00  0.00     0.142 A 
HETATM    8  N3  UNL     1      23.272   6.162  50.993  1.00  0.00    -0.259 NA
HETATM    9  C13 UNL     1      24.215   5.426  50.383  1.00  0.00     0.066 A 
ENDROOT
BRANCH   3  10
HETATM   10  N1  UNL     1      22.925   1.975  50.896  1.00  0.00    -0.354 N 
HETATM   11  H3  UNL     1      22.532   1.675  49.983  1.00  0.00     0.166 HD
BRANCH  10  12
HETATM   12  C4  UNL     1      23.310   1.097  51.948  1.00  0.00     0.033 A 
HETATM   13  C5  UNL     1      24.637   1.093  52.319  1.00  0.00     0.029 A 
HETATM   14  C6  UNL     1      24.986   0.220  53.356  1.00  0.00     0.004 A 
HETATM   15  C7  UNL     1      24.004  -0.582  53.947  1.00  0.00     0.019 A 
HETATM   16  C8  UNL     1      22.694  -0.522  53.520  1.00  0.00     0.013 A 
HETATM   17 BR1  UNL     1      21.322  -1.614  54.316  1.00  0.00    -0.051 Br
HETATM   18  C9  UNL     1      22.300   0.331  52.492  1.00  0.00     0.048 A 
ENDBRANCH  10  12
ENDBRANCH   3  10
BRANCH   9  19
HETATM   19  C14 UNL     1      25.225   6.085  49.835  1.00  0.00     0.025 C 
BRANCH  19  20
HETATM   20  C15 UNL     1      25.652   7.433  50.280  1.00  0.00     0.153 C 
BRANCH  20  21
HETATM   21  N4  UNL     1      26.988   7.703  49.786  1.00  0.00    -0.347 N 
HETATM   22  C16 UNL     1      27.567   8.996  49.891  1.00  0.00     0.296 C 
HETATM   23  O1  UNL     1      26.967   9.983  50.415  1.00  0.00    -0.258 OA
HETATM   24  H12 UNL     1      27.570   6.956  49.334  1.00  0.00     0.163 HD
BRANCH  22  25
HETATM   25  C17 UNL     1      28.900   9.228  49.387  1.00  0.00    -0.006 C 
HETATM   26  C18 UNL     1      30.034   9.408  48.970  1.00  0.00    -0.101 C 
HETATM   27  C19 UNL     1      31.405   9.625  48.494  1.00  0.00     0.112 C 
ENDBRANCH  22  25
ENDBRANCH  20  21
ENDBRANCH  19  20
ENDBRANCH   9  19
TORSDOF 6
ENDMDL
MODEL 8
REMARK VINA RESULT:      -7.2      3.869      7.283
REMARK  6 active torsions:
REMARK  status: ('A' for Active; 'I' for Inactive)
REMARK    1  A    between atoms: C3_3  and  N1_4 
REMARK    2  A    between atoms: N1_4  and  C4_5 
REMARK    3  A    between atoms: C13_17  and  C14_18 
REMARK    4  A    between atoms: C14_18  and  C15_19 
REMARK    5  A    between atoms: C15_19  and  N4_20 
REMARK       I    between atoms: N4_20  and  C16_21 
REMARK    6  A    between atoms: C16_21  and  C17_23 
ROOT
HETATM    1  C1  UNL     1      26.423   3.521  49.516  1.00  0.00     0.028 C 
HETATM    2  C2  UNL     1      25.453   3.670  50.404  1.00  0.00     0.011 A 
HETATM    3  C3  UNL     1      25.074   2.574  51.153  1.00  0.00     0.067 A 
HETATM    4  C10 UNL     1      24.058   2.791  52.061  1.00  0.00     0.089 A 
HETATM    5  C11 UNL     1      23.606   1.696  52.878  1.00  0.00     0.103 C 
HETATM    6  N2  UNL     1      23.255   0.827  53.527  1.00  0.00    -0.191 NA
HETATM    7  C12 UNL     1      23.472   4.035  52.198  1.00  0.00     0.142 A 
HETATM    8  N3  UNL     1      23.879   5.067  51.445  1.00  0.00    -0.259 NA
HETATM    9  C13 UNL     1      24.864   4.908  50.546  1.00  0.00     0.066 A 
ENDROOT
BRANCH   3  10
HETATM   10  N1  UNL     1      25.706   1.311  50.978  1.00  0.00    -0.354 N 
HETATM   11  H3  UNL     1      25.422   0.896  50.070  1.00  0.00     0.166 HD
BRANCH  10  12
HETATM   12  C4  UNL     1      26.596   0.709  51.910  1.00  0.00     0.033 A 
HETATM   13  C5  UNL     1      26.527  -0.658  52.064  1.00  0.00     0.029 A 
HETATM   14  C6  UNL     1      27.414  -1.223  52.988  1.00  0.00     0.004 A 
HETATM   15  C7  UNL     1      28.302  -0.399  53.688  1.00  0.00     0.019 A 
HETATM   16  C8  UNL     1      28.313   0.964  53.481  1.00  0.00     0.013 A 
HETATM   17 BR1  UNL     1      29.523   2.121  54.431  1.00  0.00    -0.051 Br
HETATM   18  C9  UNL     1      27.447   1.570  52.571  1.00  0.00     0.048 A 
ENDBRANCH  10  12
ENDBRANCH   3  10
BRANCH   9  19
HETATM   19  C14 UNL     1      25.207   5.977  49.843  1.00  0.00     0.025 C 
BRANCH  19  20
HETATM   20  C15 UNL     1      25.512   7.291  50.459  1.00  0.00     0.153 C 
BRANCH  20  21
HETATM   21  N4  UNL     1      26.854   7.697  50.088  1.00  0.00    -0.347 N 
HETATM   22  C16 UNL     1      27.191   9.067  49.921  1.00  0.00     0.296 C 
HETATM   23  O1  UNL     1      26.359  10.010  50.083  1.00  0.00    -0.258 OA
HETATM   24  H12 UNL     1      27.618   6.996  49.928  1.00  0.00     0.163 HD
BRANCH  22  25
HETATM   25  C17 UNL     1      28.538   9.434  49.550  1.00  0.00    -0.006 C 
HETATM   26  C18 UNL     1      29.676   9.758  49.251  1.00  0.00    -0.101 C 
HETATM   27  C19 UNL     1      31.037  10.171  48.889  1.00  0.00     0.112 C 
ENDBRANCH  22  25
ENDBRANCH  20  21
ENDBRANCH  19  20
ENDBRANCH   9  19
TORSDOF 6
ENDMDL
MODEL 9
REMARK VINA RESULT:      -7.2      1.606      2.497
REMARK  6 active torsions:
REMARK  status: ('A' for Active; 'I' for Inactive)
REMARK    1  A    between atoms: C3_3  and  N1_4 
REMARK    2  A    between atoms: N1_4  and  C4_5 
REMARK    3  A    between atoms: C13_17  and  C14_18 
REMARK    4  A    between atoms: C14_18  and  C15_19 
REMARK    5  A    between atoms: C15_19  and  N4_20 
REMARK       I    between atoms: N4_20  and  C16_21 
REMARK    6  A    between atoms: C16_21  and  C17_23 
ROOT
HETATM    1  C1  UNL     1      23.996   2.571  49.326  1.00  0.00     0.028 C 
HETATM    2  C2  UNL     1      23.800   3.379  50.356  1.00  0.00     0.011 A 
HETATM    3  C3  UNL     1      24.015   4.731  50.178  1.00  0.00     0.067 A 
HETATM    4  C10 UNL     1      23.794   5.523  51.287  1.00  0.00     0.089 A 
HETATM    5  C11 UNL     1      23.999   6.944  51.181  1.00  0.00     0.103 C 
HETATM    6  N2  UNL     1      24.156   8.070  51.093  1.00  0.00    -0.191 NA
HETATM    7  C12 UNL     1      23.384   4.978  52.488  1.00  0.00     0.142 A 
HETATM    8  N3  UNL     1      23.188   3.657  52.605  1.00  0.00    -0.259 NA
HETATM    9  C13 UNL     1      23.390   2.842  51.557  1.00  0.00     0.066 A 
ENDROOT
BRANCH   3  10
HETATM   10  N1  UNL     1      24.439   5.249  48.923  1.00  0.00    -0.354 N 
HETATM   11  H3  UNL     1      23.640   5.267  48.259  1.00  0.00     0.166 HD
BRANCH  10  12
HETATM   12  C4  UNL     1      25.761   5.681  48.622  1.00  0.00     0.033 A 
HETATM   13  C5  UNL     1      26.791   4.809  48.896  1.00  0.00     0.029 A 
HETATM   14  C6  UNL     1      28.081   5.260  48.590  1.00  0.00     0.004 A 
HETATM   15  C7  UNL     1      28.256   6.534  48.038  1.00  0.00     0.019 A 
HETATM   16  C8  UNL     1      27.174   7.351  47.792  1.00  0.00     0.013 A 
HETATM   17 BR1  UNL     1      27.386   9.109  47.034  1.00  0.00    -0.051 Br
HETATM   18  C9  UNL     1      25.872   6.945  48.081  1.00  0.00     0.048 A 
ENDBRANCH  10  12
ENDBRANCH   3  10
BRANCH   9  19
HETATM   19  C14 UNL     1      23.175   1.550  51.756  1.00  0.00     0.025 C 
BRANCH  19  20
HETATM   20  C15 UNL     1      23.422   0.876  53.053  1.00  0.00     0.153 C 
BRANCH  20  21
HETATM   21  N4  UNL     1      24.704   0.200  53.008  1.00  0.00    -0.347 N 
HETATM   22  C16 UNL     1      25.887   0.829  53.482  1.00  0.00     0.296 C 
HETATM   23  O1  UNL     1      25.902   2.000  53.967  1.00  0.00    -0.258 OA
HETATM   24  H12 UNL     1      24.803  -0.771  52.625  1.00  0.00     0.163 HD
BRANCH  22  25
HETATM   25  C17 UNL     1      27.147   0.126  53.420  1.00  0.00    -0.006 C 
HETATM   26  C18 UNL     1      28.206  -0.481  53.383  1.00  0.00    -0.101 C 
HETATM   27  C19 UNL     1      29.483  -1.204  53.363  1.00  0.00     0.112 C 
ENDBRANCH  22  25
ENDBRANCH  20  21
ENDBRANCH  19  20
ENDBRANCH   9  19
TORSDOF 6
ENDMDL
