MODEL 1
REMARK VINA RESULT:      -8.0      0.000      0.000
REMARK  3 active torsions:
REMARK  status: ('A' for Active; 'I' for Inactive)
REMARK    1  A    between atoms: O1_2  and  C2_3 
REMARK    2  A    between atoms: C3_4  and  C4_5 
REMARK    3  A    between atoms: C14_19  and  O5_20 
ROOT
HETATM    1  C4  UNL     1      25.115   2.038  51.440  1.00  0.00     0.013 C 
HETATM    2  C5  UNL     1      25.224   1.116  52.383  1.00  0.00    -0.006 C 
HETATM    3  C6  UNL     1      26.556   0.691  52.833  1.00  0.00     0.167 C 
HETATM    4  N1  UNL     1      26.517  -0.002  54.107  1.00  0.00    -0.348 N 
HETATM    5  C7  UNL     1      27.783  -0.117  54.831  1.00  0.00     0.153 C 
HETATM    6  C8  UNL     1      25.329  -0.563  54.670  1.00  0.00     0.259 C 
HETATM    7  O2  UNL     1      25.370  -1.311  55.686  1.00  0.00    -0.267 OA
HETATM    8  C9  UNL     1      24.054  -0.247  54.032  1.00  0.00     0.099 C 
HETATM    9  C10 UNL     1      24.010   0.546  52.955  1.00  0.00     0.095 C 
HETATM   10  O3  UNL     1      22.840   0.909  52.272  1.00  0.00    -0.342 OA
HETATM   11  C11 UNL     1      21.506   1.058  52.713  1.00  0.00     0.258 C 
HETATM   12  C12 UNL     1      20.999  -0.160  53.410  1.00  0.00     0.175 C 
HETATM   13  O4  UNL     1      19.878  -0.635  53.031  1.00  0.00    -0.291 OA
HETATM   14  C13 UNL     1      21.658  -0.892  54.508  1.00  0.00     0.090 C 
HETATM   15  C14 UNL     1      22.948  -0.913  54.750  1.00  0.00     0.087 C 
ENDROOT
BRANCH   1  16
HETATM   16  C3  UNL     1      26.288   2.645  50.829  1.00  0.00     0.025 C 
HETATM   17  C2  UNL     1      26.203   3.406  49.725  1.00  0.00     0.134 C 
BRANCH  17  18
HETATM   18  O1  UNL     1      27.307   4.003  49.116  1.00  0.00    -0.368 OA
HETATM   19  C1  UNL     1      27.103   5.355  48.696  1.00  0.00     0.208 C 
ENDBRANCH  17  18
ENDBRANCH   1  16
BRANCH  15  20
HETATM   20  O5  UNL     1      23.310  -1.682  55.850  1.00  0.00    -0.359 OA
HETATM   21  H15 UNL     1      22.551  -2.233  56.273  1.00  0.00     0.217 HD
ENDBRANCH  15  20
TORSDOF 3
ENDMDL
MODEL 2
REMARK VINA RESULT:      -7.8      2.140      6.378
REMARK  3 active torsions:
REMARK  status: ('A' for Active; 'I' for Inactive)
REMARK    1  A    between atoms: O1_2  and  C2_3 
REMARK    2  A    between atoms: C3_4  and  C4_5 
REMARK    3  A    between atoms: C14_19  and  O5_20 
ROOT
HETATM    1  C4  UNL     1      22.670  -0.047  53.189  1.00  0.00     0.013 C 
HETATM    2  C5  UNL     1      23.495   0.700  52.474  1.00  0.00    -0.006 C 
HETATM    3  C6  UNL     1      22.997   1.393  51.279  1.00  0.00     0.167 C 
HETATM    4  N1  UNL     1      23.881   2.457  50.843  1.00  0.00    -0.348 N 
HETATM    5  C7  UNL     1      23.315   3.452  49.933  1.00  0.00     0.153 C 
HETATM    6  C8  UNL     1      25.245   2.573  51.254  1.00  0.00     0.259 C 
HETATM    7  O2  UNL     1      26.029   3.404  50.715  1.00  0.00    -0.267 OA
HETATM    8  C9  UNL     1      25.715   1.697  52.324  1.00  0.00     0.099 C 
HETATM    9  C10 UNL     1      24.886   0.816  52.895  1.00  0.00     0.095 C 
HETATM   10  O3  UNL     1      25.239  -0.068  53.926  1.00  0.00    -0.342 OA
HETATM   11  C11 UNL     1      26.204   0.029  54.954  1.00  0.00     0.258 C 
HETATM   12  C12 UNL     1      27.568   0.326  54.426  1.00  0.00     0.175 C 
HETATM   13  O4  UNL     1      28.527  -0.416  54.819  1.00  0.00    -0.291 OA
HETATM   14  C13 UNL     1      27.940   1.398  53.485  1.00  0.00     0.090 C 
HETATM   15  C14 UNL     1      27.141   1.961  52.607  1.00  0.00     0.087 C 
ENDROOT
BRANCH   1  16
HETATM   16  C3  UNL     1      21.271  -0.203  52.820  1.00  0.00     0.025 C 
HETATM   17  C2  UNL     1      20.339  -0.586  53.709  1.00  0.00     0.134 C 
BRANCH  17  18
HETATM   18  O1  UNL     1      18.990  -0.744  53.390  1.00  0.00    -0.368 OA
HETATM   19  C1  UNL     1      18.613  -0.240  52.106  1.00  0.00     0.208 C 
ENDBRANCH  17  18
ENDBRANCH   1  16
BRANCH  15  20
HETATM   20  O5  UNL     1      27.743   2.951  51.839  1.00  0.00    -0.359 OA
HETATM   21  H15 UNL     1      27.657   3.908  52.206  1.00  0.00     0.217 HD
ENDBRANCH  15  20
TORSDOF 3
ENDMDL
MODEL 3
REMARK VINA RESULT:      -7.4      2.640      4.773
REMARK  3 active torsions:
REMARK  status: ('A' for Active; 'I' for Inactive)
REMARK    1  A    between atoms: O1_2  and  C2_3 
REMARK    2  A    between atoms: C3_4  and  C4_5 
REMARK    3  A    between atoms: C14_19  and  O5_20 
ROOT
HETATM    1  C4  UNL     1      23.048   1.448  51.162  1.00  0.00     0.013 C 
HETATM    2  C5  UNL     1      22.955   0.792  52.308  1.00  0.00    -0.006 C 
HETATM    3  C6  UNL     1      21.643   0.317  52.767  1.00  0.00     0.167 C 
HETATM    4  N1  UNL     1      21.749  -0.698  53.798  1.00  0.00    -0.348 N 
HETATM    5  C7  UNL     1      20.560  -1.514  54.043  1.00  0.00     0.153 C 
HETATM    6  C8  UNL     1      22.934  -0.931  54.563  1.00  0.00     0.259 C 
HETATM    7  O2  UNL     1      22.930  -1.696  55.568  1.00  0.00    -0.267 OA
HETATM    8  C9  UNL     1      24.160  -0.253  54.151  1.00  0.00     0.099 C 
HETATM    9  C10 UNL     1      24.164   0.557  53.087  1.00  0.00     0.095 C 
HETATM   10  O3  UNL     1      25.286   1.252  52.610  1.00  0.00    -0.342 OA
HETATM   11  C11 UNL     1      26.666   0.957  52.671  1.00  0.00     0.258 C 
HETATM   12  C12 UNL     1      27.130   0.695  54.065  1.00  0.00     0.175 C 
HETATM   13  O4  UNL     1      28.159   1.328  54.474  1.00  0.00    -0.291 OA
HETATM   14  C13 UNL     1      26.524  -0.229  55.042  1.00  0.00     0.090 C 
HETATM   15  C14 UNL     1      25.269  -0.614  55.058  1.00  0.00     0.087 C 
ENDROOT
BRANCH   1  16
HETATM   16  C3  UNL     1      21.878   1.715  50.339  1.00  0.00     0.025 C 
HETATM   17  C2  UNL     1      21.891   1.546  49.006  1.00  0.00     0.134 C 
BRANCH  17  18
HETATM   18  O1  UNL     1      20.787   1.791  48.189  1.00  0.00    -0.368 OA
HETATM   19  C1  UNL     1      19.781   2.623  48.771  1.00  0.00     0.208 C 
ENDBRANCH  17  18
ENDBRANCH   1  16
BRANCH  15  20
HETATM   20  O5  UNL     1      24.955  -1.493  56.088  1.00  0.00    -0.359 OA
HETATM   21  H15 UNL     1      24.293  -1.132  56.789  1.00  0.00     0.217 HD
ENDBRANCH  15  20
TORSDOF 3
ENDMDL
MODEL 4
REMARK VINA RESULT:      -7.3      2.231      3.081
REMARK  3 active torsions:
REMARK  status: ('A' for Active; 'I' for Inactive)
REMARK    1  A    between atoms: O1_2  and  C2_3 
REMARK    2  A    between atoms: C3_4  and  C4_5 
REMARK    3  A    between atoms: C14_19  and  O5_20 
ROOT
HETATM    1  C4  UNL     1      25.242   1.145  51.919  1.00  0.00     0.013 C 
HETATM    2  C5  UNL     1      24.460   0.387  52.670  1.00  0.00    -0.006 C 
HETATM    3  C6  UNL     1      25.052  -0.444  53.727  1.00  0.00     0.167 C 
HETATM    4  N1  UNL     1      24.070  -0.893  54.696  1.00  0.00    -0.348 N 
HETATM    5  C7  UNL     1      24.585  -1.377  55.977  1.00  0.00     0.153 C 
HETATM    6  C8  UNL     1      22.661  -0.883  54.462  1.00  0.00     0.259 C 
HETATM    7  O2  UNL     1      21.855  -1.446  55.255  1.00  0.00    -0.267 OA
HETATM    8  C9  UNL     1      22.170  -0.198  53.269  1.00  0.00     0.099 C 
HETATM    9  C10 UNL     1      23.022   0.399  52.429  1.00  0.00     0.095 C 
HETATM   10  O3  UNL     1      22.653   1.081  51.259  1.00  0.00    -0.342 OA
HETATM   11  C11 UNL     1      21.474   1.781  50.915  1.00  0.00     0.258 C 
HETATM   12  C12 UNL     1      20.248   0.950  51.097  1.00  0.00     0.175 C 
HETATM   13  O4  UNL     1      19.428   0.887  50.122  1.00  0.00    -0.291 OA
HETATM   14  C13 UNL     1      19.868   0.179  52.295  1.00  0.00     0.090 C 
HETATM   15  C14 UNL     1      20.697  -0.294  53.197  1.00  0.00     0.087 C 
ENDROOT
BRANCH   1  16
HETATM   16  C3  UNL     1      26.684   1.176  52.110  1.00  0.00     0.025 C 
HETATM   17  C2  UNL     1      27.293   2.174  52.773  1.00  0.00     0.134 C 
BRANCH  17  18
HETATM   18  O1  UNL     1      28.672   2.234  52.976  1.00  0.00    -0.368 OA
HETATM   19  C1  UNL     1      29.143   1.517  54.120  1.00  0.00     0.208 C 
ENDBRANCH  17  18
ENDBRANCH   1  16
BRANCH  15  20
HETATM   20  O5  UNL     1      20.079  -0.987  54.232  1.00  0.00    -0.359 OA
HETATM   21  H15 UNL     1      19.060  -1.094  54.145  1.00  0.00     0.217 HD
ENDBRANCH  15  20
TORSDOF 3
ENDMDL
MODEL 5
REMARK VINA RESULT:      -7.2      2.040      4.021
REMARK  3 active torsions:
REMARK  status: ('A' for Active; 'I' for Inactive)
REMARK    1  A    between atoms: O1_2  and  C2_3 
REMARK    2  A    between atoms: C3_4  and  C4_5 
REMARK    3  A    between atoms: C14_19  and  O5_20 
ROOT
HETATM    1  C4  UNL     1      24.213   2.005  51.328  1.00  0.00     0.013 C 
HETATM    2  C5  UNL     1      23.140   1.505  51.920  1.00  0.00    -0.006 C 
HETATM    3  C6  UNL     1      21.804   1.880  51.438  1.00  0.00     0.167 C 
HETATM    4  N1  UNL     1      20.771   0.974  51.904  1.00  0.00    -0.348 N 
HETATM    5  C7  UNL     1      19.497   1.005  51.186  1.00  0.00     0.153 C 
HETATM    6  C8  UNL     1      20.940   0.075  53.002  1.00  0.00     0.259 C 
HETATM    7  O2  UNL     1      19.964  -0.563  53.489  1.00  0.00    -0.267 OA
HETATM    8  C9  UNL     1      22.282  -0.087  53.556  1.00  0.00     0.099 C 
HETATM    9  C10 UNL     1      23.315   0.589  53.041  1.00  0.00     0.095 C 
HETATM   10  O3  UNL     1      24.639   0.504  53.499  1.00  0.00    -0.342 OA
HETATM   11  C11 UNL     1      25.348  -0.546  54.124  1.00  0.00     0.258 C 
HETATM   12  C12 UNL     1      24.649  -1.059  55.339  1.00  0.00     0.175 C 
HETATM   13  O4  UNL     1      25.328  -1.157  56.413  1.00  0.00    -0.291 OA
HETATM   14  C13 UNL     1      23.237  -1.472  55.441  1.00  0.00     0.090 C 
HETATM   15  C14 UNL     1      22.256  -1.048  54.677  1.00  0.00     0.087 C 
ENDROOT
BRANCH   1  16
HETATM   16  C3  UNL     1      24.105   2.924  50.205  1.00  0.00     0.025 C 
HETATM   17  C2  UNL     1      24.976   3.930  50.022  1.00  0.00     0.134 C 
BRANCH  17  18
HETATM   18  O1  UNL     1      24.902   4.827  48.956  1.00  0.00    -0.368 OA
HETATM   19  C1  UNL     1      25.944   5.806  48.920  1.00  0.00     0.208 C 
ENDBRANCH  17  18
ENDBRANCH   1  16
BRANCH  15  20
HETATM   20  O5  UNL     1      21.016  -1.596  54.984  1.00  0.00    -0.359 OA
HETATM   21  H15 UNL     1      20.259  -0.916  55.138  1.00  0.00     0.217 HD
ENDBRANCH  15  20
TORSDOF 3
ENDMDL
MODEL 6
REMARK VINA RESULT:      -7.2      2.478      4.970
REMARK  3 active torsions:
REMARK  status: ('A' for Active; 'I' for Inactive)
REMARK    1  A    between atoms: O1_2  and  C2_3 
REMARK    2  A    between atoms: C3_4  and  C4_5 
REMARK    3  A    between atoms: C14_19  and  O5_20 
ROOT
HETATM    1  C4  UNL     1      25.698   0.663  52.289  1.00  0.00     0.013 C 
HETATM    2  C5  UNL     1      24.401   0.634  52.552  1.00  0.00    -0.006 C 
HETATM    3  C6  UNL     1      23.823  -0.534  53.229  1.00  0.00     0.167 C 
HETATM    4  N1  UNL     1      22.515  -0.259  53.793  1.00  0.00    -0.348 N 
HETATM    5  C7  UNL     1      22.027  -1.193  54.807  1.00  0.00     0.153 C 
HETATM    6  C8  UNL     1      21.705   0.855  53.411  1.00  0.00     0.259 C 
HETATM    7  O2  UNL     1      20.504   0.958  53.790  1.00  0.00    -0.267 OA
HETATM    8  C9  UNL     1      22.305   1.880  52.563  1.00  0.00     0.099 C 
HETATM    9  C10 UNL     1      23.577   1.771  52.161  1.00  0.00     0.095 C 
HETATM   10  O3  UNL     1      24.245   2.699  51.348  1.00  0.00    -0.342 OA
HETATM   11  C11 UNL     1      24.078   4.093  51.184  1.00  0.00     0.258 C 
HETATM   12  C12 UNL     1      22.671   4.460  50.848  1.00  0.00     0.175 C 
HETATM   13  O4  UNL     1      22.483   5.222  49.843  1.00  0.00    -0.291 OA
HETATM   14  C13 UNL     1      21.450   4.036  51.558  1.00  0.00     0.090 C 
HETATM   15  C14 UNL     1      21.320   2.943  52.275  1.00  0.00     0.087 C 
ENDROOT
BRANCH   1  16
HETATM   16  C3  UNL     1      26.573  -0.441  52.653  1.00  0.00     0.025 C 
HETATM   17  C2  UNL     1      27.647  -0.267  53.441  1.00  0.00     0.134 C 
BRANCH  17  18
HETATM   18  O1  UNL     1      28.506  -1.303  53.811  1.00  0.00    -0.368 OA
HETATM   19  C1  UNL     1      29.898  -1.014  53.660  1.00  0.00     0.208 C 
ENDBRANCH  17  18
ENDBRANCH   1  16
BRANCH  15  20
HETATM   20  O5  UNL     1      20.061   2.778  52.841  1.00  0.00    -0.359 OA
HETATM   21  H15 UNL     1      19.988   2.031  53.545  1.00  0.00     0.217 HD
ENDBRANCH  15  20
TORSDOF 3
ENDMDL
MODEL 7
REMARK VINA RESULT:      -7.1      2.429      4.475
REMARK  3 active torsions:
REMARK  status: ('A' for Active; 'I' for Inactive)
REMARK    1  A    between atoms: O1_2  and  C2_3 
REMARK    2  A    between atoms: C3_4  and  C4_5 
REMARK    3  A    between atoms: C14_19  and  O5_20 
ROOT
HETATM    1  C4  UNL     1      25.153   2.806  50.545  1.00  0.00     0.013 C 
HETATM    2  C5  UNL     1      24.662   2.025  51.493  1.00  0.00    -0.006 C 
HETATM    3  C6  UNL     1      23.230   1.698  51.495  1.00  0.00     0.167 C 
HETATM    4  N1  UNL     1      22.922   0.550  52.327  1.00  0.00    -0.348 N 
HETATM    5  C7  UNL     1      21.632  -0.100  52.100  1.00  0.00     0.153 C 
HETATM    6  C8  UNL     1      23.802   0.040  53.331  1.00  0.00     0.259 C 
HETATM    7  O2  UNL     1      23.425  -0.843  54.152  1.00  0.00    -0.267 OA
HETATM    8  C9  UNL     1      25.161   0.571  53.386  1.00  0.00     0.099 C 
HETATM    9  C10 UNL     1      25.561   1.506  52.517  1.00  0.00     0.095 C 
HETATM   10  O3  UNL     1      26.841   2.080  52.486  1.00  0.00    -0.342 OA
HETATM   11  C11 UNL     1      28.104   1.572  52.864  1.00  0.00     0.258 C 
HETATM   12  C12 UNL     1      28.114   1.059  54.265  1.00  0.00     0.175 C 
HETATM   13  O4  UNL     1      29.042   1.467  55.037  1.00  0.00    -0.291 OA
HETATM   14  C13 UNL     1      27.155   0.116  54.870  1.00  0.00     0.090 C 
HETATM   15  C14 UNL     1      25.914  -0.072  54.482  1.00  0.00     0.087 C 
ENDROOT
BRANCH   1  16
HETATM   16  C3  UNL     1      24.307   3.355  49.496  1.00  0.00     0.025 C 
HETATM   17  C2  UNL     1      24.290   4.667  49.209  1.00  0.00     0.134 C 
BRANCH  17  18
HETATM   18  O1  UNL     1      23.493   5.226  48.210  1.00  0.00    -0.368 OA
HETATM   19  C1  UNL     1      22.313   4.482  47.895  1.00  0.00     0.208 C 
ENDBRANCH  17  18
ENDBRANCH   1  16
BRANCH  15  20
HETATM   20  O5  UNL     1      25.221  -1.022  55.224  1.00  0.00    -0.359 OA
HETATM   21  H15 UNL     1      25.733  -1.894  55.412  1.00  0.00     0.217 HD
ENDBRANCH  15  20
TORSDOF 3
ENDMDL
MODEL 8
REMARK VINA RESULT:      -7.0      2.374      4.442
REMARK  3 active torsions:
REMARK  status: ('A' for Active; 'I' for Inactive)
REMARK    1  A    between atoms: O1_2  and  C2_3 
REMARK    2  A    between atoms: C3_4  and  C4_5 
REMARK    3  A    between atoms: C14_19  and  O5_20 
ROOT
HETATM    1  C4  UNL     1      26.553   3.446  49.929  1.00  0.00     0.013 C 
HETATM    2  C5  UNL     1      25.444   3.307  50.638  1.00  0.00    -0.006 C 
HETATM    3  C6  UNL     1      24.385   4.320  50.536  1.00  0.00     0.167 C 
HETATM    4  N1  UNL     1      23.111   3.844  51.040  1.00  0.00    -0.348 N 
HETATM    5  C7  UNL     1      21.922   4.594  50.636  1.00  0.00     0.153 C 
HETATM    6  C8  UNL     1      22.969   2.704  51.891  1.00  0.00     0.259 C 
HETATM    7  O2  UNL     1      21.871   2.432  52.452  1.00  0.00    -0.267 OA
HETATM    8  C9  UNL     1      24.139   1.856  52.099  1.00  0.00     0.099 C 
HETATM    9  C10 UNL     1      25.303   2.144  51.505  1.00  0.00     0.095 C 
HETATM   10  O3  UNL     1      26.481   1.395  51.640  1.00  0.00    -0.342 OA
HETATM   11  C11 UNL     1      26.694   0.020  51.892  1.00  0.00     0.258 C 
HETATM   12  C12 UNL     1      25.978  -0.450  53.114  1.00  0.00     0.175 C 
HETATM   13  O4  UNL     1      26.651  -1.103  53.978  1.00  0.00    -0.291 OA
HETATM   14  C13 UNL     1      24.556  -0.243  53.443  1.00  0.00     0.090 C 
HETATM   15  C14 UNL     1      23.801   0.737  53.003  1.00  0.00     0.087 C 
ENDROOT
BRANCH   1  16
HETATM   16  C3  UNL     1      26.754   4.585  49.045  1.00  0.00     0.025 C 
HETATM   17  C2  UNL     1      27.981   5.014  48.705  1.00  0.00     0.134 C 
BRANCH  17  18
HETATM   18  O1  UNL     1      28.209   6.100  47.859  1.00  0.00    -0.368 OA
HETATM   19  C1  UNL     1      29.578   6.496  47.744  1.00  0.00     0.208 C 
ENDBRANCH  17  18
ENDBRANCH   1  16
BRANCH  15  20
HETATM   20  O5  UNL     1      22.490   0.701  53.466  1.00  0.00    -0.359 OA
HETATM   21  H15 UNL     1      22.191   1.522  54.008  1.00  0.00     0.217 HD
ENDBRANCH  15  20
TORSDOF 3
ENDMDL
MODEL 9
REMARK VINA RESULT:      -6.9      2.214      4.485
REMARK  3 active torsions:
REMARK  status: ('A' for Active; 'I' for Inactive)
REMARK    1  A    between atoms: O1_2  and  C2_3 
REMARK    2  A    between atoms: C3_4  and  C4_5 
REMARK    3  A    between atoms: C14_19  and  O5_20 
ROOT
HETATM    1  C4  UNL     1      26.414   3.494  50.312  1.00  0.00     0.013 C 
HETATM    2  C5  UNL     1      25.522   2.774  50.973  1.00  0.00    -0.006 C 
HETATM    3  C6  UNL     1      24.108   2.831  50.579  1.00  0.00     0.167 C 
HETATM    4  N1  UNL     1      23.338   1.723  51.112  1.00  0.00    -0.348 N 
HETATM    5  C7  UNL     1      22.046   1.456  50.479  1.00  0.00     0.153 C 
HETATM    6  C8  UNL     1      23.775   0.902  52.197  1.00  0.00     0.259 C 
HETATM    7  O2  UNL     1      23.002   0.067  52.746  1.00  0.00    -0.267 OA
HETATM    8  C9  UNL     1      25.151   1.055  52.661  1.00  0.00     0.099 C 
HETATM    9  C10 UNL     1      25.970   1.938  52.080  1.00  0.00     0.095 C 
HETATM   10  O3  UNL     1      27.305   2.161  52.450  1.00  0.00    -0.342 OA
HETATM   11  C11 UNL     1      28.272   1.307  53.028  1.00  0.00     0.258 C 
HETATM   12  C12 UNL     1      27.785   0.668  54.286  1.00  0.00     0.175 C 
HETATM   13  O4  UNL     1      28.536   0.740  55.313  1.00  0.00    -0.291 OA
HETATM   14  C13 UNL     1      26.512  -0.051  54.480  1.00  0.00     0.090 C 
HETATM   15  C14 UNL     1      25.415   0.129  53.782  1.00  0.00     0.087 C 
ENDROOT
BRANCH   1  16
HETATM   16  C3  UNL     1      26.030   4.348  49.198  1.00  0.00     0.025 C 
HETATM   17  C2  UNL     1      26.318   5.660  49.175  1.00  0.00     0.134 C 
BRANCH  17  18
HETATM   18  O1  UNL     1      25.966   6.507  48.123  1.00  0.00    -0.368 OA
HETATM   19  C1  UNL     1      26.000   7.901  48.436  1.00  0.00     0.208 C 
ENDBRANCH  17  18
ENDBRANCH   1  16
BRANCH  15  20
HETATM   20  O5  UNL     1      24.352  -0.680  54.169  1.00  0.00    -0.359 OA
HETATM   21  H15 UNL     1      24.266  -1.569  53.660  1.00  0.00     0.217 HD
ENDBRANCH  15  20
TORSDOF 3
ENDMDL
