MODEL 1
REMARK VINA RESULT:      -7.3      0.000      0.000
REMARK  6 active torsions:
REMARK  status: ('A' for Active; 'I' for Inactive)
REMARK    1  A    between atoms: O1_2  and  C2_3 
REMARK    2  A    between atoms: C10_13  and  N2_14 
REMARK    3  A    between atoms: N2_14  and  C11_15 
REMARK    4  A    between atoms: C12_16  and  C13_17 
REMARK    5  A    between atoms: C14_18  and  C15_19 
REMARK    6  A    between atoms: C15_19  and  C16_20 
ROOT
HETATM    1  C2  UNL     1      21.284  -0.063  53.007  1.00  0.00     0.074 A 
HETATM    2  C3  UNL     1      21.485   0.684  51.876  1.00  0.00     0.049 A 
HETATM    3  C4  UNL     1      22.747   1.047  51.453  1.00  0.00    -0.004 A 
HETATM    4  C5  UNL     1      23.817   0.611  52.243  1.00  0.00     0.086 A 
HETATM    5  C6  UNL     1      23.660  -0.141  53.389  1.00  0.00     0.047 A 
HETATM    6  C7  UNL     1      22.364  -0.489  53.783  1.00  0.00    -0.026 A 
HETATM    7  C8  UNL     1      22.266  -1.299  55.023  1.00  0.00     0.051 C 
HETATM    8  O2  UNL     1      25.172   0.876  51.985  1.00  0.00    -0.289 OA
HETATM    9  C9  UNL     1      25.747   2.010  51.379  1.00  0.00     0.203 A 
HETATM   10  N1  UNL     1      26.817   2.703  51.180  1.00  0.00    -0.202 NA
HETATM   11  C10 UNL     1      26.108   3.667  50.380  1.00  0.00     0.161 A 
HETATM   12  C17 UNL     1      24.999   2.986  50.562  1.00  0.00     0.129 A 
HETATM   13  N3  UNL     1      23.608   2.986  50.229  1.00  0.00    -0.379 N 
HETATM   14  C18 UNL     1      22.695   1.848  50.212  1.00  0.00     0.161 C 
HETATM   15  H18 UNL     1      23.231   3.945  49.972  1.00  0.00     0.160 HD
ENDROOT
BRANCH  11  16
HETATM   16  N2  UNL     1      26.509   4.852  49.700  1.00  0.00    -0.349 N 
HETATM   17  H9  UNL     1      25.996   5.734  49.922  1.00  0.00     0.167 HD
BRANCH  16  18
HETATM   18  C11 UNL     1      27.571   4.822  48.754  1.00  0.00     0.090 C 
HETATM   19  C12 UNL     1      28.096   5.923  48.216  1.00  0.00     0.017 C 
BRANCH  19  20
HETATM   20  C13 UNL     1      27.563   7.219  48.608  1.00  0.00    -0.003 C 
HETATM   21  C14 UNL     1      28.292   8.316  48.498  1.00  0.00    -0.026 C 
BRANCH  21  22
HETATM   22  C15 UNL     1      29.672   8.517  48.013  1.00  0.00     0.038 C 
BRANCH  22  23
HETATM   23  C16 UNL     1      30.510   9.015  49.171  1.00  0.00     0.089 C 
HETATM   24 BR1  UNL     1      30.681  10.939  49.023  1.00  0.00    -0.096 Br
ENDBRANCH  22  23
ENDBRANCH  21  22
ENDBRANCH  19  20
ENDBRANCH  16  18
ENDBRANCH  11  16
BRANCH   1  25
HETATM   25  O1  UNL     1      20.080  -0.491  53.535  1.00  0.00    -0.355 OA
HETATM   26  C1  UNL     1      18.923  -0.367  52.734  1.00  0.00     0.210 C 
ENDBRANCH   1  25
TORSDOF 6
ENDMDL
MODEL 2
REMARK VINA RESULT:      -7.2      3.778      8.701
REMARK  6 active torsions:
REMARK  status: ('A' for Active; 'I' for Inactive)
REMARK    1  A    between atoms: O1_2  and  C2_3 
REMARK    2  A    between atoms: C10_13  and  N2_14 
REMARK    3  A    between atoms: N2_14  and  C11_15 
REMARK    4  A    between atoms: C12_16  and  C13_17 
REMARK    5  A    between atoms: C14_18  and  C15_19 
REMARK    6  A    between atoms: C15_19  and  C16_20 
ROOT
HETATM    1  C2  UNL     1      28.299   6.362  48.083  1.00  0.00     0.074 A 
HETATM    2  C3  UNL     1      28.045   5.114  48.588  1.00  0.00     0.049 A 
HETATM    3  C4  UNL     1      26.782   4.732  48.993  1.00  0.00    -0.004 A 
HETATM    4  C5  UNL     1      25.771   5.690  48.861  1.00  0.00     0.086 A 
HETATM    5  C6  UNL     1      25.983   6.957  48.359  1.00  0.00     0.047 A 
HETATM    6  C7  UNL     1      27.276   7.305  47.959  1.00  0.00    -0.026 A 
HETATM    7  C8  UNL     1      27.436   8.682  47.429  1.00  0.00     0.051 C 
HETATM    8  O2  UNL     1      24.425   5.497  49.216  1.00  0.00    -0.289 OA
HETATM    9  C9  UNL     1      23.893   4.704  50.252  1.00  0.00     0.203 A 
HETATM   10  N1  UNL     1      22.875   4.448  51.003  1.00  0.00    -0.202 NA
HETATM   11  C10 UNL     1      23.578   3.393  51.685  1.00  0.00     0.161 A 
HETATM   12  C17 UNL     1      24.632   3.626  50.938  1.00  0.00     0.129 A 
HETATM   13  N3  UNL     1      25.973   3.182  50.708  1.00  0.00    -0.379 N 
HETATM   14  C18 UNL     1      26.770   3.342  49.497  1.00  0.00     0.161 C 
HETATM   15  H18 UNL     1      26.405   2.684  51.540  1.00  0.00     0.160 HD
ENDROOT
BRANCH  11  16
HETATM   16  N2  UNL     1      23.215   2.500  52.734  1.00  0.00    -0.349 N 
HETATM   17  H9  UNL     1      22.925   2.919  53.646  1.00  0.00     0.167 HD
BRANCH  16  18
HETATM   18  C11 UNL     1      23.250   1.092  52.534  1.00  0.00     0.090 C 
HETATM   19  C12 UNL     1      24.219   0.314  53.015  1.00  0.00     0.017 C 
BRANCH  19  20
HETATM   20  C13 UNL     1      25.296   0.925  53.779  1.00  0.00    -0.003 C 
HETATM   21  C14 UNL     1      26.562   0.692  53.477  1.00  0.00    -0.026 C 
BRANCH  21  22
HETATM   22  C15 UNL     1      27.168  -0.142  52.420  1.00  0.00     0.038 C 
BRANCH  22  23
HETATM   23  C16 UNL     1      27.834  -1.330  53.082  1.00  0.00     0.089 C 
HETATM   24 BR1  UNL     1      29.678  -0.866  53.459  1.00  0.00    -0.096 Br
ENDBRANCH  22  23
ENDBRANCH  21  22
ENDBRANCH  19  20
ENDBRANCH  16  18
ENDBRANCH  11  16
BRANCH   1  25
HETATM   25  O1  UNL     1      29.510   6.866  47.645  1.00  0.00    -0.355 OA
HETATM   26  C1  UNL     1      30.583   6.907  48.562  1.00  0.00     0.210 C 
ENDBRANCH   1  25
TORSDOF 6
ENDMDL
MODEL 3
REMARK VINA RESULT:      -7.2      5.153      7.665
REMARK  6 active torsions:
REMARK  status: ('A' for Active; 'I' for Inactive)
REMARK    1  A    between atoms: O1_2  and  C2_3 
REMARK    2  A    between atoms: C10_13  and  N2_14 
REMARK    3  A    between atoms: N2_14  and  C11_15 
REMARK    4  A    between atoms: C12_16  and  C13_17 
REMARK    5  A    between atoms: C14_18  and  C15_19 
REMARK    6  A    between atoms: C15_19  and  C16_20 
ROOT
HETATM    1  C2  UNL     1      25.219   6.484  49.258  1.00  0.00     0.074 A 
HETATM    2  C3  UNL     1      26.209   7.380  48.947  1.00  0.00     0.049 A 
HETATM    3  C4  UNL     1      27.478   6.973  48.592  1.00  0.00    -0.004 A 
HETATM    4  C5  UNL     1      27.704   5.592  48.566  1.00  0.00     0.086 A 
HETATM    5  C6  UNL     1      26.738   4.656  48.874  1.00  0.00     0.047 A 
HETATM    6  C7  UNL     1      25.464   5.110  49.228  1.00  0.00    -0.026 A 
HETATM    7  C8  UNL     1      24.472   4.053  49.546  1.00  0.00     0.051 C 
HETATM    8  O2  UNL     1      28.924   4.979  48.233  1.00  0.00    -0.289 OA
HETATM    9  C9  UNL     1      30.233   5.448  48.452  1.00  0.00     0.203 A 
HETATM   10  N1  UNL     1      31.489   5.156  48.524  1.00  0.00    -0.202 NA
HETATM   11  C10 UNL     1      31.844   6.520  48.813  1.00  0.00     0.161 A 
HETATM   12  C17 UNL     1      30.575   6.854  48.748  1.00  0.00     0.129 A 
HETATM   13  N3  UNL     1      29.696   7.976  48.868  1.00  0.00    -0.379 N 
HETATM   14  C18 UNL     1      28.359   8.125  48.304  1.00  0.00     0.161 C 
HETATM   15  H18 UNL     1      30.097   8.773  49.443  1.00  0.00     0.160 HD
ENDROOT
BRANCH  11  16
HETATM   16  N2  UNL     1      33.086   7.172  49.060  1.00  0.00    -0.349 N 
HETATM   17  H9  UNL     1      33.241   7.575  50.011  1.00  0.00     0.167 HD
BRANCH  16  18
HETATM   18  C11 UNL     1      34.072   7.265  48.039  1.00  0.00     0.090 C 
HETATM   19  C12 UNL     1      34.994   6.324  47.831  1.00  0.00     0.017 C 
BRANCH  19  20
HETATM   20  C13 UNL     1      34.998   5.145  48.685  1.00  0.00    -0.003 C 
HETATM   21  C14 UNL     1      34.976   3.930  48.166  1.00  0.00    -0.026 C 
BRANCH  21  22
HETATM   22  C15 UNL     1      34.944   3.477  46.760  1.00  0.00     0.038 C 
BRANCH  22  23
HETATM   23  C16 UNL     1      33.496   3.288  46.359  1.00  0.00     0.089 C 
HETATM   24 BR1  UNL     1      33.060   4.603  45.004  1.00  0.00    -0.096 Br
ENDBRANCH  22  23
ENDBRANCH  21  22
ENDBRANCH  19  20
ENDBRANCH  16  18
ENDBRANCH  11  16
BRANCH   1  25
HETATM   25  O1  UNL     1      23.916   6.760  49.627  1.00  0.00    -0.355 OA
HETATM   26  C1  UNL     1      23.695   7.797  50.561  1.00  0.00     0.210 C 
ENDBRANCH   1  25
TORSDOF 6
ENDMDL
MODEL 4
REMARK VINA RESULT:      -7.2      1.859      2.353
REMARK  6 active torsions:
REMARK  status: ('A' for Active; 'I' for Inactive)
REMARK    1  A    between atoms: O1_2  and  C2_3 
REMARK    2  A    between atoms: C10_13  and  N2_14 
REMARK    3  A    between atoms: N2_14  and  C11_15 
REMARK    4  A    between atoms: C12_16  and  C13_17 
REMARK    5  A    between atoms: C14_18  and  C15_19 
REMARK    6  A    between atoms: C15_19  and  C16_20 
ROOT
HETATM    1  C2  UNL     1      21.270  -0.137  53.182  1.00  0.00     0.074 A 
HETATM    2  C3  UNL     1      21.464   0.675  52.096  1.00  0.00     0.049 A 
HETATM    3  C4  UNL     1      22.726   1.023  51.659  1.00  0.00    -0.004 A 
HETATM    4  C5  UNL     1      23.801   0.501  52.387  1.00  0.00     0.086 A 
HETATM    5  C6  UNL     1      23.651  -0.319  53.486  1.00  0.00     0.047 A 
HETATM    6  C7  UNL     1      22.356  -0.649  53.896  1.00  0.00    -0.026 A 
HETATM    7  C8  UNL     1      22.265  -1.534  55.084  1.00  0.00     0.051 C 
HETATM    8  O2  UNL     1      25.157   0.738  52.104  1.00  0.00    -0.289 OA
HETATM    9  C9  UNL     1      25.754   1.889  51.556  1.00  0.00     0.203 A 
HETATM   10  N1  UNL     1      26.842   2.558  51.368  1.00  0.00    -0.202 NA
HETATM   11  C10 UNL     1      26.144   3.594  50.654  1.00  0.00     0.161 A 
HETATM   12  C17 UNL     1      25.018   2.941  50.825  1.00  0.00     0.129 A 
HETATM   13  N3  UNL     1      23.619   3.008  50.536  1.00  0.00    -0.379 N 
HETATM   14  C18 UNL     1      22.667   1.904  50.474  1.00  0.00     0.161 C 
HETATM   15  H18 UNL     1      23.269   3.993  50.353  1.00  0.00     0.160 HD
ENDROOT
BRANCH  11  16
HETATM   16  N2  UNL     1      26.567   4.808  50.039  1.00  0.00    -0.349 N 
HETATM   17  H9  UNL     1      26.328   5.703  50.521  1.00  0.00     0.167 HD
BRANCH  16  18
HETATM   18  C11 UNL     1      27.287   4.787  48.812  1.00  0.00     0.090 C 
HETATM   19  C12 UNL     1      27.685   5.894  48.185  1.00  0.00     0.017 C 
BRANCH  19  20
HETATM   20  C13 UNL     1      27.371   7.187  48.774  1.00  0.00    -0.003 C 
HETATM   21  C14 UNL     1      26.218   7.784  48.528  1.00  0.00    -0.026 C 
BRANCH  21  22
HETATM   22  C15 UNL     1      25.070   7.369  47.696  1.00  0.00     0.038 C 
BRANCH  22  23
HETATM   23  C16 UNL     1      23.817   7.983  48.284  1.00  0.00     0.089 C 
HETATM   24 BR1  UNL     1      23.876   7.772  50.209  1.00  0.00    -0.096 Br
ENDBRANCH  22  23
ENDBRANCH  21  22
ENDBRANCH  19  20
ENDBRANCH  16  18
ENDBRANCH  11  16
BRANCH   1  25
HETATM   25  O1  UNL     1      20.067  -0.559  53.718  1.00  0.00    -0.355 OA
HETATM   26  C1  UNL     1      18.933  -0.570  52.876  1.00  0.00     0.210 C 
ENDBRANCH   1  25
TORSDOF 6
ENDMDL
MODEL 5
REMARK VINA RESULT:      -7.1      1.990      2.898
REMARK  6 active torsions:
REMARK  status: ('A' for Active; 'I' for Inactive)
REMARK    1  A    between atoms: O1_2  and  C2_3 
REMARK    2  A    between atoms: C10_13  and  N2_14 
REMARK    3  A    between atoms: N2_14  and  C11_15 
REMARK    4  A    between atoms: C12_16  and  C13_17 
REMARK    5  A    between atoms: C14_18  and  C15_19 
REMARK    6  A    between atoms: C15_19  and  C16_20 
ROOT
HETATM    1  C2  UNL     1      22.783  -0.071  52.928  1.00  0.00     0.074 A 
HETATM    2  C3  UNL     1      24.034   0.488  52.985  1.00  0.00     0.049 A 
HETATM    3  C4  UNL     1      24.346   1.650  52.310  1.00  0.00    -0.004 A 
HETATM    4  C5  UNL     1      23.317   2.230  51.561  1.00  0.00     0.086 A 
HETATM    5  C6  UNL     1      22.046   1.701  51.475  1.00  0.00     0.047 A 
HETATM    6  C7  UNL     1      21.768   0.523  52.175  1.00  0.00    -0.026 A 
HETATM    7  C8  UNL     1      20.383   0.007  52.040  1.00  0.00     0.051 C 
HETATM    8  O2  UNL     1      23.434   3.409  50.805  1.00  0.00    -0.289 OA
HETATM    9  C9  UNL     1      24.560   3.908  50.122  1.00  0.00     0.203 A 
HETATM   10  N1  UNL     1      25.007   4.715  49.219  1.00  0.00    -0.202 NA
HETATM   11  C10 UNL     1      26.367   4.303  49.449  1.00  0.00     0.161 A 
HETATM   12  C17 UNL     1      25.948   3.471  50.374  1.00  0.00     0.129 A 
HETATM   13  N3  UNL     1      26.416   2.501  51.315  1.00  0.00    -0.379 N 
HETATM   14  C18 UNL     1      25.753   2.046  52.532  1.00  0.00     0.161 C 
HETATM   15  H18 UNL     1      27.360   2.084  51.063  1.00  0.00     0.160 HD
ENDROOT
BRANCH  11  16
HETATM   16  N2  UNL     1      27.611   4.686  48.871  1.00  0.00    -0.349 N 
HETATM   17  H9  UNL     1      28.370   3.969  48.839  1.00  0.00     0.167 HD
BRANCH  16  18
HETATM   18  C11 UNL     1      27.800   5.999  48.357  1.00  0.00     0.090 C 
HETATM   19  C12 UNL     1      28.987   6.461  47.962  1.00  0.00     0.017 C 
BRANCH  19  20
HETATM   20  C13 UNL     1      30.148   5.588  48.060  1.00  0.00    -0.003 C 
HETATM   21  C14 UNL     1      31.266   6.005  48.628  1.00  0.00    -0.026 C 
BRANCH  21  22
HETATM   22  C15 UNL     1      31.614   7.300  49.246  1.00  0.00     0.038 C 
BRANCH  22  23
HETATM   23  C16 UNL     1      33.001   7.687  48.777  1.00  0.00     0.089 C 
HETATM   24 BR1  UNL     1      34.048   6.071  48.559  1.00  0.00    -0.096 Br
ENDBRANCH  22  23
ENDBRANCH  21  22
ENDBRANCH  19  20
ENDBRANCH  16  18
ENDBRANCH  11  16
BRANCH   1  25
HETATM   25  O1  UNL     1      22.344  -1.223  53.553  1.00  0.00    -0.355 OA
HETATM   26  C1  UNL     1      22.323  -1.246  54.965  1.00  0.00     0.210 C 
ENDBRANCH   1  25
TORSDOF 6
ENDMDL
MODEL 6
REMARK VINA RESULT:      -7.0      3.105      3.775
REMARK  6 active torsions:
REMARK  status: ('A' for Active; 'I' for Inactive)
REMARK    1  A    between atoms: O1_2  and  C2_3 
REMARK    2  A    between atoms: C10_13  and  N2_14 
REMARK    3  A    between atoms: N2_14  and  C11_15 
REMARK    4  A    between atoms: C12_16  and  C13_17 
REMARK    5  A    between atoms: C14_18  and  C15_19 
REMARK    6  A    between atoms: C15_19  and  C16_20 
ROOT
HETATM    1  C2  UNL     1      21.448  -0.173  53.243  1.00  0.00     0.074 A 
HETATM    2  C3  UNL     1      21.698   0.609  52.145  1.00  0.00     0.049 A 
HETATM    3  C4  UNL     1      22.982   0.893  51.727  1.00  0.00    -0.004 A 
HETATM    4  C5  UNL     1      24.020   0.338  52.485  1.00  0.00     0.086 A 
HETATM    5  C6  UNL     1      23.813  -0.453  53.596  1.00  0.00     0.047 A 
HETATM    6  C7  UNL     1      22.497  -0.718  53.987  1.00  0.00    -0.026 A 
HETATM    7  C8  UNL     1      22.344  -1.575  55.189  1.00  0.00     0.051 C 
HETATM    8  O2  UNL     1      25.390   0.510  52.225  1.00  0.00    -0.289 OA
HETATM    9  C9  UNL     1      26.047   1.623  51.667  1.00  0.00     0.203 A 
HETATM   10  N1  UNL     1      27.167   2.240  51.489  1.00  0.00    -0.202 NA
HETATM   11  C10 UNL     1      26.529   3.292  50.742  1.00  0.00     0.161 A 
HETATM   12  C17 UNL     1      25.372   2.691  50.903  1.00  0.00     0.129 A 
HETATM   13  N3  UNL     1      23.983   2.815  50.586  1.00  0.00    -0.379 N 
HETATM   14  C18 UNL     1      22.985   1.753  50.525  1.00  0.00     0.161 C 
HETATM   15  H18 UNL     1      23.680   3.810  50.377  1.00  0.00     0.160 HD
ENDROOT
BRANCH  11  16
HETATM   16  N2  UNL     1      27.016   4.474  50.113  1.00  0.00    -0.349 N 
HETATM   17  H9  UNL     1      27.830   4.956  50.555  1.00  0.00     0.167 HD
BRANCH  16  18
HETATM   18  C11 UNL     1      26.408   4.968  48.926  1.00  0.00     0.090 C 
HETATM   19  C12 UNL     1      25.530   5.971  48.922  1.00  0.00     0.017 C 
BRANCH  19  20
HETATM   20  C13 UNL     1      25.171   6.594  50.187  1.00  0.00    -0.003 C 
HETATM   21  C14 UNL     1      23.913   6.645  50.588  1.00  0.00    -0.026 C 
BRANCH  21  22
HETATM   22  C15 UNL     1      22.674   6.150  49.954  1.00  0.00     0.038 C 
BRANCH  22  23
HETATM   23  C16 UNL     1      21.545   6.292  50.953  1.00  0.00     0.089 C 
HETATM   24 BR1  UNL     1      20.660   4.577  51.125  1.00  0.00    -0.096 Br
ENDBRANCH  22  23
ENDBRANCH  21  22
ENDBRANCH  19  20
ENDBRANCH  16  18
ENDBRANCH  11  16
BRANCH   1  25
HETATM   25  O1  UNL     1      20.218  -0.531  53.762  1.00  0.00    -0.355 OA
HETATM   26  C1  UNL     1      19.098  -0.496  52.902  1.00  0.00     0.210 C 
ENDBRANCH   1  25
TORSDOF 6
ENDMDL
MODEL 7
REMARK VINA RESULT:      -7.0      4.339      5.714
REMARK  6 active torsions:
REMARK  status: ('A' for Active; 'I' for Inactive)
REMARK    1  A    between atoms: O1_2  and  C2_3 
REMARK    2  A    between atoms: C10_13  and  N2_14 
REMARK    3  A    between atoms: N2_14  and  C11_15 
REMARK    4  A    between atoms: C12_16  and  C13_17 
REMARK    5  A    between atoms: C14_18  and  C15_19 
REMARK    6  A    between atoms: C15_19  and  C16_20 
ROOT
HETATM    1  C2  UNL     1      26.020   0.022  54.078  1.00  0.00     0.074 A 
HETATM    2  C3  UNL     1      24.977   0.459  53.305  1.00  0.00     0.049 A 
HETATM    3  C4  UNL     1      25.164   1.316  52.240  1.00  0.00    -0.004 A 
HETATM    4  C5  UNL     1      26.482   1.719  51.991  1.00  0.00     0.086 A 
HETATM    5  C6  UNL     1      27.560   1.304  52.744  1.00  0.00     0.047 A 
HETATM    6  C7  UNL     1      27.328   0.434  53.814  1.00  0.00    -0.026 A 
HETATM    7  C8  UNL     1      28.530   0.027  54.583  1.00  0.00     0.051 C 
HETATM    8  O2  UNL     1      26.879   2.586  50.959  1.00  0.00    -0.289 OA
HETATM    9  C9  UNL     1      26.171   3.663  50.393  1.00  0.00     0.203 A 
HETATM   10  N1  UNL     1      26.227   4.743  49.688  1.00  0.00    -0.202 NA
HETATM   11  C10 UNL     1      24.809   4.957  49.805  1.00  0.00     0.161 A 
HETATM   12  C17 UNL     1      24.714   3.863  50.526  1.00  0.00     0.129 A 
HETATM   13  N3  UNL     1      23.765   3.049  51.220  1.00  0.00    -0.379 N 
HETATM   14  C18 UNL     1      23.887   1.637  51.568  1.00  0.00     0.161 C 
HETATM   15  H18 UNL     1      22.882   3.567  51.500  1.00  0.00     0.160 HD
ENDROOT
BRANCH  11  16
HETATM   16  N2  UNL     1      23.932   5.966  49.314  1.00  0.00    -0.349 N 
HETATM   17  H9  UNL     1      23.329   6.462  50.007  1.00  0.00     0.167 HD
BRANCH  16  18
HETATM   18  C11 UNL     1      23.890   6.279  47.927  1.00  0.00     0.090 C 
HETATM   19  C12 UNL     1      22.800   6.109  47.177  1.00  0.00     0.017 C 
BRANCH  19  20
HETATM   20  C13 UNL     1      21.596   5.580  47.798  1.00  0.00    -0.003 C 
HETATM   21  C14 UNL     1      21.239   4.319  47.623  1.00  0.00    -0.026 C 
BRANCH  21  22
HETATM   22  C15 UNL     1      21.873   3.230  46.853  1.00  0.00     0.038 C 
BRANCH  22  23
HETATM   23  C16 UNL     1      22.583   2.316  47.828  1.00  0.00     0.089 C 
HETATM   24 BR1  UNL     1      21.249   1.321  48.819  1.00  0.00    -0.096 Br
ENDBRANCH  22  23
ENDBRANCH  21  22
ENDBRANCH  19  20
ENDBRANCH  16  18
ENDBRANCH  11  16
BRANCH   1  25
HETATM   25  O1  UNL     1      25.967  -0.832  55.165  1.00  0.00    -0.355 OA
HETATM   26  C1  UNL     1      24.696  -1.205  55.654  1.00  0.00     0.210 C 
ENDBRANCH   1  25
TORSDOF 6
ENDMDL
MODEL 8
REMARK VINA RESULT:      -7.0      2.468      3.513
REMARK  6 active torsions:
REMARK  status: ('A' for Active; 'I' for Inactive)
REMARK    1  A    between atoms: O1_2  and  C2_3 
REMARK    2  A    between atoms: C10_13  and  N2_14 
REMARK    3  A    between atoms: N2_14  and  C11_15 
REMARK    4  A    between atoms: C12_16  and  C13_17 
REMARK    5  A    between atoms: C14_18  and  C15_19 
REMARK    6  A    between atoms: C15_19  and  C16_20 
ROOT
HETATM    1  C2  UNL     1      25.942   0.152  54.212  1.00  0.00     0.074 A 
HETATM    2  C3  UNL     1      24.947   0.552  53.359  1.00  0.00     0.049 A 
HETATM    3  C4  UNL     1      25.213   1.270  52.211  1.00  0.00    -0.004 A 
HETATM    4  C5  UNL     1      26.557   1.571  51.963  1.00  0.00     0.086 A 
HETATM    5  C6  UNL     1      27.589   1.189  52.796  1.00  0.00     0.047 A 
HETATM    6  C7  UNL     1      27.278   0.461  53.948  1.00  0.00    -0.026 A 
HETATM    7  C8  UNL     1      28.433   0.082  54.799  1.00  0.00     0.051 C 
HETATM    8  O2  UNL     1      27.032   2.291  50.854  1.00  0.00    -0.289 OA
HETATM    9  C9  UNL     1      26.402   3.333  50.146  1.00  0.00     0.203 A 
HETATM   10  N1  UNL     1      26.540   4.320  49.326  1.00  0.00    -0.202 NA
HETATM   11  C10 UNL     1      25.133   4.621  49.369  1.00  0.00     0.161 A 
HETATM   12  C17 UNL     1      24.956   3.624  50.205  1.00  0.00     0.129 A 
HETATM   13  N3  UNL     1      23.943   2.945  50.954  1.00  0.00    -0.379 N 
HETATM   14  C18 UNL     1      23.976   1.579  51.463  1.00  0.00     0.161 C 
HETATM   15  H18 UNL     1      23.083   3.539  51.142  1.00  0.00     0.160 HD
ENDROOT
BRANCH  11  16
HETATM   16  N2  UNL     1      24.329   5.612  48.737  1.00  0.00    -0.349 N 
HETATM   17  H9  UNL     1      23.778   5.324  47.898  1.00  0.00     0.167 HD
BRANCH  16  18
HETATM   18  C11 UNL     1      24.287   6.942  49.240  1.00  0.00     0.090 C 
HETATM   19  C12 UNL     1      24.914   7.961  48.652  1.00  0.00     0.017 C 
BRANCH  19  20
HETATM   20  C13 UNL     1      25.681   7.710  47.441  1.00  0.00    -0.003 C 
HETATM   21  C14 UNL     1      26.994   7.573  47.485  1.00  0.00    -0.026 C 
BRANCH  21  22
HETATM   22  C15 UNL     1      27.937   7.626  48.620  1.00  0.00     0.038 C 
BRANCH  22  23
HETATM   23  C16 UNL     1      28.879   8.791  48.395  1.00  0.00     0.089 C 
HETATM   24 BR1  UNL     1      28.003  10.412  48.994  1.00  0.00    -0.096 Br
ENDBRANCH  22  23
ENDBRANCH  21  22
ENDBRANCH  19  20
ENDBRANCH  16  18
ENDBRANCH  11  16
BRANCH   1  25
HETATM   25  O1  UNL     1      25.810  -0.567  55.386  1.00  0.00    -0.355 OA
HETATM   26  C1  UNL     1      24.588  -1.236  55.620  1.00  0.00     0.210 C 
ENDBRANCH   1  25
TORSDOF 6
ENDMDL
MODEL 9
REMARK VINA RESULT:      -6.9      2.219      3.385
REMARK  6 active torsions:
REMARK  status: ('A' for Active; 'I' for Inactive)
REMARK    1  A    between atoms: O1_2  and  C2_3 
REMARK    2  A    between atoms: C10_13  and  N2_14 
REMARK    3  A    between atoms: N2_14  and  C11_15 
REMARK    4  A    between atoms: C12_16  and  C13_17 
REMARK    5  A    between atoms: C14_18  and  C15_19 
REMARK    6  A    between atoms: C15_19  and  C16_20 
ROOT
HETATM    1  C2  UNL     1      25.692  -0.237  53.088  1.00  0.00     0.074 A 
HETATM    2  C3  UNL     1      26.475   0.715  52.489  1.00  0.00     0.049 A 
HETATM    3  C4  UNL     1      25.989   1.966  52.169  1.00  0.00    -0.004 A 
HETATM    4  C5  UNL     1      24.648   2.213  52.488  1.00  0.00     0.086 A 
HETATM    5  C6  UNL     1      23.825   1.283  53.089  1.00  0.00     0.047 A 
HETATM    6  C7  UNL     1      24.356   0.028  53.399  1.00  0.00    -0.026 A 
HETATM    7  C8  UNL     1      23.418  -0.924  54.044  1.00  0.00     0.051 C 
HETATM    8  O2  UNL     1      23.969   3.418  52.243  1.00  0.00    -0.289 OA
HETATM    9  C9  UNL     1      24.154   4.334  51.189  1.00  0.00     0.203 A 
HETATM   10  N1  UNL     1      23.664   5.319  50.514  1.00  0.00    -0.202 NA
HETATM   11  C10 UNL     1      24.827   5.389  49.670  1.00  0.00     0.161 A 
HETATM   12  C17 UNL     1      25.357   4.388  50.334  1.00  0.00     0.129 A 
HETATM   13  N3  UNL     1      26.526   3.565  50.393  1.00  0.00    -0.379 N 
HETATM   14  C18 UNL     1      27.026   2.807  51.535  1.00  0.00     0.161 C 
HETATM   15  H18 UNL     1      27.066   3.526  49.480  1.00  0.00     0.160 HD
ENDROOT
BRANCH  11  16
HETATM   16  N2  UNL     1      25.188   6.228  48.577  1.00  0.00    -0.349 N 
HETATM   17  H9  UNL     1      24.854   5.954  47.626  1.00  0.00     0.167 HD
BRANCH  16  18
HETATM   18  C11 UNL     1      25.976   7.394  48.786  1.00  0.00     0.090 C 
HETATM   19  C12 UNL     1      27.305   7.403  48.673  1.00  0.00     0.017 C 
BRANCH  19  20
HETATM   20  C13 UNL     1      27.988   6.168  48.322  1.00  0.00    -0.003 C 
HETATM   21  C14 UNL     1      29.224   6.184  47.853  1.00  0.00    -0.026 C 
BRANCH  21  22
HETATM   22  C15 UNL     1      30.144   7.308  47.586  1.00  0.00     0.038 C 
BRANCH  22  23
HETATM   23  C16 UNL     1      30.920   7.591  48.855  1.00  0.00     0.089 C 
HETATM   24 BR1  UNL     1      30.678   9.457  49.317  1.00  0.00    -0.096 Br
ENDBRANCH  22  23
ENDBRANCH  21  22
ENDBRANCH  19  20
ENDBRANCH  16  18
ENDBRANCH  11  16
BRANCH   1  25
HETATM   25  O1  UNL     1      26.055  -1.518  53.459  1.00  0.00    -0.355 OA
HETATM   26  C1  UNL     1      26.952  -2.221  52.625  1.00  0.00     0.210 C 
ENDBRANCH   1  25
TORSDOF 6
ENDMDL
