MODEL 1
REMARK VINA RESULT:      -7.4      0.000      0.000
REMARK  4 active torsions:
REMARK  status: ('A' for Active; 'I' for Inactive)
REMARK    1  A    between atoms: C7_9  and  O1_10 
REMARK    2  A    between atoms: O1_10  and  C8_11 
REMARK    3  A    between atoms: C8_11  and  C9_12 
REMARK    4  A    between atoms: C9_12  and  O2_13 
ROOT
HETATM    1  C1  UNL     1      26.827  -2.096  52.407  1.00  0.00     0.036 C 
HETATM    2  C2  UNL     1      27.760  -1.201  53.179  1.00  0.00    -0.025 C 
HETATM    3  C3  UNL     1      27.842   0.010  53.667  1.00  0.00    -0.049 C 
HETATM    4  C4  UNL     1      29.103   0.414  54.407  1.00  0.00     0.176 C 
HETATM    5  N1  UNL     1      29.236   1.847  54.212  1.00  0.00    -0.310 N 
HETATM    6  N2  UNL     1      28.635   2.455  53.079  1.00  0.00    -0.183 NA
HETATM    7  C5  UNL     1      27.434   2.179  52.689  1.00  0.00     0.071 A 
HETATM    8  C6  UNL     1      26.775   2.769  51.540  1.00  0.00     0.069 A 
HETATM    9  C7  UNL     1      25.554   2.310  51.338  1.00  0.00     0.106 A 
HETATM   10  C11 UNL     1      24.893   1.314  52.159  1.00  0.00     0.132 A 
HETATM   11  C12 UNL     1      25.524   0.794  53.210  1.00  0.00     0.096 A 
HETATM   12  O3  UNL     1      24.940  -0.161  54.030  1.00  0.00    -0.349 OA
HETATM   13  C13 UNL     1      23.613  -0.610  53.828  1.00  0.00     0.202 C 
HETATM   14  C14 UNL     1      22.838   0.397  52.983  1.00  0.00     0.202 C 
HETATM   15  O4  UNL     1      23.598   0.868  51.894  1.00  0.00    -0.344 OA
HETATM   16  C15 UNL     1      26.873   1.141  53.633  1.00  0.00     0.129 A 
HETATM   17  H7  UNL     1      29.788   2.291  54.976  1.00  0.00     0.182 HD
ENDROOT
BRANCH   9  18
HETATM   18  O1  UNL     1      24.925   2.884  50.225  1.00  0.00    -0.346 OA
BRANCH  18  19
HETATM   19  C8  UNL     1      24.624   4.279  50.369  1.00  0.00     0.201 C 
BRANCH  19  20
HETATM   20  C9  UNL     1      25.110   5.045  49.167  1.00  0.00     0.193 C 
BRANCH  20  21
HETATM   21  O2  UNL     1      26.340   5.608  49.387  1.00  0.00    -0.394 OA
HETATM   22  C10 UNL     1      27.369   5.036  48.661  1.00  0.00     0.201 C 
ENDBRANCH  20  21
ENDBRANCH  19  20
ENDBRANCH  18  19
ENDBRANCH   9  18
TORSDOF 4
ENDMDL
MODEL 2
REMARK VINA RESULT:      -7.4      2.224      4.981
REMARK  4 active torsions:
REMARK  status: ('A' for Active; 'I' for Inactive)
REMARK    1  A    between atoms: C7_9  and  O1_10 
REMARK    2  A    between atoms: O1_10  and  C8_11 
REMARK    3  A    between atoms: C8_11  and  C9_12 
REMARK    4  A    between atoms: C9_12  and  O2_13 
ROOT
HETATM    1  C1  UNL     1      28.474   2.543  53.720  1.00  0.00     0.036 C 
HETATM    2  C2  UNL     1      28.626   1.058  53.524  1.00  0.00    -0.025 C 
HETATM    3  C3  UNL     1      28.022   0.033  52.980  1.00  0.00    -0.049 C 
HETATM    4  C4  UNL     1      28.665  -1.336  53.091  1.00  0.00     0.176 C 
HETATM    5  N1  UNL     1      27.572  -2.292  53.072  1.00  0.00    -0.310 N 
HETATM    6  N2  UNL     1      26.279  -1.879  53.488  1.00  0.00    -0.183 NA
HETATM    7  C5  UNL     1      25.746  -0.761  53.117  1.00  0.00     0.071 A 
HETATM    8  C6  UNL     1      24.433  -0.293  53.514  1.00  0.00     0.069 A 
HETATM    9  C7  UNL     1      24.121   0.889  53.017  1.00  0.00     0.106 A 
HETATM   10  C11 UNL     1      24.977   1.680  52.154  1.00  0.00     0.132 A 
HETATM   11  C12 UNL     1      26.177   1.221  51.805  1.00  0.00     0.096 A 
HETATM   12  O3  UNL     1      27.036   1.934  50.982  1.00  0.00    -0.349 OA
HETATM   13  C13 UNL     1      26.670   3.181  50.419  1.00  0.00     0.202 C 
HETATM   14  C14 UNL     1      25.152   3.342  50.435  1.00  0.00     0.202 C 
HETATM   15  O4  UNL     1      24.591   2.927  51.660  1.00  0.00    -0.344 OA
HETATM   16  C15 UNL     1      26.740  -0.054  52.227  1.00  0.00     0.129 A 
HETATM   17  H7  UNL     1      27.882  -3.225  52.731  1.00  0.00     0.182 HD
ENDROOT
BRANCH   9  18
HETATM   18  O1  UNL     1      22.850   1.336  53.406  1.00  0.00    -0.346 OA
BRANCH  18  19
HETATM   19  C8  UNL     1      21.763   0.673  52.745  1.00  0.00     0.201 C 
BRANCH  19  20
HETATM   20  C9  UNL     1      20.621   0.462  53.704  1.00  0.00     0.193 C 
BRANCH  20  21
HETATM   21  O2  UNL     1      20.974  -0.362  54.741  1.00  0.00    -0.394 OA
HETATM   22  C10 UNL     1      21.140  -1.689  54.386  1.00  0.00     0.201 C 
ENDBRANCH  20  21
ENDBRANCH  19  20
ENDBRANCH  18  19
ENDBRANCH   9  18
TORSDOF 4
ENDMDL
MODEL 3
REMARK VINA RESULT:      -7.2      3.186      6.055
REMARK  4 active torsions:
REMARK  status: ('A' for Active; 'I' for Inactive)
REMARK    1  A    between atoms: C7_9  and  O1_10 
REMARK    2  A    between atoms: O1_10  and  C8_11 
REMARK    3  A    between atoms: C8_11  and  C9_12 
REMARK    4  A    between atoms: C9_12  and  O2_13 
ROOT
HETATM    1  C1  UNL     1      21.253   0.772  50.024  1.00  0.00     0.036 C 
HETATM    2  C2  UNL     1      20.680   0.228  51.306  1.00  0.00    -0.025 C 
HETATM    3  C3  UNL     1      20.910   0.196  52.594  1.00  0.00    -0.049 C 
HETATM    4  C4  UNL     1      19.940  -0.551  53.489  1.00  0.00     0.176 C 
HETATM    5  N1  UNL     1      20.722  -1.018  54.621  1.00  0.00    -0.310 N 
HETATM    6  N2  UNL     1      22.121  -1.205  54.470  1.00  0.00    -0.183 NA
HETATM    7  C5  UNL     1      22.884  -0.350  53.872  1.00  0.00     0.071 A 
HETATM    8  C6  UNL     1      24.315  -0.494  53.690  1.00  0.00     0.069 A 
HETATM    9  C7  UNL     1      24.867   0.507  53.031  1.00  0.00     0.106 A 
HETATM   10  C11 UNL     1      24.153   1.661  52.520  1.00  0.00     0.132 A 
HETATM   11  C12 UNL     1      22.839   1.766  52.706  1.00  0.00     0.096 A 
HETATM   12  O3  UNL     1      22.105   2.847  52.239  1.00  0.00    -0.349 OA
HETATM   13  C13 UNL     1      22.718   3.936  51.573  1.00  0.00     0.202 C 
HETATM   14  C14 UNL     1      24.212   3.972  51.886  1.00  0.00     0.202 C 
HETATM   15  O4  UNL     1      24.794   2.689  51.828  1.00  0.00    -0.344 OA
HETATM   16  C15 UNL     1      22.012   0.790  53.401  1.00  0.00     0.129 A 
HETATM   17  H7  UNL     1      20.131  -1.165  55.464  1.00  0.00     0.182 HD
ENDROOT
BRANCH   9  18
HETATM   18  O1  UNL     1      26.251   0.360  52.858  1.00  0.00    -0.346 OA
BRANCH  18  19
HETATM   19  C8  UNL     1      27.046   1.079  53.812  1.00  0.00     0.201 C 
BRANCH  19  20
HETATM   20  C9  UNL     1      27.842   0.119  54.657  1.00  0.00     0.193 C 
BRANCH  20  21
HETATM   21  O2  UNL     1      28.257  -0.969  53.935  1.00  0.00    -0.394 OA
HETATM   22  C10 UNL     1      29.612  -0.986  53.655  1.00  0.00     0.201 C 
ENDBRANCH  20  21
ENDBRANCH  19  20
ENDBRANCH  18  19
ENDBRANCH   9  18
TORSDOF 4
ENDMDL
MODEL 4
REMARK VINA RESULT:      -6.6      2.966      5.667
REMARK  4 active torsions:
REMARK  status: ('A' for Active; 'I' for Inactive)
REMARK    1  A    between atoms: C7_9  and  O1_10 
REMARK    2  A    between atoms: O1_10  and  C8_11 
REMARK    3  A    between atoms: C8_11  and  C9_12 
REMARK    4  A    between atoms: C9_12  and  O2_13 
ROOT
HETATM    1  C1  UNL     1      22.034   1.695  48.832  1.00  0.00     0.036 C 
HETATM    2  C2  UNL     1      21.557   0.999  50.078  1.00  0.00    -0.025 C 
HETATM    3  C3  UNL     1      21.750   0.975  51.372  1.00  0.00    -0.049 C 
HETATM    4  C4  UNL     1      20.940   0.006  52.213  1.00  0.00     0.176 C 
HETATM    5  N1  UNL     1      21.772  -0.316  53.359  1.00  0.00    -0.310 N 
HETATM    6  N2  UNL     1      23.182  -0.191  53.254  1.00  0.00    -0.183 NA
HETATM    7  C5  UNL     1      23.758   0.829  52.705  1.00  0.00     0.071 A 
HETATM    8  C6  UNL     1      25.190   1.004  52.571  1.00  0.00     0.069 A 
HETATM    9  C7  UNL     1      25.530   2.122  51.957  1.00  0.00     0.106 A 
HETATM   10  C11 UNL     1      24.597   3.110  51.451  1.00  0.00     0.132 A 
HETATM   11  C12 UNL     1      23.287   2.921  51.592  1.00  0.00     0.096 A 
HETATM   12  O3  UNL     1      22.349   3.832  51.128  1.00  0.00    -0.349 OA
HETATM   13  C13 UNL     1      22.730   5.049  50.513  1.00  0.00     0.202 C 
HETATM   14  C14 UNL     1      24.170   5.399  50.878  1.00  0.00     0.202 C 
HETATM   15  O4  UNL     1      25.018   4.275  50.809  1.00  0.00    -0.344 OA
HETATM   16  C15 UNL     1      22.672   1.767  52.233  1.00  0.00     0.129 A 
HETATM   17  H7  UNL     1      21.203  -0.616  54.177  1.00  0.00     0.182 HD
ENDROOT
BRANCH   9  18
HETATM   18  O1  UNL     1      26.917   2.285  51.830  1.00  0.00    -0.346 OA
BRANCH  18  19
HETATM   19  C8  UNL     1      27.691   1.504  52.752  1.00  0.00     0.201 C 
BRANCH  19  20
HETATM   20  C9  UNL     1      28.557   2.401  53.597  1.00  0.00     0.193 C 
BRANCH  20  21
HETATM   21  O2  UNL     1      29.042   1.746  54.699  1.00  0.00    -0.394 OA
HETATM   22  C10 UNL     1      28.649   0.423  54.797  1.00  0.00     0.201 C 
ENDBRANCH  20  21
ENDBRANCH  19  20
ENDBRANCH  18  19
ENDBRANCH   9  18
TORSDOF 4
ENDMDL
MODEL 5
REMARK VINA RESULT:      -6.6      2.278      5.261
REMARK  4 active torsions:
REMARK  status: ('A' for Active; 'I' for Inactive)
REMARK    1  A    between atoms: C7_9  and  O1_10 
REMARK    2  A    between atoms: O1_10  and  C8_11 
REMARK    3  A    between atoms: C8_11  and  C9_12 
REMARK    4  A    between atoms: C9_12  and  O2_13 
ROOT
HETATM    1  C1  UNL     1      23.087   4.875  52.638  1.00  0.00     0.036 C 
HETATM    2  C2  UNL     1      23.948   5.059  51.417  1.00  0.00    -0.025 C 
HETATM    3  C3  UNL     1      24.636   4.374  50.540  1.00  0.00    -0.049 C 
HETATM    4  C4  UNL     1      25.365   5.121  49.440  1.00  0.00     0.176 C 
HETATM    5  N1  UNL     1      26.515   4.303  49.099  1.00  0.00    -0.310 N 
HETATM    6  N2  UNL     1      27.039   3.402  50.062  1.00  0.00    -0.183 NA
HETATM    7  C5  UNL     1      26.292   2.634  50.786  1.00  0.00     0.071 A 
HETATM    8  C6  UNL     1      26.775   1.700  51.783  1.00  0.00     0.069 A 
HETATM    9  C7  UNL     1      25.812   1.042  52.402  1.00  0.00     0.106 A 
HETATM   10  C11 UNL     1      24.395   1.204  52.143  1.00  0.00     0.132 A 
HETATM   11  C12 UNL     1      23.983   2.069  51.218  1.00  0.00     0.096 A 
HETATM   12  O3  UNL     1      22.640   2.265  50.928  1.00  0.00    -0.349 OA
HETATM   13  C13 UNL     1      21.620   1.519  51.568  1.00  0.00     0.202 C 
HETATM   14  C14 UNL     1      22.199   0.243  52.172  1.00  0.00     0.202 C 
HETATM   15  O4  UNL     1      23.423   0.479  52.832  1.00  0.00    -0.344 OA
HETATM   16  C15 UNL     1      24.855   2.906  50.407  1.00  0.00     0.129 A 
HETATM   17  H7  UNL     1      26.840   4.479  48.126  1.00  0.00     0.182 HD
ENDROOT
BRANCH   9  18
HETATM   18  O1  UNL     1      26.288   0.141  53.365  1.00  0.00    -0.346 OA
BRANCH  18  19
HETATM   19  C8  UNL     1      26.854   0.762  54.528  1.00  0.00     0.201 C 
BRANCH  19  20
HETATM   20  C9  UNL     1      28.137   0.075  54.914  1.00  0.00     0.193 C 
BRANCH  20  21
HETATM   21  O2  UNL     1      29.192   0.502  54.150  1.00  0.00    -0.394 OA
HETATM   22  C10 UNL     1      29.874  -0.510  53.500  1.00  0.00     0.201 C 
ENDBRANCH  20  21
ENDBRANCH  19  20
ENDBRANCH  18  19
ENDBRANCH   9  18
TORSDOF 4
ENDMDL
MODEL 6
REMARK VINA RESULT:      -6.4      3.326      6.095
REMARK  4 active torsions:
REMARK  status: ('A' for Active; 'I' for Inactive)
REMARK    1  A    between atoms: C7_9  and  O1_10 
REMARK    2  A    between atoms: O1_10  and  C8_11 
REMARK    3  A    between atoms: C8_11  and  C9_12 
REMARK    4  A    between atoms: C9_12  and  O2_13 
ROOT
HETATM    1  C1  UNL     1      24.166   3.627  53.082  1.00  0.00     0.036 C 
HETATM    2  C2  UNL     1      25.020   2.441  53.444  1.00  0.00    -0.025 C 
HETATM    3  C3  UNL     1      25.022   1.133  53.399  1.00  0.00    -0.049 C 
HETATM    4  C4  UNL     1      26.225   0.387  53.944  1.00  0.00     0.176 C 
HETATM    5  N1  UNL     1      25.722  -0.893  54.410  1.00  0.00    -0.310 N 
HETATM    6  N2  UNL     1      24.357  -1.010  54.783  1.00  0.00    -0.183 NA
HETATM    7  C5  UNL     1      23.392  -0.512  54.081  1.00  0.00     0.071 A 
HETATM    8  C6  UNL     1      21.985  -0.602  54.417  1.00  0.00     0.069 A 
HETATM    9  C7  UNL     1      21.195   0.003  53.550  1.00  0.00     0.106 A 
HETATM   10  C11 UNL     1      21.645   0.702  52.362  1.00  0.00     0.132 A 
HETATM   11  C12 UNL     1      22.944   0.764  52.079  1.00  0.00     0.096 A 
HETATM   12  O3  UNL     1      23.431   1.418  50.956  1.00  0.00    -0.349 OA
HETATM   13  C13 UNL     1      22.569   2.023  50.011  1.00  0.00     0.202 C 
HETATM   14  C14 UNL     1      21.160   1.448  50.135  1.00  0.00     0.202 C 
HETATM   15  O4  UNL     1      20.759   1.324  51.481  1.00  0.00    -0.344 OA
HETATM   16  C15 UNL     1      24.005   0.175  52.883  1.00  0.00     0.129 A 
HETATM   17  H7  UNL     1      26.464  -1.622  54.414  1.00  0.00     0.182 HD
ENDROOT
BRANCH   9  18
HETATM   18  O1  UNL     1      19.836  -0.087  53.882  1.00  0.00    -0.346 OA
BRANCH  18  19
HETATM   19  C8  UNL     1      19.246  -1.368  53.618  1.00  0.00     0.201 C 
BRANCH  19  20
HETATM   20  C9  UNL     1      17.945  -1.200  52.877  1.00  0.00     0.193 C 
BRANCH  20  21
HETATM   21  O2  UNL     1      18.120  -0.545  51.686  1.00  0.00    -0.394 OA
HETATM   22  C10 UNL     1      17.262   0.522  51.490  1.00  0.00     0.201 C 
ENDBRANCH  20  21
ENDBRANCH  19  20
ENDBRANCH  18  19
ENDBRANCH   9  18
TORSDOF 4
ENDMDL
MODEL 7
REMARK VINA RESULT:      -6.2      3.159      4.589
REMARK  4 active torsions:
REMARK  status: ('A' for Active; 'I' for Inactive)
REMARK    1  A    between atoms: C7_9  and  O1_10 
REMARK    2  A    between atoms: O1_10  and  C8_11 
REMARK    3  A    between atoms: C8_11  and  C9_12 
REMARK    4  A    between atoms: C9_12  and  O2_13 
ROOT
HETATM    1  C1  UNL     1      24.776  -0.896  56.136  1.00  0.00     0.036 C 
HETATM    2  C2  UNL     1      23.422  -1.240  55.574  1.00  0.00    -0.025 C 
HETATM    3  C3  UNL     1      22.703  -1.108  54.488  1.00  0.00    -0.049 C 
HETATM    4  C4  UNL     1      21.301  -1.686  54.467  1.00  0.00     0.176 C 
HETATM    5  N1  UNL     1      20.542  -0.854  53.550  1.00  0.00    -0.310 N 
HETATM    6  N2  UNL     1      20.958   0.482  53.315  1.00  0.00    -0.183 NA
HETATM    7  C5  UNL     1      22.193   0.808  53.111  1.00  0.00     0.071 A 
HETATM    8  C6  UNL     1      22.669   2.155  52.869  1.00  0.00     0.069 A 
HETATM    9  C7  UNL     1      23.977   2.232  52.707  1.00  0.00     0.106 A 
HETATM   10  C11 UNL     1      24.889   1.105  52.757  1.00  0.00     0.132 A 
HETATM   11  C12 UNL     1      24.419  -0.121  52.979  1.00  0.00     0.096 A 
HETATM   12  O3  UNL     1      25.244  -1.235  53.036  1.00  0.00    -0.349 OA
HETATM   13  C13 UNL     1      26.640  -1.144  52.816  1.00  0.00     0.202 C 
HETATM   14  C14 UNL     1      26.974   0.144  52.067  1.00  0.00     0.202 C 
HETATM   15  O4  UNL     1      26.265   1.250  52.579  1.00  0.00    -0.344 OA
HETATM   16  C15 UNL     1      23.017  -0.455  53.187  1.00  0.00     0.129 A 
HETATM   17  H7  UNL     1      19.734  -1.368  53.143  1.00  0.00     0.182 HD
ENDROOT
BRANCH   9  18
HETATM   18  O1  UNL     1      24.431   3.538  52.474  1.00  0.00    -0.346 OA
BRANCH  18  19
HETATM   19  C8  UNL     1      23.925   4.135  51.272  1.00  0.00     0.201 C 
BRANCH  19  20
HETATM   20  C9  UNL     1      24.760   3.717  50.090  1.00  0.00     0.193 C 
BRANCH  20  21
HETATM   21  O2  UNL     1      24.031   2.987  49.187  1.00  0.00    -0.394 OA
HETATM   22  C10 UNL     1      22.702   3.359  49.091  1.00  0.00     0.201 C 
ENDBRANCH  20  21
ENDBRANCH  19  20
ENDBRANCH  18  19
ENDBRANCH   9  18
TORSDOF 4
ENDMDL
MODEL 8
REMARK VINA RESULT:      -6.0      4.664      6.741
REMARK  4 active torsions:
REMARK  status: ('A' for Active; 'I' for Inactive)
REMARK    1  A    between atoms: C7_9  and  O1_10 
REMARK    2  A    between atoms: O1_10  and  C8_11 
REMARK    3  A    between atoms: C8_11  and  C9_12 
REMARK    4  A    between atoms: C9_12  and  O2_13 
ROOT
HETATM    1  C1  UNL     1      24.632   2.990  53.011  1.00  0.00     0.036 C 
HETATM    2  C2  UNL     1      24.294   1.534  53.189  1.00  0.00    -0.025 C 
HETATM    3  C3  UNL     1      23.425   0.634  52.807  1.00  0.00    -0.049 C 
HETATM    4  C4  UNL     1      23.564  -0.783  53.332  1.00  0.00     0.176 C 
HETATM    5  N1  UNL     1      22.219  -1.330  53.360  1.00  0.00    -0.310 N 
HETATM    6  N2  UNL     1      21.110  -0.449  53.458  1.00  0.00    -0.183 NA
HETATM    7  C5  UNL     1      21.011   0.635  52.759  1.00  0.00     0.071 A 
HETATM    8  C6  UNL     1      19.903   1.567  52.823  1.00  0.00     0.069 A 
HETATM    9  C7  UNL     1      20.043   2.609  52.024  1.00  0.00     0.106 A 
HETATM   10  C11 UNL     1      21.176   2.839  51.148  1.00  0.00     0.132 A 
HETATM   11  C12 UNL     1      22.177   1.962  51.111  1.00  0.00     0.096 A 
HETATM   12  O3  UNL     1      23.285   2.131  50.293  1.00  0.00    -0.349 OA
HETATM   13  C13 UNL     1      23.400   3.229  49.408  1.00  0.00     0.202 C 
HETATM   14  C14 UNL     1      22.027   3.841  49.144  1.00  0.00     0.202 C 
HETATM   15  O4  UNL     1      21.268   3.962  50.326  1.00  0.00    -0.344 OA
HETATM   16  C15 UNL     1      22.248   0.740  51.899  1.00  0.00     0.129 A 
HETATM   17  H7  UNL     1      22.224  -2.369  53.297  1.00  0.00     0.182 HD
ENDROOT
BRANCH   9  18
HETATM   18  O1  UNL     1      18.969   3.507  52.091  1.00  0.00    -0.346 OA
BRANCH  18  19
HETATM   19  C8  UNL     1      17.892   3.211  51.190  1.00  0.00     0.201 C 
BRANCH  19  20
HETATM   20  C9  UNL     1      16.776   4.207  51.365  1.00  0.00     0.193 C 
BRANCH  20  21
HETATM   21  O2  UNL     1      16.463   4.391  52.686  1.00  0.00    -0.394 OA
HETATM   22  C10 UNL     1      15.186   3.985  53.033  1.00  0.00     0.201 C 
ENDBRANCH  20  21
ENDBRANCH  19  20
ENDBRANCH  18  19
ENDBRANCH   9  18
TORSDOF 4
ENDMDL
MODEL 9
REMARK VINA RESULT:      -5.9      3.994      6.150
REMARK  4 active torsions:
REMARK  status: ('A' for Active; 'I' for Inactive)
REMARK    1  A    between atoms: C7_9  and  O1_10 
REMARK    2  A    between atoms: O1_10  and  C8_11 
REMARK    3  A    between atoms: C8_11  and  C9_12 
REMARK    4  A    between atoms: C9_12  and  O2_13 
ROOT
HETATM    1  C1  UNL     1      18.428   0.536  50.278  1.00  0.00     0.036 C 
HETATM    2  C2  UNL     1      18.639  -0.163  51.595  1.00  0.00    -0.025 C 
HETATM    3  C3  UNL     1      19.374  -0.106  52.675  1.00  0.00    -0.049 C 
HETATM    4  C4  UNL     1      19.150  -1.136  53.766  1.00  0.00     0.176 C 
HETATM    5  N1  UNL     1      20.431  -1.298  54.430  1.00  0.00    -0.310 N 
HETATM    6  N2  UNL     1      21.624  -0.994  53.724  1.00  0.00    -0.183 NA
HETATM    7  C5  UNL     1      21.761   0.068  52.999  1.00  0.00     0.071 A 
HETATM    8  C6  UNL     1      22.954   0.424  52.259  1.00  0.00     0.069 A 
HETATM    9  C7  UNL     1      22.839   1.550  51.580  1.00  0.00     0.106 A 
HETATM   10  C11 UNL     1      21.654   2.384  51.548  1.00  0.00     0.132 A 
HETATM   11  C12 UNL     1      20.574   2.032  52.242  1.00  0.00     0.096 A 
HETATM   12  O3  UNL     1      19.413   2.792  52.249  1.00  0.00    -0.349 OA
HETATM   13  C13 UNL     1      19.319   4.021  51.552  1.00  0.00     0.202 C 
HETATM   14  C14 UNL     1      20.713   4.571  51.262  1.00  0.00     0.202 C 
HETATM   15  O4  UNL     1      21.593   3.566  50.809  1.00  0.00    -0.344 OA
HETATM   16  C15 UNL     1      20.461   0.836  53.064  1.00  0.00     0.129 A 
HETATM   17  H7  UNL     1      20.319  -1.635  55.408  1.00  0.00     0.182 HD
ENDROOT
BRANCH   9  18
HETATM   18  O1  UNL     1      23.997   1.887  50.865  1.00  0.00    -0.346 OA
BRANCH  18  19
HETATM   19  C8  UNL     1      24.794   2.911  51.478  1.00  0.00     0.201 C 
BRANCH  19  20
HETATM   20  C9  UNL     1      26.232   2.471  51.566  1.00  0.00     0.193 C 
BRANCH  20  21
HETATM   21  O2  UNL     1      26.984   2.985  50.542  1.00  0.00    -0.394 OA
HETATM   22  C10 UNL     1      26.369   4.004  49.837  1.00  0.00     0.201 C 
ENDBRANCH  20  21
ENDBRANCH  19  20
ENDBRANCH  18  19
ENDBRANCH   9  18
TORSDOF 4
ENDMDL
