MODEL 1
REMARK VINA RESULT:      -9.7      0.000      0.000
REMARK  1 active torsions:
REMARK  status: ('A' for Active; 'I' for Inactive)
REMARK    1  A    between atoms: O1_1  and  C1_2 
ROOT
HETATM    1  C1  UNL     1      24.215   6.472  51.141  1.00  0.00     0.159 C 
HETATM    2  C2  UNL     1      22.913   6.270  50.388  1.00  0.00     0.147 C 
HETATM    3  N1  UNL     1      22.470   7.393  49.643  1.00  0.00    -0.418 N 
HETATM    4  C3  UNL     1      21.394   7.096  48.762  1.00  0.00     0.117 C 
HETATM    5  C4  UNL     1      20.086   6.702  49.359  1.00  0.00     0.048 C 
HETATM    6  C5  UNL     1      20.056   5.404  50.051  1.00  0.00    -0.001 C 
HETATM    7  C6  UNL     1      19.976   4.339  50.820  1.00  0.00     0.137 C 
HETATM    8  O2  UNL     1      20.153   2.971  50.812  1.00  0.00    -0.334 OA
HETATM    9  C7  UNL     1      20.857   2.406  51.835  1.00  0.00     0.152 C 
HETATM   10  C8  UNL     1      22.098   2.053  52.241  1.00  0.00     0.013 C 
HETATM   11  C9  UNL     1      22.953   1.429  53.353  1.00  0.00     0.051 C 
HETATM   12  C10 UNL     1      23.553   0.193  52.880  1.00  0.00     0.019 C 
HETATM   13  C11 UNL     1      24.871   0.062  52.624  1.00  0.00     0.119 A 
HETATM   14  C12 UNL     1      26.272   0.463  52.515  1.00  0.00     0.015 A 
HETATM   15 CL1  UNL     1      25.744   1.316  54.014  1.00  0.00    -0.176 Cl
HETATM   16  C13 UNL     1      27.534   0.909  52.444  1.00  0.00     0.051 C 
HETATM   17  C14 UNL     1      27.812   2.344  52.826  1.00  0.00     0.295 C 
HETATM   18  F1  UNL     1      27.366   2.635  54.053  1.00  0.00    -0.222 F 
HETATM   19  N2  UNL     1      26.915   3.056  51.840  1.00  0.00    -0.341 N 
HETATM   20  C15 UNL     1      25.586   2.919  51.293  1.00  0.00     0.140 A 
HETATM   21  N3  UNL     1      24.390   2.628  51.592  1.00  0.00    -0.210 NA
HETATM   22  C16 UNL     1      23.181   2.434  51.259  1.00  0.00     0.159 A 
HETATM   23  N4  UNL     1      23.225   2.654  49.933  1.00  0.00    -0.240 NA
HETATM   24  C17 UNL     1      24.356   2.986  49.302  1.00  0.00     0.134 A 
HETATM   25  C18 UNL     1      25.610   3.148  49.909  1.00  0.00     0.029 A 
HETATM   26  C19 UNL     1      26.809   3.539  49.170  1.00  0.00     0.041 C 
HETATM   27  C20 UNL     1      26.593   4.838  48.884  1.00  0.00     0.135 C 
HETATM   28  O3  UNL     1      25.366   5.343  49.368  1.00  0.00    -0.360 OA
HETATM   29  C21 UNL     1      25.396   6.494  50.230  1.00  0.00     0.207 C 
HETATM   30  H5  UNL     1      22.379   8.282  50.146  1.00  0.00     0.153 HD
HETATM   31  H19 UNL     1      27.435   3.893  51.478  1.00  0.00     0.164 HD
ENDROOT
BRANCH   1  32
HETATM   32  O1  UNL     1      24.159   7.520  52.019  1.00  0.00    -0.392 OA
HETATM   33  H1  UNL     1      23.305   8.025  51.892  1.00  0.00     0.210 HD
ENDBRANCH   1  32
TORSDOF 1
ENDMDL
MODEL 2
REMARK VINA RESULT:      -8.8      3.129      5.594
REMARK  1 active torsions:
REMARK  status: ('A' for Active; 'I' for Inactive)
REMARK    1  A    between atoms: O1_1  and  C1_2 
ROOT
HETATM    1  C1  UNL     1      18.683   3.074  51.158  1.00  0.00     0.159 C 
HETATM    2  C2  UNL     1      18.557   1.605  51.515  1.00  0.00     0.147 C 
HETATM    3  N1  UNL     1      17.238   1.085  51.462  1.00  0.00    -0.418 N 
HETATM    4  C3  UNL     1      17.187  -0.333  51.559  1.00  0.00     0.117 C 
HETATM    5  C4  UNL     1      17.620  -0.966  52.837  1.00  0.00     0.048 C 
HETATM    6  C5  UNL     1      19.051  -0.860  53.160  1.00  0.00    -0.001 C 
HETATM    7  C6  UNL     1      20.277  -0.680  53.604  1.00  0.00     0.137 C 
HETATM    8  O2  UNL     1      21.598  -0.907  53.280  1.00  0.00    -0.334 OA
HETATM    9  C7  UNL     1      22.483   0.123  53.423  1.00  0.00     0.152 C 
HETATM   10  C8  UNL     1      23.038   1.180  52.788  1.00  0.00     0.013 C 
HETATM   11  C9  UNL     1      24.016   2.360  52.877  1.00  0.00     0.051 C 
HETATM   12  C10 UNL     1      25.118   2.160  51.952  1.00  0.00     0.019 C 
HETATM   13  C11 UNL     1      25.283   2.892  50.830  1.00  0.00     0.119 A 
HETATM   14  C12 UNL     1      24.988   3.914  49.829  1.00  0.00     0.015 A 
HETATM   15 CL1  UNL     1      24.542   4.744  51.368  1.00  0.00    -0.176 Cl
HETATM   16  C13 UNL     1      24.648   4.874  48.958  1.00  0.00     0.051 C 
HETATM   17  C14 UNL     1      23.404   5.686  49.232  1.00  0.00     0.295 C 
HETATM   18  F1  UNL     1      23.428   6.252  50.444  1.00  0.00    -0.222 F 
HETATM   19  N2  UNL     1      22.373   4.581  49.272  1.00  0.00    -0.341 N 
HETATM   20  C15 UNL     1      22.240   3.245  49.802  1.00  0.00     0.140 A 
HETATM   21  N3  UNL     1      22.501   2.521  50.808  1.00  0.00    -0.210 NA
HETATM   22  C16 UNL     1      22.492   1.396  51.396  1.00  0.00     0.159 A 
HETATM   23  N4  UNL     1      21.917   0.610  50.468  1.00  0.00    -0.240 NA
HETATM   24  C17 UNL     1      21.520   1.079  49.281  1.00  0.00     0.134 A 
HETATM   25  C18 UNL     1      21.639   2.408  48.849  1.00  0.00     0.029 A 
HETATM   26  C19 UNL     1      21.161   2.870  47.548  1.00  0.00     0.041 C 
HETATM   27  C20 UNL     1      19.821   2.857  47.682  1.00  0.00     0.135 C 
HETATM   28  O3  UNL     1      19.368   2.436  48.951  1.00  0.00    -0.360 OA
HETATM   29  C21 UNL     1      18.508   3.316  49.695  1.00  0.00     0.207 C 
HETATM   30  H5  UNL     1      16.519   1.577  52.003  1.00  0.00     0.153 HD
HETATM   31  H19 UNL     1      21.515   4.923  48.773  1.00  0.00     0.164 HD
ENDROOT
BRANCH   1  32
HETATM   32  O1  UNL     1      17.918   3.879  51.957  1.00  0.00    -0.392 OA
HETATM   33  H1  UNL     1      17.012   4.000  51.551  1.00  0.00     0.210 HD
ENDBRANCH   1  32
TORSDOF 1
ENDMDL
MODEL 3
REMARK VINA RESULT:      -8.3      3.105      6.128
REMARK  1 active torsions:
REMARK  status: ('A' for Active; 'I' for Inactive)
REMARK    1  A    between atoms: O1_1  and  C1_2 
ROOT
HETATM    1  C1  UNL     1      25.377   3.395  50.238  1.00  0.00     0.159 C 
HETATM    2  C2  UNL     1      25.314   2.690  51.580  1.00  0.00     0.147 C 
HETATM    3  N1  UNL     1      26.513   2.733  52.338  1.00  0.00    -0.418 N 
HETATM    4  C3  UNL     1      26.349   2.285  53.677  1.00  0.00     0.117 C 
HETATM    5  C4  UNL     1      26.002   0.853  53.902  1.00  0.00     0.048 C 
HETATM    6  C5  UNL     1      24.664   0.435  53.455  1.00  0.00    -0.001 C 
HETATM    7  C6  UNL     1      23.555  -0.063  52.949  1.00  0.00     0.137 C 
HETATM    8  O2  UNL     1      22.183   0.066  52.991  1.00  0.00    -0.334 OA
HETATM    9  C7  UNL     1      21.503   0.107  51.808  1.00  0.00     0.152 C 
HETATM   10  C8  UNL     1      21.042   0.934  50.843  1.00  0.00     0.013 C 
HETATM   11  C9  UNL     1      20.286   1.055  49.512  1.00  0.00     0.051 C 
HETATM   12  C10 UNL     1      19.049   1.792  49.710  1.00  0.00     0.019 C 
HETATM   13  C11 UNL     1      18.850   3.041  49.242  1.00  0.00     0.119 A 
HETATM   14  C12 UNL     1      19.164   4.292  48.556  1.00  0.00     0.015 A 
HETATM   15 CL1  UNL     1      19.944   3.064  47.490  1.00  0.00    -0.176 Cl
HETATM   16  C13 UNL     1      19.530   5.407  47.908  1.00  0.00     0.051 C 
HETATM   17  C14 UNL     1      20.913   5.466  47.304  1.00  0.00     0.295 C 
HETATM   18  F1  UNL     1      21.147   4.440  46.477  1.00  0.00    -0.222 F 
HETATM   19  N2  UNL     1      21.750   5.244  48.543  1.00  0.00    -0.341 N 
HETATM   20  C15 UNL     1      21.740   4.408  49.719  1.00  0.00     0.140 A 
HETATM   21  N3  UNL     1      21.507   3.231  50.126  1.00  0.00    -0.210 NA
HETATM   22  C16 UNL     1      21.418   2.381  51.064  1.00  0.00     0.159 A 
HETATM   23  N4  UNL     1      21.726   3.129  52.139  1.00  0.00    -0.240 NA
HETATM   24  C17 UNL     1      22.026   4.428  52.043  1.00  0.00     0.134 A 
HETATM   25  C18 UNL     1      22.062   5.169  50.853  1.00  0.00     0.029 A 
HETATM   26  C19 UNL     1      22.424   6.584  50.806  1.00  0.00     0.041 C 
HETATM   27  C20 UNL     1      23.750   6.578  51.039  1.00  0.00     0.135 C 
HETATM   28  O3  UNL     1      24.300   5.292  51.232  1.00  0.00    -0.360 OA
HETATM   29  C21 UNL     1      25.384   4.881  50.381  1.00  0.00     0.207 C 
HETATM   30  H5  UNL     1      27.369   2.405  51.877  1.00  0.00     0.153 HD
HETATM   31  H19 UNL     1      22.574   5.893  48.495  1.00  0.00     0.164 HD
ENDROOT
BRANCH   1  32
HETATM   32  O1  UNL     1      26.363   2.901  49.428  1.00  0.00    -0.392 OA
HETATM   33  H1  UNL     1      26.890   2.207  49.919  1.00  0.00     0.210 HD
ENDBRANCH   1  32
TORSDOF 1
ENDMDL
MODEL 4
REMARK VINA RESULT:      -8.2      3.129      4.624
REMARK  1 active torsions:
REMARK  status: ('A' for Active; 'I' for Inactive)
REMARK    1  A    between atoms: O1_1  and  C1_2 
ROOT
HETATM    1  C1  UNL     1      18.934   4.087  49.648  1.00  0.00     0.159 C 
HETATM    2  C2  UNL     1      18.058   2.851  49.572  1.00  0.00     0.147 C 
HETATM    3  N1  UNL     1      16.881   2.996  48.792  1.00  0.00    -0.418 N 
HETATM    4  C3  UNL     1      16.216   1.765  48.540  1.00  0.00     0.117 C 
HETATM    5  C4  UNL     1      15.622   1.038  49.696  1.00  0.00     0.048 C 
HETATM    6  C5  UNL     1      16.575   0.480  50.669  1.00  0.00    -0.001 C 
HETATM    7  C6  UNL     1      17.340   0.085  51.664  1.00  0.00     0.137 C 
HETATM    8  O2  UNL     1      18.409  -0.734  51.960  1.00  0.00    -0.334 OA
HETATM    9  C7  UNL     1      19.419  -0.225  52.724  1.00  0.00     0.152 C 
HETATM   10  C8  UNL     1      20.595   0.440  52.674  1.00  0.00     0.013 C 
HETATM   11  C9  UNL     1      21.765   1.038  53.470  1.00  0.00     0.051 C 
HETATM   12  C10 UNL     1      22.993   0.328  53.153  1.00  0.00     0.019 C 
HETATM   13  C11 UNL     1      23.996   0.872  52.433  1.00  0.00     0.119 A 
HETATM   14  C12 UNL     1      24.708   1.888  51.663  1.00  0.00     0.015 A 
HETATM   15 CL1  UNL     1      23.912   2.870  52.951  1.00  0.00    -0.176 Cl
HETATM   16  C13 UNL     1      25.294   2.874  50.969  1.00  0.00     0.051 C 
HETATM   17  C14 UNL     1      24.546   4.175  50.797  1.00  0.00     0.295 C 
HETATM   18  F1  UNL     1      24.166   4.697  51.968  1.00  0.00    -0.222 F 
HETATM   19  N2  UNL     1      23.301   3.672  50.104  1.00  0.00    -0.341 N 
HETATM   20  C15 UNL     1      22.383   2.562  50.200  1.00  0.00     0.140 A 
HETATM   21  N3  UNL     1      21.763   1.826  51.024  1.00  0.00    -0.210 NA
HETATM   22  C16 UNL     1      20.995   0.848  51.275  1.00  0.00     0.159 A 
HETATM   23  N4  UNL     1      20.724   0.391  50.039  1.00  0.00    -0.240 NA
HETATM   24  C17 UNL     1      21.231   0.960  48.941  1.00  0.00     0.134 A 
HETATM   25  C18 UNL     1      22.085   2.072  48.920  1.00  0.00     0.029 A 
HETATM   26  C19 UNL     1      22.588   2.669  47.684  1.00  0.00     0.041 C 
HETATM   27  C20 UNL     1      21.505   3.279  47.165  1.00  0.00     0.135 C 
HETATM   28  O3  UNL     1      20.335   3.147  47.945  1.00  0.00    -0.360 OA
HETATM   29  C21 UNL     1      19.660   4.344  48.369  1.00  0.00     0.207 C 
HETATM   30  H5  UNL     1      16.260   3.779  49.025  1.00  0.00     0.153 HD
HETATM   31  H19 UNL     1      23.054   4.358  49.348  1.00  0.00     0.164 HD
ENDROOT
BRANCH   1  32
HETATM   32  O1  UNL     1      18.272   5.174  50.149  1.00  0.00    -0.392 OA
HETATM   33  H1  UNL     1      17.631   4.884  50.861  1.00  0.00     0.210 HD
ENDBRANCH   1  32
TORSDOF 1
ENDMDL
MODEL 5
REMARK VINA RESULT:      -8.0      3.198      5.947
REMARK  1 active torsions:
REMARK  status: ('A' for Active; 'I' for Inactive)
REMARK    1  A    between atoms: O1_1  and  C1_2 
ROOT
HETATM    1  C1  UNL     1      23.465   7.356  46.659  1.00  0.00     0.159 C 
HETATM    2  C2  UNL     1      24.781   8.105  46.760  1.00  0.00     0.147 C 
HETATM    3  N1  UNL     1      24.829   9.331  46.047  1.00  0.00    -0.418 N 
HETATM    4  C3  UNL     1      25.972  10.118  46.358  1.00  0.00     0.117 C 
HETATM    5  C4  UNL     1      27.313   9.592  45.977  1.00  0.00     0.048 C 
HETATM    6  C5  UNL     1      27.770   8.398  46.706  1.00  0.00    -0.001 C 
HETATM    7  C6  UNL     1      28.190   7.249  47.191  1.00  0.00     0.137 C 
HETATM    8  O2  UNL     1      28.501   6.613  48.374  1.00  0.00    -0.334 OA
HETATM    9  C7  UNL     1      28.003   5.360  48.583  1.00  0.00     0.152 C 
HETATM   10  C8  UNL     1      26.950   4.673  49.082  1.00  0.00     0.013 C 
HETATM   11  C9  UNL     1      26.328   3.294  49.346  1.00  0.00     0.051 C 
HETATM   12  C10 UNL     1      26.214   3.070  50.778  1.00  0.00     0.019 C 
HETATM   13  C11 UNL     1      25.034   3.057  51.431  1.00  0.00     0.119 A 
HETATM   14  C12 UNL     1      23.586   3.144  51.607  1.00  0.00     0.015 A 
HETATM   15 CL1  UNL     1      23.731   2.281  50.028  1.00  0.00    -0.176 Cl
HETATM   16  C13 UNL     1      22.251   3.237  51.682  1.00  0.00     0.051 C 
HETATM   17  C14 UNL     1      21.477   3.512  50.414  1.00  0.00     0.295 C 
HETATM   18  F1  UNL     1      21.751   2.624  49.452  1.00  0.00    -0.222 F 
HETATM   19  N2  UNL     1      22.103   4.826  50.005  1.00  0.00    -0.341 N 
HETATM   20  C15 UNL     1      23.415   5.427  49.945  1.00  0.00     0.140 A 
HETATM   21  N3  UNL     1      24.626   5.194  49.657  1.00  0.00    -0.210 NA
HETATM   22  C16 UNL     1      25.837   5.564  49.582  1.00  0.00     0.159 A 
HETATM   23  N4  UNL     1      25.765   6.826  50.042  1.00  0.00    -0.240 NA
HETATM   24  C17 UNL     1      24.612   7.379  50.432  1.00  0.00     0.134 A 
HETATM   25  C18 UNL     1      23.360   6.746  50.418  1.00  0.00     0.029 A 
HETATM   26  C19 UNL     1      22.126   7.411  50.833  1.00  0.00     0.041 C 
HETATM   27  C20 UNL     1      21.885   8.281  49.833  1.00  0.00     0.135 C 
HETATM   28  O3  UNL     1      22.841   8.250  48.794  1.00  0.00    -0.360 OA
HETATM   29  C21 UNL     1      22.382   8.008  47.453  1.00  0.00     0.207 C 
HETATM   30  H5  UNL     1      24.587   9.302  45.050  1.00  0.00     0.153 HD
HETATM   31  H19 UNL     1      21.337   5.453  49.656  1.00  0.00     0.164 HD
ENDROOT
BRANCH   1  32
HETATM   32  O1  UNL     1      23.120   7.065  45.367  1.00  0.00    -0.392 OA
HETATM   33  H1  UNL     1      22.134   7.183  45.244  1.00  0.00     0.210 HD
ENDBRANCH   1  32
TORSDOF 1
ENDMDL
MODEL 6
REMARK VINA RESULT:      -8.0      2.179      4.792
REMARK  1 active torsions:
REMARK  status: ('A' for Active; 'I' for Inactive)
REMARK    1  A    between atoms: O1_1  and  C1_2 
ROOT
HETATM    1  C1  UNL     1      21.602   0.999  49.412  1.00  0.00     0.159 C 
HETATM    2  C2  UNL     1      21.473   2.483  49.123  1.00  0.00     0.147 C 
HETATM    3  N1  UNL     1      20.279   2.863  48.457  1.00  0.00    -0.418 N 
HETATM    4  C3  UNL     1      20.077   4.270  48.422  1.00  0.00     0.117 C 
HETATM    5  C4  UNL     1      21.036   5.098  47.638  1.00  0.00     0.048 C 
HETATM    6  C5  UNL     1      22.408   5.172  48.164  1.00  0.00    -0.001 C 
HETATM    7  C6  UNL     1      23.688   5.168  48.471  1.00  0.00     0.137 C 
HETATM    8  O2  UNL     1      24.567   5.478  49.487  1.00  0.00    -0.334 OA
HETATM    9  C7  UNL     1      25.528   4.565  49.809  1.00  0.00     0.152 C 
HETATM   10  C8  UNL     1      25.797   3.494  50.590  1.00  0.00     0.013 C 
HETATM   11  C9  UNL     1      26.830   2.434  51.001  1.00  0.00     0.051 C 
HETATM   12  C10 UNL     1      27.203   2.620  52.393  1.00  0.00     0.019 C 
HETATM   13  C11 UNL     1      26.837   1.772  53.376  1.00  0.00     0.119 A 
HETATM   14  C12 UNL     1      26.200   0.608  53.988  1.00  0.00     0.015 A 
HETATM   15 CL1  UNL     1      26.798  -0.060  52.421  1.00  0.00    -0.176 Cl
HETATM   16  C13 UNL     1      25.588  -0.483  54.470  1.00  0.00     0.051 C 
HETATM   17  C14 UNL     1      24.835  -1.369  53.506  1.00  0.00     0.295 C 
HETATM   18  F1  UNL     1      25.601  -1.773  52.487  1.00  0.00    -0.222 F 
HETATM   19  N2  UNL     1      23.841  -0.373  52.955  1.00  0.00    -0.341 N 
HETATM   20  C15 UNL     1      23.820   1.001  52.511  1.00  0.00     0.140 A 
HETATM   21  N3  UNL     1      24.476   1.868  51.861  1.00  0.00    -0.210 NA
HETATM   22  C16 UNL     1      24.620   3.052  51.428  1.00  0.00     0.159 A 
HETATM   23  N4  UNL     1      23.522   3.656  51.917  1.00  0.00    -0.240 NA
HETATM   24  C17 UNL     1      22.617   3.004  52.653  1.00  0.00     0.134 A 
HETATM   25  C18 UNL     1      22.679   1.649  53.008  1.00  0.00     0.029 A 
HETATM   26  C19 UNL     1      21.643   0.982  53.796  1.00  0.00     0.041 C 
HETATM   27  C20 UNL     1      20.610   0.883  52.937  1.00  0.00     0.135 C 
HETATM   28  O3  UNL     1      20.867   1.416  51.655  1.00  0.00    -0.360 OA
HETATM   29  C21 UNL     1      20.696   0.558  50.514  1.00  0.00     0.207 C 
HETATM   30  H5  UNL     1      20.056   2.376  47.582  1.00  0.00     0.153 HD
HETATM   31  H19 UNL     1      22.913  -0.856  52.872  1.00  0.00     0.164 HD
ENDROOT
BRANCH   1  32
HETATM   32  O1  UNL     1      21.529   0.232  48.281  1.00  0.00    -0.392 OA
HETATM   33  H1  UNL     1      21.654  -0.732  48.516  1.00  0.00     0.210 HD
ENDBRANCH   1  32
TORSDOF 1
ENDMDL
MODEL 7
REMARK VINA RESULT:      -7.8      7.067     10.324
REMARK  1 active torsions:
REMARK  status: ('A' for Active; 'I' for Inactive)
REMARK    1  A    between atoms: O1_1  and  C1_2 
ROOT
HETATM    1  C1  UNL     1      31.700   9.392  45.694  1.00  0.00     0.159 C 
HETATM    2  C2  UNL     1      32.265   8.238  46.502  1.00  0.00     0.147 C 
HETATM    3  N1  UNL     1      33.657   8.016  46.340  1.00  0.00    -0.418 N 
HETATM    4  C3  UNL     1      34.196   7.101  47.285  1.00  0.00     0.117 C 
HETATM    5  C4  UNL     1      33.741   5.683  47.228  1.00  0.00     0.048 C 
HETATM    6  C5  UNL     1      32.336   5.439  47.589  1.00  0.00    -0.001 C 
HETATM    7  C6  UNL     1      31.062   5.148  47.744  1.00  0.00     0.137 C 
HETATM    8  O2  UNL     1      30.026   5.231  48.650  1.00  0.00    -0.334 OA
HETATM    9  C7  UNL     1      28.820   5.696  48.211  1.00  0.00     0.152 C 
HETATM   10  C8  UNL     1      28.082   6.815  48.035  1.00  0.00     0.013 C 
HETATM   11  C9  UNL     1      26.749   7.410  47.557  1.00  0.00     0.051 C 
HETATM   12  C10 UNL     1      26.040   8.001  48.679  1.00  0.00     0.019 C 
HETATM   13  C11 UNL     1      25.883   9.332  48.835  1.00  0.00     0.119 A 
HETATM   14  C12 UNL     1      26.009  10.753  48.520  1.00  0.00     0.015 A 
HETATM   15 CL1  UNL     1      25.756  10.019  46.892  1.00  0.00    -0.176 Cl
HETATM   16  C13 UNL     1      26.169  12.034  48.159  1.00  0.00     0.051 C 
HETATM   17  C14 UNL     1      26.933  12.334  46.892  1.00  0.00     0.295 C 
HETATM   18  F1  UNL     1      26.426  11.692  45.833  1.00  0.00    -0.222 F 
HETATM   19  N2  UNL     1      28.256  11.681  47.222  1.00  0.00    -0.341 N 
HETATM   20  C15 UNL     1      28.739  10.468  47.838  1.00  0.00     0.140 A 
HETATM   21  N3  UNL     1      28.535   9.221  47.921  1.00  0.00    -0.210 NA
HETATM   22  C16 UNL     1      28.817   8.082  48.406  1.00  0.00     0.159 A 
HETATM   23  N4  UNL     1      29.835   8.383  49.232  1.00  0.00    -0.240 NA
HETATM   24  C17 UNL     1      30.296   9.630  49.372  1.00  0.00     0.134 A 
HETATM   25  C18 UNL     1      29.805  10.760  48.702  1.00  0.00     0.029 A 
HETATM   26  C19 UNL     1      30.369  12.097  48.876  1.00  0.00     0.041 C 
HETATM   27  C20 UNL     1      31.552  12.026  48.236  1.00  0.00     0.135 C 
HETATM   28  O3  UNL     1      31.822  10.768  47.653  1.00  0.00    -0.360 OA
HETATM   29  C21 UNL     1      32.107  10.719  46.244  1.00  0.00     0.207 C 
HETATM   30  H5  UNL     1      34.002   7.895  45.381  1.00  0.00     0.153 HD
HETATM   31  H19 UNL     1      29.021  12.314  46.881  1.00  0.00     0.164 HD
ENDROOT
BRANCH   1  32
HETATM   32  O1  UNL     1      31.914   9.249  44.350  1.00  0.00    -0.392 OA
HETATM   33  H1  UNL     1      32.877   9.036  44.180  1.00  0.00     0.210 HD
ENDBRANCH   1  32
TORSDOF 1
ENDMDL
MODEL 8
REMARK VINA RESULT:      -7.8      9.353     11.803
REMARK  1 active torsions:
REMARK  status: ('A' for Active; 'I' for Inactive)
REMARK    1  A    between atoms: O1_1  and  C1_2 
ROOT
HETATM    1  C1  UNL     1      35.396   9.009  44.386  1.00  0.00     0.159 C 
HETATM    2  C2  UNL     1      34.262   9.996  44.182  1.00  0.00     0.147 C 
HETATM    3  N1  UNL     1      34.541  11.052  43.276  1.00  0.00    -0.418 N 
HETATM    4  C3  UNL     1      33.391  11.809  42.922  1.00  0.00     0.117 C 
HETATM    5  C4  UNL     1      32.719  12.608  43.985  1.00  0.00     0.048 C 
HETATM    6  C5  UNL     1      32.052  11.838  45.047  1.00  0.00    -0.001 C 
HETATM    7  C6  UNL     1      31.567  11.240  46.115  1.00  0.00     0.137 C 
HETATM    8  O2  UNL     1      30.635  10.304  46.512  1.00  0.00    -0.334 OA
HETATM    9  C7  UNL     1      31.025   9.341  47.398  1.00  0.00     0.152 C 
HETATM   10  C8  UNL     1      31.560   8.104  47.498  1.00  0.00     0.013 C 
HETATM   11  C9  UNL     1      32.021   6.978  48.436  1.00  0.00     0.051 C 
HETATM   12  C10 UNL     1      31.187   5.804  48.245  1.00  0.00     0.019 C 
HETATM   13  C11 UNL     1      31.628   4.672  47.657  1.00  0.00     0.119 A 
HETATM   14  C12 UNL     1      32.570   3.772  46.997  1.00  0.00     0.015 A 
HETATM   15 CL1  UNL     1      33.617   4.604  48.208  1.00  0.00    -0.176 Cl
HETATM   16  C13 UNL     1      33.494   3.009  46.397  1.00  0.00     0.051 C 
HETATM   17  C14 UNL     1      34.870   3.591  46.171  1.00  0.00     0.295 C 
HETATM   18  F1  UNL     1      35.417   4.047  47.303  1.00  0.00    -0.222 F 
HETATM   19  N2  UNL     1      34.511   4.793  45.328  1.00  0.00    -0.341 N 
HETATM   20  C15 UNL     1      33.504   5.828  45.294  1.00  0.00     0.140 A 
HETATM   21  N3  UNL     1      32.830   6.613  46.024  1.00  0.00    -0.210 NA
HETATM   22  C16 UNL     1      31.937   7.504  46.163  1.00  0.00     0.159 A 
HETATM   23  N4  UNL     1      31.525   7.676  44.894  1.00  0.00    -0.240 NA
HETATM   24  C17 UNL     1      32.048   6.988  43.874  1.00  0.00     0.134 A 
HETATM   25  C18 UNL     1      33.063   6.025  43.977  1.00  0.00     0.029 A 
HETATM   26  C19 UNL     1      33.615   5.322  42.820  1.00  0.00     0.041 C 
HETATM   27  C20 UNL     1      34.344   6.267  42.196  1.00  0.00     0.135 C 
HETATM   28  O3  UNL     1      34.329   7.527  42.833  1.00  0.00    -0.360 OA
HETATM   29  C21 UNL     1      35.587   8.117  43.205  1.00  0.00     0.207 C 
HETATM   30  H5  UNL     1      35.383  11.611  43.454  1.00  0.00     0.153 HD
HETATM   31  H19 UNL     1      35.227   4.878  44.565  1.00  0.00     0.164 HD
ENDROOT
BRANCH   1  32
HETATM   32  O1  UNL     1      36.543   9.608  44.833  1.00  0.00    -0.392 OA
HETATM   33  H1  UNL     1      37.330   9.253  44.327  1.00  0.00     0.210 HD
ENDBRANCH   1  32
TORSDOF 1
ENDMDL
MODEL 9
REMARK VINA RESULT:      -7.7      4.193      8.308
REMARK  1 active torsions:
REMARK  status: ('A' for Active; 'I' for Inactive)
REMARK    1  A    between atoms: O1_1  and  C1_2 
ROOT
HETATM    1  C1  UNL     1      23.965   6.338  51.065  1.00  0.00     0.159 C 
HETATM    2  C2  UNL     1      25.020   5.924  50.056  1.00  0.00     0.147 C 
HETATM    3  N1  UNL     1      25.805   4.804  50.434  1.00  0.00    -0.418 N 
HETATM    4  C3  UNL     1      26.605   4.294  49.375  1.00  0.00     0.117 C 
HETATM    5  C4  UNL     1      27.698   5.155  48.842  1.00  0.00     0.048 C 
HETATM    6  C5  UNL     1      27.274   6.365  48.120  1.00  0.00    -0.001 C 
HETATM    7  C6  UNL     1      26.993   7.541  47.600  1.00  0.00     0.137 C 
HETATM    8  O2  UNL     1      26.295   8.141  46.573  1.00  0.00    -0.334 OA
HETATM    9  C7  UNL     1      25.511   9.218  46.870  1.00  0.00     0.152 C 
HETATM   10  C8  UNL     1      24.268   9.590  47.251  1.00  0.00     0.013 C 
HETATM   11  C9  UNL     1      23.328  10.754  47.599  1.00  0.00     0.051 C 
HETATM   12  C10 UNL     1      22.257  10.834  46.621  1.00  0.00     0.019 C 
HETATM   13  C11 UNL     1      20.977  10.512  46.899  1.00  0.00     0.119 A 
HETATM   14  C12 UNL     1      19.840  10.065  47.700  1.00  0.00     0.015 A 
HETATM   15 CL1  UNL     1      20.778  11.055  48.882  1.00  0.00    -0.176 Cl
HETATM   16  C13 UNL     1      18.852   9.647  48.504  1.00  0.00     0.051 C 
HETATM   17  C14 UNL     1      19.188   9.291  49.932  1.00  0.00     0.295 C 
HETATM   18  F1  UNL     1      19.810  10.290  50.569  1.00  0.00    -0.222 F 
HETATM   19  N2  UNL     1      20.211   8.202  49.697  1.00  0.00    -0.341 N 
HETATM   20  C15 UNL     1      21.332   7.942  48.826  1.00  0.00     0.140 A 
HETATM   21  N3  UNL     1      22.339   8.482  48.278  1.00  0.00    -0.210 NA
HETATM   22  C16 UNL     1      23.345   8.421  47.507  1.00  0.00     0.159 A 
HETATM   23  N4  UNL     1      23.283   7.148  47.078  1.00  0.00    -0.240 NA
HETATM   24  C17 UNL     1      22.326   6.306  47.479  1.00  0.00     0.134 A 
HETATM   25  C18 UNL     1      21.288   6.616  48.369  1.00  0.00     0.029 A 
HETATM   26  C19 UNL     1      20.282   5.643  48.792  1.00  0.00     0.041 C 
HETATM   27  C20 UNL     1      20.965   4.820  49.611  1.00  0.00     0.135 C 
HETATM   28  O3  UNL     1      22.326   5.160  49.773  1.00  0.00    -0.360 OA
HETATM   29  C21 UNL     1      22.817   5.385  51.106  1.00  0.00     0.207 C 
HETATM   30  H5  UNL     1      26.276   4.849  51.344  1.00  0.00     0.153 HD
HETATM   31  H19 UNL     1      20.032   7.437  50.393  1.00  0.00     0.164 HD
ENDROOT
BRANCH   1  32
HETATM   32  O1  UNL     1      24.496   6.635  52.291  1.00  0.00    -0.392 OA
HETATM   33  H1  UNL     1      24.252   5.921  52.949  1.00  0.00     0.210 HD
ENDBRANCH   1  32
TORSDOF 1
ENDMDL
