MODEL 1
REMARK VINA RESULT:      -8.7      0.000      0.000
REMARK  3 active torsions:
REMARK  status: ('A' for Active; 'I' for Inactive)
REMARK    1  A    between atoms: N2_5  and  C4_6 
REMARK    2  A    between atoms: C7_9  and  N3_10 
REMARK       I    between atoms: N3_10  and  C8_11 
REMARK    3  A    between atoms: C8_11  and  C9_13 
ROOT
HETATM    1  C9  UNL     1      22.027   3.925  50.272  1.00  0.00     0.056 C 
HETATM    2  C10 UNL     1      21.072   4.671  50.875  1.00  0.00     0.098 C 
HETATM    3  N4  UNL     1      20.228   3.573  51.099  1.00  0.00    -0.395 N 
HETATM    4  C11 UNL     1      20.039   2.771  52.308  1.00  0.00     0.147 C 
HETATM    5  C12 UNL     1      21.347   2.148  52.686  1.00  0.00    -0.000 C 
HETATM    6  C13 UNL     1      21.524   0.822  52.497  1.00  0.00    -0.054 C 
HETATM    7  C14 UNL     1      20.277   0.363  51.918  1.00  0.00     0.024 C 
HETATM    8  C15 UNL     1      20.486   0.629  50.568  1.00  0.00     0.085 C 
HETATM    9  N5  UNL     1      21.189   1.663  49.770  1.00  0.00    -0.382 N 
HETATM   10  C16 UNL     1      22.363   2.552  49.848  1.00  0.00     0.079 C 
HETATM   11  C17 UNL     1      22.965   2.552  48.453  1.00  0.00     0.048 C 
HETATM   12  C18 UNL     1      23.393   2.022  50.813  1.00  0.00     0.028 C 
HETATM   13  C19 UNL     1      23.812   1.237  51.831  1.00  0.00     0.015 C 
HETATM   14 CL1  UNL     1      25.526   0.918  51.881  1.00  0.00    -0.089 Cl
HETATM   15  C20 UNL     1      22.943   0.598  52.936  1.00  0.00     0.089 C 
HETATM   16  H12 UNL     1      19.618   3.336  50.251  1.00  0.00     0.159 HD
HETATM   17  H18 UNL     1      20.675   1.768  48.870  1.00  0.00     0.160 HD
ENDROOT
BRANCH   1  18
HETATM   18  C8  UNL     1      23.135   4.802  49.883  1.00  0.00     0.256 C 
HETATM   19  N3  UNL     1      24.368   4.937  50.588  1.00  0.00    -0.323 N 
HETATM   20  H10 UNL     1      24.530   4.370  51.472  1.00  0.00     0.169 HD
HETATM   21  O1  UNL     1      23.288   5.612  48.899  1.00  0.00    -0.267 OA
BRANCH  19  22
HETATM   22  C7  UNL     1      25.351   5.849  50.063  1.00  0.00     0.035 A 
HETATM   23  C6  UNL     1      25.482   7.165  50.401  1.00  0.00     0.032 A 
HETATM   24  C5  UNL     1      26.435   7.990  49.873  1.00  0.00     0.031 A 
HETATM   25  C4  UNL     1      27.342   7.496  48.936  1.00  0.00     0.030 A 
HETATM   26  C22 UNL     1      27.199   6.168  48.604  1.00  0.00     0.031 A 
HETATM   27  C21 UNL     1      26.232   5.315  49.135  1.00  0.00     0.032 A 
BRANCH  25  28
HETATM   28  N2  UNL     1      28.359   8.288  48.342  1.00  0.00    -0.378 N 
HETATM   29  C3  UNL     1      28.652   9.674  48.566  1.00  0.00     0.153 C 
HETATM   30  C2  UNL     1      29.984   9.735  49.280  1.00  0.00     0.291 C 
HETATM   31  N1  UNL     1      31.030   9.077  48.527  1.00  0.00     0.087 N 
HETATM   32  C1  UNL     1      31.658   8.073  49.356  1.00  0.00     0.310 C 
HETATM   33  C24 UNL     1      30.553   8.560  47.264  1.00  0.00     0.291 C 
HETATM   34  C23 UNL     1      29.277   7.757  47.381  1.00  0.00     0.153 C 
ENDBRANCH  25  28
ENDBRANCH  19  22
ENDBRANCH   1  18
TORSDOF 3
ENDMDL
MODEL 2
REMARK VINA RESULT:      -8.4      1.827      2.617
REMARK  3 active torsions:
REMARK  status: ('A' for Active; 'I' for Inactive)
REMARK    1  A    between atoms: N2_5  and  C4_6 
REMARK    2  A    between atoms: C7_9  and  N3_10 
REMARK       I    between atoms: N3_10  and  C8_11 
REMARK    3  A    between atoms: C8_11  and  C9_13 
ROOT
HETATM    1  C9  UNL     1      23.376   3.272  51.697  1.00  0.00     0.056 C 
HETATM    2  C10 UNL     1      24.087   2.358  52.397  1.00  0.00     0.098 C 
HETATM    3  N4  UNL     1      22.944   1.731  52.915  1.00  0.00    -0.395 N 
HETATM    4  C11 UNL     1      22.260   0.518  52.468  1.00  0.00     0.147 C 
HETATM    5  C12 UNL     1      21.807   0.709  51.054  1.00  0.00    -0.000 C 
HETATM    6  C13 UNL     1      20.491   0.883  50.802  1.00  0.00    -0.054 C 
HETATM    7  C14 UNL     1      19.858   0.840  52.105  1.00  0.00     0.024 C 
HETATM    8  C15 UNL     1      19.999   2.160  52.523  1.00  0.00     0.085 C 
HETATM    9  N5  UNL     1      21.004   3.238  52.366  1.00  0.00    -0.382 N 
HETATM   10  C16 UNL     1      22.004   3.724  51.395  1.00  0.00     0.079 C 
HETATM   11  C17 UNL     1      21.914   5.240  51.445  1.00  0.00     0.048 C 
HETATM   12  C18 UNL     1      21.678   3.272  49.995  1.00  0.00     0.028 C 
HETATM   13  C19 UNL     1      21.048   2.494  49.086  1.00  0.00     0.015 C 
HETATM   14 CL1  UNL     1      20.899   3.172  47.486  1.00  0.00    -0.089 Cl
HETATM   15  C20 UNL     1      20.450   1.088  49.315  1.00  0.00     0.089 C 
HETATM   16  H12 UNL     1      22.562   2.218  53.789  1.00  0.00     0.159 HD
HETATM   17  H18 UNL     1      20.964   3.832  53.220  1.00  0.00     0.160 HD
ENDROOT
BRANCH   1  18
HETATM   18  C8  UNL     1      24.308   4.150  50.983  1.00  0.00     0.256 C 
HETATM   19  N3  UNL     1      24.886   3.875  49.708  1.00  0.00    -0.323 N 
HETATM   20  H10 UNL     1      24.645   2.971  49.207  1.00  0.00     0.169 HD
HETATM   21  O1  UNL     1      24.811   5.294  51.277  1.00  0.00    -0.267 OA
BRANCH  19  22
HETATM   22  C7  UNL     1      25.786   4.851  49.150  1.00  0.00     0.035 A 
HETATM   23  C6  UNL     1      25.443   6.096  48.709  1.00  0.00     0.032 A 
HETATM   24  C5  UNL     1      26.337   6.988  48.187  1.00  0.00     0.031 A 
HETATM   25  C4  UNL     1      27.683   6.642  48.083  1.00  0.00     0.030 A 
HETATM   26  C22 UNL     1      28.018   5.385  48.531  1.00  0.00     0.031 A 
HETATM   27  C21 UNL     1      27.116   4.466  49.066  1.00  0.00     0.032 A 
BRANCH  25  28
HETATM   28  N2  UNL     1      28.673   7.511  47.551  1.00  0.00    -0.378 N 
HETATM   29  C3  UNL     1      28.609   8.933  47.380  1.00  0.00     0.153 C 
HETATM   30  C2  UNL     1      29.589   9.542  48.358  1.00  0.00     0.291 C 
HETATM   31  N1  UNL     1      30.930   9.035  48.163  1.00  0.00     0.087 N 
HETATM   32  C1  UNL     1      31.422   8.489  49.409  1.00  0.00     0.310 C 
HETATM   33  C24 UNL     1      31.009   8.104  47.059  1.00  0.00     0.291 C 
HETATM   34  C23 UNL     1      29.942   7.033  47.093  1.00  0.00     0.153 C 
ENDBRANCH  25  28
ENDBRANCH  19  22
ENDBRANCH   1  18
TORSDOF 3
ENDMDL
MODEL 3
REMARK VINA RESULT:      -8.0      2.976     10.483
REMARK  3 active torsions:
REMARK  status: ('A' for Active; 'I' for Inactive)
REMARK    1  A    between atoms: N2_5  and  C4_6 
REMARK    2  A    between atoms: C7_9  and  N3_10 
REMARK       I    between atoms: N3_10  and  C8_11 
REMARK    3  A    between atoms: C8_11  and  C9_13 
ROOT
HETATM    1  C9  UNL     1      30.759   8.653  47.582  1.00  0.00     0.056 C 
HETATM    2  C10 UNL     1      30.368   9.750  46.891  1.00  0.00     0.098 C 
HETATM    3  N4  UNL     1      31.682  10.139  46.590  1.00  0.00    -0.395 N 
HETATM    4  C11 UNL     1      32.461   9.931  45.369  1.00  0.00     0.147 C 
HETATM    5  C12 UNL     1      32.584   8.461  45.117  1.00  0.00    -0.000 C 
HETATM    6  C13 UNL     1      33.774   7.855  45.323  1.00  0.00    -0.054 C 
HETATM    7  C14 UNL     1      34.652   8.913  45.783  1.00  0.00     0.024 C 
HETATM    8  C15 UNL     1      34.372   8.929  47.146  1.00  0.00     0.085 C 
HETATM    9  N5  UNL     1      33.186   8.700  48.005  1.00  0.00    -0.382 N 
HETATM   10  C16 UNL     1      31.945   7.903  48.037  1.00  0.00     0.079 C 
HETATM   11  C17 UNL     1      31.782   7.464  49.483  1.00  0.00     0.048 C 
HETATM   12  C18 UNL     1      32.058   6.672  47.174  1.00  0.00     0.028 C 
HETATM   13  C19 UNL     1      32.619   5.919  46.201  1.00  0.00     0.015 C 
HETATM   14 CL1  UNL     1      32.328   4.203  46.313  1.00  0.00    -0.089 Cl
HETATM   15  C20 UNL     1      33.483   6.413  45.020  1.00  0.00     0.089 C 
HETATM   16  H12 UNL     1      32.140  10.702  47.377  1.00  0.00     0.159 HD
HETATM   17  H18 UNL     1      33.292   9.296  48.853  1.00  0.00     0.160 HD
ENDROOT
BRANCH   1  18
HETATM   18  C8  UNL     1      29.567   7.955  48.073  1.00  0.00     0.256 C 
HETATM   19  N3  UNL     1      28.923   6.863  47.420  1.00  0.00    -0.323 N 
HETATM   20  H10 UNL     1      29.312   6.499  46.501  1.00  0.00     0.169 HD
HETATM   21  O1  UNL     1      28.844   8.118  49.122  1.00  0.00    -0.267 OA
BRANCH  19  22
HETATM   22  C7  UNL     1      27.757   6.293  48.045  1.00  0.00     0.035 A 
HETATM   23  C6  UNL     1      26.536   6.894  48.158  1.00  0.00     0.032 A 
HETATM   24  C5  UNL     1      25.459   6.309  48.761  1.00  0.00     0.031 A 
HETATM   25  C4  UNL     1      25.573   5.029  49.301  1.00  0.00     0.030 A 
HETATM   26  C22 UNL     1      26.809   4.434  49.181  1.00  0.00     0.031 A 
HETATM   27  C21 UNL     1      27.916   5.019  48.568  1.00  0.00     0.032 A 
BRANCH  25  28
HETATM   28  N2  UNL     1      24.502   4.355  49.944  1.00  0.00    -0.378 N 
HETATM   29  C3  UNL     1      24.435   3.875  51.294  1.00  0.00     0.153 C 
HETATM   30  C2  UNL     1      23.418   4.730  52.017  1.00  0.00     0.291 C 
HETATM   31  N1  UNL     1      22.126   4.696  51.368  1.00  0.00     0.087 N 
HETATM   32  C1  UNL     1      21.703   6.047  51.070  1.00  0.00     0.310 C 
HETATM   33  C24 UNL     1      22.115   3.825  50.214  1.00  0.00     0.291 C 
HETATM   34  C23 UNL     1      23.275   4.055  49.271  1.00  0.00     0.153 C 
ENDBRANCH  25  28
ENDBRANCH  19  22
ENDBRANCH   1  18
TORSDOF 3
ENDMDL
MODEL 4
REMARK VINA RESULT:      -7.9      2.580      9.855
REMARK  3 active torsions:
REMARK  status: ('A' for Active; 'I' for Inactive)
REMARK    1  A    between atoms: N2_5  and  C4_6 
REMARK    2  A    between atoms: C7_9  and  N3_10 
REMARK       I    between atoms: N3_10  and  C8_11 
REMARK    3  A    between atoms: C8_11  and  C9_13 
ROOT
HETATM    1  C9  UNL     1      27.650   8.346  49.091  1.00  0.00     0.056 C 
HETATM    2  C10 UNL     1      27.471   9.261  50.072  1.00  0.00     0.098 C 
HETATM    3  N4  UNL     1      28.640   9.967  49.752  1.00  0.00    -0.395 N 
HETATM    4  C11 UNL     1      28.809  11.187  48.963  1.00  0.00     0.147 C 
HETATM    5  C12 UNL     1      28.290  10.945  47.580  1.00  0.00    -0.000 C 
HETATM    6  C13 UNL     1      29.167  10.821  46.560  1.00  0.00    -0.054 C 
HETATM    7  C14 UNL     1      30.472  10.961  47.177  1.00  0.00     0.024 C 
HETATM    8  C15 UNL     1      30.715   9.659  47.604  1.00  0.00     0.085 C 
HETATM    9  N5  UNL     1      29.910   8.527  48.123  1.00  0.00    -0.382 N 
HETATM   10  C16 UNL     1      28.559   7.945  48.000  1.00  0.00     0.079 C 
HETATM   11  C17 UNL     1      28.766   6.440  47.998  1.00  0.00     0.048 C 
HETATM   12  C18 UNL     1      27.906   8.340  46.701  1.00  0.00     0.028 C 
HETATM   13  C19 UNL     1      27.772   9.099  45.589  1.00  0.00     0.015 C 
HETATM   14 CL1  UNL     1      26.935   8.347  44.257  1.00  0.00    -0.089 Cl
HETATM   15  C20 UNL     1      28.284  10.541  45.378  1.00  0.00     0.089 C 
HETATM   16  H12 UNL     1      29.518   9.544  50.199  1.00  0.00     0.159 HD
HETATM   17  H18 UNL     1      30.516   7.980  48.770  1.00  0.00     0.160 HD
ENDROOT
BRANCH   1  18
HETATM   18  C8  UNL     1      26.540   7.390  49.128  1.00  0.00     0.256 C 
HETATM   19  N3  UNL     1      26.308   6.434  50.161  1.00  0.00    -0.323 N 
HETATM   20  H10 UNL     1      26.975   6.384  50.986  1.00  0.00     0.169 HD
HETATM   21  O1  UNL     1      25.566   7.169  48.321  1.00  0.00    -0.267 OA
BRANCH  19  22
HETATM   22  C7  UNL     1      25.164   5.568  50.037  1.00  0.00     0.035 A 
HETATM   23  C6  UNL     1      25.130   4.379  49.368  1.00  0.00     0.032 A 
HETATM   24  C5  UNL     1      24.017   3.591  49.281  1.00  0.00     0.031 A 
HETATM   25  C4  UNL     1      22.832   3.992  49.896  1.00  0.00     0.030 A 
HETATM   26  C22 UNL     1      22.879   5.192  50.567  1.00  0.00     0.031 A 
HETATM   27  C21 UNL     1      24.007   6.004  50.665  1.00  0.00     0.032 A 
BRANCH  25  28
HETATM   28  N2  UNL     1      21.633   3.231  49.850  1.00  0.00    -0.378 N 
HETATM   29  C3  UNL     1      21.161   2.379  48.798  1.00  0.00     0.153 C 
HETATM   30  C2  UNL     1      21.225   0.959  49.315  1.00  0.00     0.291 C 
HETATM   31  N1  UNL     1      20.458   0.793  50.530  1.00  0.00     0.087 N 
HETATM   32  C1  UNL     1      21.309   0.244  51.563  1.00  0.00     0.310 C 
HETATM   33  C24 UNL     1      19.789   2.012  50.927  1.00  0.00     0.291 C 
HETATM   34  C23 UNL     1      20.691   3.225  50.927  1.00  0.00     0.153 C 
ENDBRANCH  25  28
ENDBRANCH  19  22
ENDBRANCH   1  18
TORSDOF 3
ENDMDL
MODEL 5
REMARK VINA RESULT:      -7.9      8.032     10.213
REMARK  3 active torsions:
REMARK  status: ('A' for Active; 'I' for Inactive)
REMARK    1  A    between atoms: N2_5  and  C4_6 
REMARK    2  A    between atoms: C7_9  and  N3_10 
REMARK       I    between atoms: N3_10  and  C8_11 
REMARK    3  A    between atoms: C8_11  and  C9_13 
ROOT
HETATM    1  C9  UNL     1      32.432   6.674  48.330  1.00  0.00     0.056 C 
HETATM    2  C10 UNL     1      33.430   6.766  49.240  1.00  0.00     0.098 C 
HETATM    3  N4  UNL     1      33.800   5.420  49.105  1.00  0.00    -0.395 N 
HETATM    4  C11 UNL     1      34.882   4.823  48.321  1.00  0.00     0.147 C 
HETATM    5  C12 UNL     1      34.678   5.162  46.877  1.00  0.00    -0.000 C 
HETATM    6  C13 UNL     1      34.270   4.196  46.026  1.00  0.00    -0.054 C 
HETATM    7  C14 UNL     1      34.126   3.013  46.851  1.00  0.00     0.024 C 
HETATM    8  C15 UNL     1      32.838   3.181  47.351  1.00  0.00     0.085 C 
HETATM    9  N5  UNL     1      31.981   4.320  47.757  1.00  0.00    -0.382 N 
HETATM   10  C16 UNL     1      31.743   5.738  47.422  1.00  0.00     0.079 C 
HETATM   11  C17 UNL     1      30.237   5.925  47.498  1.00  0.00     0.048 C 
HETATM   12  C18 UNL     1      32.194   6.055  46.020  1.00  0.00     0.028 C 
HETATM   13  C19 UNL     1      32.882   5.813  44.881  1.00  0.00     0.015 C 
HETATM   14 CL1  UNL     1      32.268   6.594  43.447  1.00  0.00    -0.089 Cl
HETATM   15  C20 UNL     1      34.134   4.924  44.719  1.00  0.00     0.089 C 
HETATM   16  H12 UNL     1      33.207   4.762  49.706  1.00  0.00     0.159 HD
HETATM   17  H18 UNL     1      31.348   3.983  48.513  1.00  0.00     0.160 HD
ENDROOT
BRANCH   1  18
HETATM   18  C8  UNL     1      31.785   7.984  48.205  1.00  0.00     0.256 C 
HETATM   19  N3  UNL     1      30.906   8.565  49.166  1.00  0.00    -0.323 N 
HETATM   20  H10 UNL     1      30.679   8.033  50.057  1.00  0.00     0.169 HD
HETATM   21  O1  UNL     1      31.826   8.880  47.286  1.00  0.00    -0.267 OA
BRANCH  19  22
HETATM   22  C7  UNL     1      30.356   9.865  48.880  1.00  0.00     0.035 A 
HETATM   23  C6  UNL     1      30.899  11.062  49.249  1.00  0.00     0.032 A 
HETATM   24  C5  UNL     1      30.337  12.271  48.953  1.00  0.00     0.031 A 
HETATM   25  C4  UNL     1      29.144  12.326  48.234  1.00  0.00     0.030 A 
HETATM   26  C22 UNL     1      28.607  11.113  47.867  1.00  0.00     0.031 A 
HETATM   27  C21 UNL     1      29.169   9.873  48.163  1.00  0.00     0.032 A 
BRANCH  25  28
HETATM   28  N2  UNL     1      28.497  13.542  47.888  1.00  0.00    -0.378 N 
HETATM   29  C3  UNL     1      29.005  14.626  47.098  1.00  0.00     0.153 C 
HETATM   30  C2  UNL     1      28.214  14.643  45.809  1.00  0.00     0.291 C 
HETATM   31  N1  UNL     1      26.793  14.770  46.050  1.00  0.00     0.087 N 
HETATM   32  C1  UNL     1      26.097  13.680  45.402  1.00  0.00     0.310 C 
HETATM   33  C24 UNL     1      26.485  14.889  47.458  1.00  0.00     0.291 C 
HETATM   34  C23 UNL     1      27.167  13.849  48.317  1.00  0.00     0.153 C 
ENDBRANCH  25  28
ENDBRANCH  19  22
ENDBRANCH   1  18
TORSDOF 3
ENDMDL
MODEL 6
REMARK VINA RESULT:      -7.7      2.264      3.299
REMARK  3 active torsions:
REMARK  status: ('A' for Active; 'I' for Inactive)
REMARK    1  A    between atoms: N2_5  and  C4_6 
REMARK    2  A    between atoms: C7_9  and  N3_10 
REMARK       I    between atoms: N3_10  and  C8_11 
REMARK    3  A    between atoms: C8_11  and  C9_13 
ROOT
HETATM    1  C9  UNL     1      23.384   3.572  51.678  1.00  0.00     0.056 C 
HETATM    2  C10 UNL     1      24.193   2.789  52.430  1.00  0.00     0.098 C 
HETATM    3  N4  UNL     1      23.127   2.071  52.991  1.00  0.00    -0.395 N 
HETATM    4  C11 UNL     1      22.586   0.762  52.624  1.00  0.00     0.147 C 
HETATM    5  C12 UNL     1      22.119   0.812  51.203  1.00  0.00    -0.000 C 
HETATM    6  C13 UNL     1      20.792   0.819  50.947  1.00  0.00    -0.054 C 
HETATM    7  C14 UNL     1      20.164   0.785  52.252  1.00  0.00     0.024 C 
HETATM    8  C15 UNL     1      20.153   2.136  52.586  1.00  0.00     0.085 C 
HETATM    9  N5  UNL     1      21.029   3.310  52.358  1.00  0.00    -0.382 N 
HETATM   10  C16 UNL     1      21.970   3.845  51.355  1.00  0.00     0.079 C 
HETATM   11  C17 UNL     1      21.708   5.341  51.310  1.00  0.00     0.048 C 
HETATM   12  C18 UNL     1      21.702   3.272  49.987  1.00  0.00     0.028 C 
HETATM   13  C19 UNL     1      21.167   2.372  49.130  1.00  0.00     0.015 C 
HETATM   14 CL1  UNL     1      20.946   2.928  47.492  1.00  0.00    -0.089 Cl
HETATM   15  C20 UNL     1      20.732   0.925  49.449  1.00  0.00     0.089 C 
HETATM   16  H12 UNL     1      22.690   2.565  53.835  1.00  0.00     0.159 HD
HETATM   17  H18 UNL     1      20.920   3.948  53.174  1.00  0.00     0.160 HD
ENDROOT
BRANCH   1  18
HETATM   18  C8  UNL     1      24.212   4.503  50.906  1.00  0.00     0.256 C 
HETATM   19  N3  UNL     1      24.695   4.276  49.584  1.00  0.00    -0.323 N 
HETATM   20  H10 UNL     1      24.454   3.369  49.087  1.00  0.00     0.169 HD
HETATM   21  O1  UNL     1      24.685   5.665  51.180  1.00  0.00    -0.267 OA
BRANCH  19  22
HETATM   22  C7  UNL     1      25.499   5.302  48.972  1.00  0.00     0.035 A 
HETATM   23  C6  UNL     1      26.863   5.314  48.902  1.00  0.00     0.032 A 
HETATM   24  C5  UNL     1      27.581   6.313  48.308  1.00  0.00     0.031 A 
HETATM   25  C4  UNL     1      26.920   7.396  47.731  1.00  0.00     0.030 A 
HETATM   26  C22 UNL     1      25.546   7.373  47.808  1.00  0.00     0.031 A 
HETATM   27  C21 UNL     1      24.802   6.360  48.410  1.00  0.00     0.032 A 
BRANCH  25  28
HETATM   28  N2  UNL     1      27.595   8.473  47.097  1.00  0.00    -0.378 N 
HETATM   29  C3  UNL     1      28.953   8.527  46.640  1.00  0.00     0.153 C 
HETATM   30  C2  UNL     1      28.910   8.573  45.128  1.00  0.00     0.291 C 
HETATM   31  N1  UNL     1      28.133   9.694  44.645  1.00  0.00     0.087 N 
HETATM   32  C1  UNL     1      27.099   9.212  43.755  1.00  0.00     0.310 C 
HETATM   33  C24 UNL     1      27.624  10.513  45.723  1.00  0.00     0.291 C 
HETATM   34  C23 UNL     1      26.950   9.720  46.820  1.00  0.00     0.153 C 
ENDBRANCH  25  28
ENDBRANCH  19  22
ENDBRANCH   1  18
TORSDOF 3
ENDMDL
MODEL 7
REMARK VINA RESULT:      -7.5      2.909     10.052
REMARK  3 active torsions:
REMARK  status: ('A' for Active; 'I' for Inactive)
REMARK    1  A    between atoms: N2_5  and  C4_6 
REMARK    2  A    between atoms: C7_9  and  N3_10 
REMARK       I    between atoms: N3_10  and  C8_11 
REMARK    3  A    between atoms: C8_11  and  C9_13 
ROOT
HETATM    1  C9  UNL     1      28.956   8.588  48.145  1.00  0.00     0.056 C 
HETATM    2  C10 UNL     1      30.081   8.432  48.883  1.00  0.00     0.098 C 
HETATM    3  N4  UNL     1      30.765   9.464  48.223  1.00  0.00    -0.395 N 
HETATM    4  C11 UNL     1      30.970  10.855  48.626  1.00  0.00     0.147 C 
HETATM    5  C12 UNL     1      29.636  11.516  48.785  1.00  0.00    -0.000 C 
HETATM    6  C13 UNL     1      29.234  12.418  47.863  1.00  0.00    -0.054 C 
HETATM    7  C14 UNL     1      30.316  12.468  46.900  1.00  0.00     0.024 C 
HETATM    8  C15 UNL     1      29.991  11.403  46.065  1.00  0.00     0.085 C 
HETATM    9  N5  UNL     1      29.367  10.067  46.218  1.00  0.00    -0.382 N 
HETATM   10  C16 UNL     1      28.363   9.371  47.045  1.00  0.00     0.079 C 
HETATM   11  C17 UNL     1      27.606   8.466  46.088  1.00  0.00     0.048 C 
HETATM   12  C18 UNL     1      27.387  10.342  47.658  1.00  0.00     0.028 C 
HETATM   13  C19 UNL     1      26.975  11.572  48.041  1.00  0.00     0.015 C 
HETATM   14 CL1  UNL     1      25.251  11.772  48.210  1.00  0.00    -0.089 Cl
HETATM   15  C20 UNL     1      27.860  12.803  48.334  1.00  0.00     0.089 C 
HETATM   16  H12 UNL     1      31.224   9.143  47.310  1.00  0.00     0.159 HD
HETATM   17  H18 UNL     1      29.780   9.443  45.492  1.00  0.00     0.160 HD
ENDROOT
BRANCH   1  18
HETATM   18  C8  UNL     1      27.959   7.611  48.593  1.00  0.00     0.256 C 
HETATM   19  N3  UNL     1      27.825   6.281  48.095  1.00  0.00    -0.323 N 
HETATM   20  H10 UNL     1      28.485   5.937  47.337  1.00  0.00     0.169 HD
HETATM   21  O1  UNL     1      27.023   7.675  49.470  1.00  0.00    -0.267 OA
BRANCH  19  22
HETATM   22  C7  UNL     1      26.786   5.453  48.649  1.00  0.00     0.035 A 
HETATM   23  C6  UNL     1      25.457   5.762  48.699  1.00  0.00     0.032 A 
HETATM   24  C5  UNL     1      24.508   4.939  49.236  1.00  0.00     0.031 A 
HETATM   25  C4  UNL     1      24.879   3.707  49.773  1.00  0.00     0.030 A 
HETATM   26  C22 UNL     1      26.221   3.406  49.717  1.00  0.00     0.031 A 
HETATM   27  C21 UNL     1      27.199   4.237  49.172  1.00  0.00     0.032 A 
BRANCH  25  28
HETATM   28  N2  UNL     1      23.954   2.797  50.350  1.00  0.00    -0.378 N 
HETATM   29  C3  UNL     1      24.060   2.090  51.592  1.00  0.00     0.153 C 
HETATM   30  C2  UNL     1      23.013   2.666  52.520  1.00  0.00     0.291 C 
HETATM   31  N1  UNL     1      21.684   2.572  51.957  1.00  0.00     0.087 N 
HETATM   32  C1  UNL     1      21.079   3.886  51.934  1.00  0.00     0.310 C 
HETATM   33  C24 UNL     1      21.679   1.917  50.668  1.00  0.00     0.291 C 
HETATM   34  C23 UNL     1      22.719   2.456  49.712  1.00  0.00     0.153 C 
ENDBRANCH  25  28
ENDBRANCH  19  22
ENDBRANCH   1  18
TORSDOF 3
ENDMDL
MODEL 8
REMARK VINA RESULT:      -7.4      8.821     10.826
REMARK  3 active torsions:
REMARK  status: ('A' for Active; 'I' for Inactive)
REMARK    1  A    between atoms: N2_5  and  C4_6 
REMARK    2  A    between atoms: C7_9  and  N3_10 
REMARK       I    between atoms: N3_10  and  C8_11 
REMARK    3  A    between atoms: C8_11  and  C9_13 
ROOT
HETATM    1  C9  UNL     1      33.364   7.504  45.903  1.00  0.00     0.056 C 
HETATM    2  C10 UNL     1      33.847   7.539  44.639  1.00  0.00     0.098 C 
HETATM    3  N4  UNL     1      34.602   6.367  44.800  1.00  0.00    -0.395 N 
HETATM    4  C11 UNL     1      34.294   4.995  44.399  1.00  0.00     0.147 C 
HETATM    5  C12 UNL     1      33.034   4.562  45.081  1.00  0.00    -0.000 C 
HETATM    6  C13 UNL     1      33.106   3.667  46.091  1.00  0.00    -0.054 C 
HETATM    7  C14 UNL     1      34.520   3.379  46.228  1.00  0.00     0.024 C 
HETATM    8  C15 UNL     1      34.932   4.418  47.059  1.00  0.00     0.085 C 
HETATM    9  N5  UNL     1      34.573   5.842  47.262  1.00  0.00    -0.382 N 
HETATM   10  C16 UNL     1      33.409   6.743  47.166  1.00  0.00     0.079 C 
HETATM   11  C17 UNL     1      33.524   7.681  48.356  1.00  0.00     0.048 C 
HETATM   12  C18 UNL     1      32.113   5.983  47.281  1.00  0.00     0.028 C 
HETATM   13  C19 UNL     1      31.355   4.863  47.255  1.00  0.00     0.015 C 
HETATM   14 CL1  UNL     1      29.857   4.944  48.145  1.00  0.00    -0.089 Cl
HETATM   15  C20 UNL     1      31.678   3.535  46.536  1.00  0.00     0.089 C 
HETATM   16  H12 UNL     1      35.556   6.546  45.253  1.00  0.00     0.159 HD
HETATM   17  H18 UNL     1      35.431   6.339  47.582  1.00  0.00     0.160 HD
ENDROOT
BRANCH   1  18
HETATM   18  C8  UNL     1      32.475   8.654  46.100  1.00  0.00     0.256 C 
HETATM   19  N3  UNL     1      32.897   9.977  46.425  1.00  0.00    -0.323 N 
HETATM   20  H10 UNL     1      33.933  10.182  46.541  1.00  0.00     0.169 HD
HETATM   21  O1  UNL     1      31.198   8.776  46.041  1.00  0.00    -0.267 OA
BRANCH  19  22
HETATM   22  C7  UNL     1      31.886  10.990  46.583  1.00  0.00     0.035 A 
HETATM   23  C6  UNL     1      31.375  11.773  45.589  1.00  0.00     0.032 A 
HETATM   24  C5  UNL     1      30.413  12.722  45.791  1.00  0.00     0.031 A 
HETATM   25  C4  UNL     1      29.901  12.931  47.071  1.00  0.00     0.030 A 
HETATM   26  C22 UNL     1      30.424  12.136  48.065  1.00  0.00     0.031 A 
HETATM   27  C21 UNL     1      31.405  11.164  47.872  1.00  0.00     0.032 A 
BRANCH  25  28
HETATM   28  N2  UNL     1      28.903  13.897  47.364  1.00  0.00    -0.378 N 
HETATM   29  C3  UNL     1      28.788  15.236  46.864  1.00  0.00     0.153 C 
HETATM   30  C2  UNL     1      27.574  15.269  45.961  1.00  0.00     0.291 C 
HETATM   31  N1  UNL     1      26.376  14.846  46.654  1.00  0.00     0.087 N 
HETATM   32  C1  UNL     1      25.761  13.758  45.926  1.00  0.00     0.310 C 
HETATM   33  C24 UNL     1      26.627  14.536  48.043  1.00  0.00     0.291 C 
HETATM   34  C23 UNL     1      27.817  13.627  48.256  1.00  0.00     0.153 C 
ENDBRANCH  25  28
ENDBRANCH  19  22
ENDBRANCH   1  18
TORSDOF 3
ENDMDL
MODEL 9
REMARK VINA RESULT:      -7.2      4.273     10.706
REMARK  3 active torsions:
REMARK  status: ('A' for Active; 'I' for Inactive)
REMARK    1  A    between atoms: N2_5  and  C4_6 
REMARK    2  A    between atoms: C7_9  and  N3_10 
REMARK       I    between atoms: N3_10  and  C8_11 
REMARK    3  A    between atoms: C8_11  and  C9_13 
ROOT
HETATM    1  C9  UNL     1      22.068   4.098  51.709  1.00  0.00     0.056 C 
HETATM    2  C10 UNL     1      22.224   5.102  52.605  1.00  0.00     0.098 C 
HETATM    3  N4  UNL     1      23.576   5.297  52.285  1.00  0.00    -0.395 N 
HETATM    4  C11 UNL     1      24.194   6.292  51.409  1.00  0.00     0.147 C 
HETATM    5  C12 UNL     1      23.643   6.130  50.027  1.00  0.00    -0.000 C 
HETATM    6  C13 UNL     1      24.428   5.600  49.063  1.00  0.00    -0.054 C 
HETATM    7  C14 UNL     1      25.683   5.309  49.728  1.00  0.00     0.024 C 
HETATM    8  C15 UNL     1      25.422   4.054  50.270  1.00  0.00     0.085 C 
HETATM    9  N5  UNL     1      24.248   3.349  50.839  1.00  0.00    -0.382 N 
HETATM   10  C16 UNL     1      22.780   3.293  50.699  1.00  0.00     0.079 C 
HETATM   11  C17 UNL     1      22.417   1.823  50.828  1.00  0.00     0.048 C 
HETATM   12  C18 UNL     1      22.338   3.778  49.343  1.00  0.00     0.028 C 
HETATM   13  C19 UNL     1      22.511   4.427  48.169  1.00  0.00     0.015 C 
HETATM   14 CL1  UNL     1      21.475   3.914  46.863  1.00  0.00    -0.089 Cl
HETATM   15  C20 UNL     1      23.521   5.555  47.867  1.00  0.00     0.089 C 
HETATM   16  H12 UNL     1      24.228   4.626  52.805  1.00  0.00     0.159 HD
HETATM   17  H18 UNL     1      24.600   2.680  51.556  1.00  0.00     0.160 HD
ENDROOT
BRANCH   1  18
HETATM   18  C8  UNL     1      20.682   3.623  51.770  1.00  0.00     0.256 C 
HETATM   19  N3  UNL     1      19.699   3.814  50.755  1.00  0.00    -0.323 N 
HETATM   20  H10 UNL     1      19.957   4.340  49.869  1.00  0.00     0.169 HD
HETATM   21  O1  UNL     1      20.034   2.969  52.666  1.00  0.00    -0.267 OA
BRANCH  19  22
HETATM   22  C7  UNL     1      18.381   3.279  50.981  1.00  0.00     0.035 A 
HETATM   23  C6  UNL     1      18.013   1.973  50.839  1.00  0.00     0.032 A 
HETATM   24  C5  UNL     1      16.746   1.514  51.066  1.00  0.00     0.031 A 
HETATM   25  C4  UNL     1      15.747   2.400  51.467  1.00  0.00     0.030 A 
HETATM   26  C22 UNL     1      16.131   3.715  51.607  1.00  0.00     0.031 A 
HETATM   27  C21 UNL     1      17.419   4.195  51.379  1.00  0.00     0.032 A 
BRANCH  25  28
HETATM   28  N2  UNL     1      14.408   2.003  51.722  1.00  0.00    -0.378 N 
HETATM   29  C3  UNL     1      13.930   1.050  52.681  1.00  0.00     0.153 C 
HETATM   30  C2  UNL     1      13.169   1.826  53.734  1.00  0.00     0.291 C 
HETATM   31  N1  UNL     1      12.091   2.600  53.158  1.00  0.00     0.087 N 
HETATM   32  C1  UNL     1      12.238   3.987  53.542  1.00  0.00     0.310 C 
HETATM   33  C24 UNL     1      11.982   2.411  51.729  1.00  0.00     0.291 C 
HETATM   34  C23 UNL     1      13.300   2.547  50.998  1.00  0.00     0.153 C 
ENDBRANCH  25  28
ENDBRANCH  19  22
ENDBRANCH   1  18
TORSDOF 3
ENDMDL
