MODEL 1
REMARK VINA RESULT:      -7.7      0.000      0.000
REMARK  1 active torsions:
REMARK  status: ('A' for Active; 'I' for Inactive)
REMARK    1  A    between atoms: O1_1  and  C1_2 
ROOT
HETATM    1  C1  UNL     1      23.553   3.810  52.830  1.00  0.00     0.046 C 
HETATM    2  C2  UNL     1      24.738   3.349  53.354  1.00  0.00     0.099 C 
HETATM    3  C3  UNL     1      25.488   2.109  53.517  1.00  0.00     0.040 C 
HETATM    4  C4  UNL     1      25.125   0.763  53.050  1.00  0.00     0.163 C 
HETATM    5  N1  UNL     1      24.959  -0.352  53.956  1.00  0.00    -0.291 NA
HETATM    6  C5  UNL     1      24.003  -1.006  54.579  1.00  0.00     0.126 C 
HETATM    7  C6  UNL     1      22.584  -0.821  54.345  1.00  0.00     0.032 A 
HETATM    8  C7  UNL     1      21.272  -1.282  54.454  1.00  0.00     0.016 A 
HETATM    9  C8  UNL     1      20.432  -0.332  53.766  1.00  0.00     0.010 A 
HETATM   10  C9  UNL     1      20.086   0.821  53.021  1.00  0.00     0.105 A 
HETATM   11  N2  UNL     1      21.387   1.090  53.040  1.00  0.00    -0.335 N 
HETATM   12  C10 UNL     1      22.211   0.301  53.621  1.00  0.00     0.156 A 
HETATM   13  O2  UNL     1      23.025   1.329  53.085  1.00  0.00    -0.301 OA
HETATM   14  C11 UNL     1      24.068   1.045  52.085  1.00  0.00     0.292 C 
HETATM   15  O3  UNL     1      24.090   1.838  51.040  1.00  0.00    -0.358 OA
HETATM   16  C12 UNL     1      22.767   1.748  50.475  1.00  0.00     0.183 C 
HETATM   17  C13 UNL     1      22.006   2.335  51.650  1.00  0.00     0.019 C 
HETATM   18  C14 UNL     1      21.055   1.751  52.421  1.00  0.00     0.134 A 
HETATM   19  C15 UNL     1      22.165   3.665  52.097  1.00  0.00     0.047 C 
ENDROOT
BRANCH   1  20
HETATM   20  O1  UNL     1      23.684   5.197  53.144  1.00  0.00    -0.395 OA
HETATM   21  H1  UNL     1      24.263   5.520  53.893  1.00  0.00     0.210 HD
ENDBRANCH   1  20
TORSDOF 1
ENDMDL
MODEL 2
REMARK VINA RESULT:      -7.5      1.944      4.172
REMARK  1 active torsions:
REMARK  status: ('A' for Active; 'I' for Inactive)
REMARK    1  A    between atoms: O1_1  and  C1_2 
ROOT
HETATM    1  C1  UNL     1      22.094   1.594  49.787  1.00  0.00     0.046 C 
HETATM    2  C2  UNL     1      21.538   0.589  50.546  1.00  0.00     0.099 C 
HETATM    3  C3  UNL     1      21.592   0.038  51.895  1.00  0.00     0.040 C 
HETATM    4  C4  UNL     1      22.384   0.516  53.037  1.00  0.00     0.163 C 
HETATM    5  N1  UNL     1      23.365  -0.314  53.701  1.00  0.00    -0.291 NA
HETATM    6  C5  UNL     1      24.663  -0.524  53.709  1.00  0.00     0.126 C 
HETATM    7  C6  UNL     1      25.639   0.296  53.018  1.00  0.00     0.032 A 
HETATM    8  C7  UNL     1      26.959   0.714  52.843  1.00  0.00     0.016 A 
HETATM    9  C8  UNL     1      26.942   1.759  51.847  1.00  0.00     0.010 A 
HETATM   10  C9  UNL     1      26.410   2.661  50.894  1.00  0.00     0.105 A 
HETATM   11  N2  UNL     1      25.236   2.117  51.198  1.00  0.00    -0.335 N 
HETATM   12  C10 UNL     1      25.150   1.189  52.075  1.00  0.00     0.156 A 
HETATM   13  O2  UNL     1      23.814   1.406  51.661  1.00  0.00    -0.301 OA
HETATM   14  C11 UNL     1      22.776   1.854  52.605  1.00  0.00     0.292 C 
HETATM   15  O3  UNL     1      22.022   2.847  52.197  1.00  0.00    -0.358 OA
HETATM   16  C12 UNL     1      22.944   3.907  51.873  1.00  0.00     0.183 C 
HETATM   17  C13 UNL     1      23.665   3.204  50.737  1.00  0.00     0.019 C 
HETATM   18  C14 UNL     1      24.975   2.864  50.647  1.00  0.00     0.134 A 
HETATM   19  C15 UNL     1      23.039   2.829  49.528  1.00  0.00     0.047 C 
ENDROOT
BRANCH   1  20
HETATM   20  O1  UNL     1      21.418   1.355  48.553  1.00  0.00    -0.395 OA
HETATM   21  H1  UNL     1      21.301   2.072  47.864  1.00  0.00     0.210 HD
ENDBRANCH   1  20
TORSDOF 1
ENDMDL
MODEL 3
REMARK VINA RESULT:      -7.4      2.269      3.959
REMARK  1 active torsions:
REMARK  status: ('A' for Active; 'I' for Inactive)
REMARK    1  A    between atoms: O1_1  and  C1_2 
ROOT
HETATM    1  C1  UNL     1      26.194   2.857  51.703  1.00  0.00     0.046 C 
HETATM    2  C2  UNL     1      26.250   3.217  50.376  1.00  0.00     0.099 C 
HETATM    3  C3  UNL     1      25.374   3.611  49.280  1.00  0.00     0.040 C 
HETATM    4  C4  UNL     1      23.915   3.794  49.309  1.00  0.00     0.163 C 
HETATM    5  N1  UNL     1      23.022   3.031  48.466  1.00  0.00    -0.291 NA
HETATM    6  C5  UNL     1      22.248   1.969  48.525  1.00  0.00     0.126 C 
HETATM    7  C6  UNL     1      21.923   1.248  49.741  1.00  0.00     0.032 A 
HETATM    8  C7  UNL     1      21.106   0.353  50.432  1.00  0.00     0.016 A 
HETATM    9  C8  UNL     1      21.576   0.320  51.797  1.00  0.00     0.010 A 
HETATM   10  C9  UNL     1      22.377   0.636  52.921  1.00  0.00     0.105 A 
HETATM   11  N2  UNL     1      23.039   1.432  52.088  1.00  0.00    -0.335 N 
HETATM   12  C10 UNL     1      22.691   1.532  50.860  1.00  0.00     0.156 A 
HETATM   13  O2  UNL     1      23.785   2.421  50.989  1.00  0.00    -0.301 OA
HETATM   14  C11 UNL     1      23.640   3.865  50.739  1.00  0.00     0.292 C 
HETATM   15  O3  UNL     1      24.160   4.658  51.646  1.00  0.00    -0.358 OA
HETATM   16  C12 UNL     1      23.541   4.265  52.886  1.00  0.00     0.183 C 
HETATM   17  C13 UNL     1      24.092   2.852  52.947  1.00  0.00     0.019 C 
HETATM   18  C14 UNL     1      23.415   1.677  52.941  1.00  0.00     0.134 A 
HETATM   19  C15 UNL     1      25.468   2.555  53.070  1.00  0.00     0.047 C 
ENDROOT
BRANCH   1  20
HETATM   20  O1  UNL     1      27.584   2.645  51.946  1.00  0.00    -0.395 OA
HETATM   21  H1  UNL     1      28.060   3.069  52.718  1.00  0.00     0.210 HD
ENDBRANCH   1  20
TORSDOF 1
ENDMDL
MODEL 4
REMARK VINA RESULT:      -7.1      1.555      3.841
REMARK  1 active torsions:
REMARK  status: ('A' for Active; 'I' for Inactive)
REMARK    1  A    between atoms: O1_1  and  C1_2 
ROOT
HETATM    1  C1  UNL     1      22.020   1.595  49.634  1.00  0.00     0.046 C 
HETATM    2  C2  UNL     1      20.757   1.067  49.775  1.00  0.00     0.099 C 
HETATM    3  C3  UNL     1      19.791   0.727  50.812  1.00  0.00     0.040 C 
HETATM    4  C4  UNL     1      19.916   0.919  52.265  1.00  0.00     0.163 C 
HETATM    5  N1  UNL     1      19.853  -0.182  53.200  1.00  0.00    -0.291 NA
HETATM    6  C5  UNL     1      20.658  -0.969  53.880  1.00  0.00     0.126 C 
HETATM    7  C6  UNL     1      22.093  -0.790  53.992  1.00  0.00     0.032 A 
HETATM    8  C7  UNL     1      23.296  -1.059  54.644  1.00  0.00     0.016 A 
HETATM    9  C8  UNL     1      24.312  -0.260  54.001  1.00  0.00     0.010 A 
HETATM   10  C9  UNL     1      24.881   0.660  53.088  1.00  0.00     0.105 A 
HETATM   11  N2  UNL     1      23.650   0.767  52.599  1.00  0.00    -0.335 N 
HETATM   12  C10 UNL     1      22.681   0.102  53.108  1.00  0.00     0.156 A 
HETATM   13  O2  UNL     1      22.081   0.863  52.075  1.00  0.00    -0.301 OA
HETATM   14  C11 UNL     1      21.031   1.856  52.358  1.00  0.00     0.292 C 
HETATM   15  O3  UNL     1      21.181   3.026  51.785  1.00  0.00    -0.358 OA
HETATM   16  C12 UNL     1      22.479   3.486  52.208  1.00  0.00     0.183 C 
HETATM   17  C13 UNL     1      23.303   2.394  51.551  1.00  0.00     0.019 C 
HETATM   18  C14 UNL     1      24.112   1.474  52.135  1.00  0.00     0.134 A 
HETATM   19  C15 UNL     1      23.377   2.206  50.153  1.00  0.00     0.047 C 
ENDROOT
BRANCH   1  20
HETATM   20  O1  UNL     1      22.134   1.546  48.212  1.00  0.00    -0.395 OA
HETATM   21  H1  UNL     1      22.899   1.090  47.755  1.00  0.00     0.210 HD
ENDBRANCH   1  20
TORSDOF 1
ENDMDL
MODEL 5
REMARK VINA RESULT:      -6.9      1.893      3.174
REMARK  1 active torsions:
REMARK  status: ('A' for Active; 'I' for Inactive)
REMARK    1  A    between atoms: O1_1  and  C1_2 
ROOT
HETATM    1  C1  UNL     1      20.298   2.945  51.928  1.00  0.00     0.046 C 
HETATM    2  C2  UNL     1      21.140   4.030  51.842  1.00  0.00     0.099 C 
HETATM    3  C3  UNL     1      22.523   4.355  51.515  1.00  0.00     0.040 C 
HETATM    4  C4  UNL     1      23.588   3.443  51.075  1.00  0.00     0.163 C 
HETATM    5  N1  UNL     1      24.820   3.276  51.816  1.00  0.00    -0.291 NA
HETATM    6  C5  UNL     1      25.361   2.459  52.693  1.00  0.00     0.126 C 
HETATM    7  C6  UNL     1      24.794   1.188  53.101  1.00  0.00     0.032 A 
HETATM    8  C7  UNL     1      24.944  -0.068  53.691  1.00  0.00     0.016 A 
HETATM    9  C8  UNL     1      23.683  -0.755  53.546  1.00  0.00     0.010 A 
HETATM   10  C9  UNL     1      22.335  -0.966  53.169  1.00  0.00     0.105 A 
HETATM   11  N2  UNL     1      22.395   0.266  52.675  1.00  0.00    -0.335 N 
HETATM   12  C10 UNL     1      23.473   0.952  52.751  1.00  0.00     0.156 A 
HETATM   13  O2  UNL     1      22.569   1.794  52.060  1.00  0.00    -0.301 OA
HETATM   14  C11 UNL     1      22.837   2.254  50.687  1.00  0.00     0.292 C 
HETATM   15  O3  UNL     1      21.841   2.143  49.841  1.00  0.00    -0.358 OA
HETATM   16  C12 UNL     1      21.475   0.749  49.876  1.00  0.00     0.183 C 
HETATM   17  C13 UNL     1      21.031   0.695  51.327  1.00  0.00     0.019 C 
HETATM   18  C14 UNL     1      21.543  -0.042  52.343  1.00  0.00     0.134 A 
HETATM   19  C15 UNL     1      19.926   1.416  51.832  1.00  0.00     0.047 C 
ENDROOT
BRANCH   1  20
HETATM   20  O1  UNL     1      19.102   3.611  52.332  1.00  0.00    -0.395 OA
HETATM   21  H1  UNL     1      18.533   4.121  51.686  1.00  0.00     0.210 HD
ENDBRANCH   1  20
TORSDOF 1
ENDMDL
MODEL 6
REMARK VINA RESULT:      -6.9      1.823      3.747
REMARK  1 active torsions:
REMARK  status: ('A' for Active; 'I' for Inactive)
REMARK    1  A    between atoms: O1_1  and  C1_2 
ROOT
HETATM    1  C1  UNL     1      25.677   2.894  50.511  1.00  0.00     0.046 C 
HETATM    2  C2  UNL     1      24.736   3.246  49.571  1.00  0.00     0.099 C 
HETATM    3  C3  UNL     1      23.295   3.413  49.431  1.00  0.00     0.040 C 
HETATM    4  C4  UNL     1      22.260   3.247  50.461  1.00  0.00     0.163 C 
HETATM    5  N1  UNL     1      21.186   2.287  50.332  1.00  0.00    -0.291 NA
HETATM    6  C5  UNL     1      20.871   1.073  50.729  1.00  0.00     0.126 C 
HETATM    7  C6  UNL     1      21.610   0.305  51.713  1.00  0.00     0.032 A 
HETATM    8  C7  UNL     1      21.673  -0.753  52.620  1.00  0.00     0.016 A 
HETATM    9  C8  UNL     1      22.951  -0.663  53.285  1.00  0.00     0.010 A 
HETATM   10  C9  UNL     1      24.234  -0.158  53.608  1.00  0.00     0.105 A 
HETATM   11  N2  UNL     1      23.982   0.766  52.687  1.00  0.00    -0.335 N 
HETATM   12  C10 UNL     1      22.872   0.771  52.049  1.00  0.00     0.156 A 
HETATM   13  O2  UNL     1      23.572   1.895  51.547  1.00  0.00    -0.301 OA
HETATM   14  C11 UNL     1      23.043   3.261  51.692  1.00  0.00     0.292 C 
HETATM   15  O3  UNL     1      23.894   4.162  52.122  1.00  0.00    -0.358 OA
HETATM   16  C12 UNL     1      24.387   3.643  53.373  1.00  0.00     0.183 C 
HETATM   17  C13 UNL     1      25.064   2.401  52.823  1.00  0.00     0.019 C 
HETATM   18  C14 UNL     1      24.793   1.099  53.089  1.00  0.00     0.134 A 
HETATM   19  C15 UNL     1      26.165   2.439  51.940  1.00  0.00     0.047 C 
ENDROOT
BRANCH   1  20
HETATM   20  O1  UNL     1      26.857   3.018  49.718  1.00  0.00    -0.395 OA
HETATM   21  H1  UNL     1      27.598   3.644  49.963  1.00  0.00     0.210 HD
ENDBRANCH   1  20
TORSDOF 1
ENDMDL
MODEL 7
REMARK VINA RESULT:      -6.8      2.080      3.191
REMARK  1 active torsions:
REMARK  status: ('A' for Active; 'I' for Inactive)
REMARK    1  A    between atoms: O1_1  and  C1_2 
ROOT
HETATM    1  C1  UNL     1      22.649   4.938  51.421  1.00  0.00     0.046 C 
HETATM    2  C2  UNL     1      23.873   5.416  51.012  1.00  0.00     0.099 C 
HETATM    3  C3  UNL     1      25.128   4.947  50.438  1.00  0.00     0.040 C 
HETATM    4  C4  UNL     1      25.484   3.579  50.035  1.00  0.00     0.163 C 
HETATM    5  N1  UNL     1      26.602   2.868  50.613  1.00  0.00    -0.291 NA
HETATM    6  C5  UNL     1      26.850   1.973  51.545  1.00  0.00     0.126 C 
HETATM    7  C6  UNL     1      25.838   1.223  52.263  1.00  0.00     0.032 A 
HETATM    8  C7  UNL     1      25.477   0.132  53.054  1.00  0.00     0.016 A 
HETATM    9  C8  UNL     1      24.044   0.186  53.221  1.00  0.00     0.010 A 
HETATM   10  C9  UNL     1      22.721   0.670  53.085  1.00  0.00     0.105 A 
HETATM   11  N2  UNL     1      23.268   1.642  52.362  1.00  0.00    -0.335 N 
HETATM   12  C10 UNL     1      24.531   1.674  52.153  1.00  0.00     0.156 A 
HETATM   13  O2  UNL     1      24.030   2.795  51.449  1.00  0.00    -0.301 OA
HETATM   14  C11 UNL     1      24.182   2.921  49.989  1.00  0.00     0.292 C 
HETATM   15  O3  UNL     1      23.103   3.265  49.328  1.00  0.00    -0.358 OA
HETATM   16  C12 UNL     1      22.118   2.272  49.680  1.00  0.00     0.183 C 
HETATM   17  C13 UNL     1      22.033   2.589  51.162  1.00  0.00     0.019 C 
HETATM   18  C14 UNL     1      22.326   1.790  52.218  1.00  0.00     0.134 A 
HETATM   19  C15 UNL     1      21.565   3.821  51.671  1.00  0.00     0.047 C 
ENDROOT
BRANCH   1  20
HETATM   20  O1  UNL     1      22.054   6.161  51.854  1.00  0.00    -0.395 OA
HETATM   21  H1  UNL     1      21.721   6.288  52.790  1.00  0.00     0.210 HD
ENDBRANCH   1  20
TORSDOF 1
ENDMDL
MODEL 8
REMARK VINA RESULT:      -6.6      2.403      3.783
REMARK  1 active torsions:
REMARK  status: ('A' for Active; 'I' for Inactive)
REMARK    1  A    between atoms: O1_1  and  C1_2 
ROOT
HETATM    1  C1  UNL     1      23.849   5.548  51.218  1.00  0.00     0.046 C 
HETATM    2  C2  UNL     1      23.717   5.022  52.483  1.00  0.00     0.099 C 
HETATM    3  C3  UNL     1      23.749   3.740  53.176  1.00  0.00     0.040 C 
HETATM    4  C4  UNL     1      24.011   2.410  52.607  1.00  0.00     0.163 C 
HETATM    5  N1  UNL     1      23.050   1.331  52.685  1.00  0.00    -0.291 NA
HETATM    6  C5  UNL     1      22.122   0.758  51.950  1.00  0.00     0.126 C 
HETATM    7  C6  UNL     1      21.892   1.031  50.544  1.00  0.00     0.032 A 
HETATM    8  C7  UNL     1      21.343   0.662  49.316  1.00  0.00     0.016 A 
HETATM    9  C8  UNL     1      21.766   1.648  48.351  1.00  0.00     0.010 A 
HETATM   10  C9  UNL     1      22.410   2.803  47.845  1.00  0.00     0.105 A 
HETATM   11  N2  UNL     1      22.826   2.984  49.094  1.00  0.00    -0.335 N 
HETATM   12  C10 UNL     1      22.507   2.158  50.018  1.00  0.00     0.156 A 
HETATM   13  O2  UNL     1      23.324   3.114  50.668  1.00  0.00    -0.301 OA
HETATM   14  C11 UNL     1      24.594   2.737  51.310  1.00  0.00     0.292 C 
HETATM   15  O3  UNL     1      25.625   3.500  51.034  1.00  0.00    -0.358 OA
HETATM   16  C12 UNL     1      25.726   3.484  49.596  1.00  0.00     0.183 C 
HETATM   17  C13 UNL     1      24.396   4.149  49.293  1.00  0.00     0.019 C 
HETATM   18  C14 UNL     1      23.333   3.650  48.615  1.00  0.00     0.134 A 
HETATM   19  C15 UNL     1      24.086   5.477  49.661  1.00  0.00     0.047 C 
ENDROOT
BRANCH   1  20
HETATM   20  O1  UNL     1      23.658   6.930  51.520  1.00  0.00    -0.395 OA
HETATM   21  H1  UNL     1      24.417   7.524  51.792  1.00  0.00     0.210 HD
ENDBRANCH   1  20
TORSDOF 1
ENDMDL
MODEL 9
REMARK VINA RESULT:      -6.5     12.261     14.141
REMARK  1 active torsions:
REMARK  status: ('A' for Active; 'I' for Inactive)
REMARK    1  A    between atoms: O1_1  and  C1_2 
ROOT
HETATM    1  C1  UNL     1      35.271   8.080  48.197  1.00  0.00     0.046 C 
HETATM    2  C2  UNL     1      34.621   9.119  47.571  1.00  0.00     0.099 C 
HETATM    3  C3  UNL     1      33.416   9.386  46.795  1.00  0.00     0.040 C 
HETATM    4  C4  UNL     1      32.349   8.444  46.427  1.00  0.00     0.163 C 
HETATM    5  N1  UNL     1      32.005   8.163  45.050  1.00  0.00    -0.291 NA
HETATM    6  C5  UNL     1      32.243   7.264  44.120  1.00  0.00     0.126 C 
HETATM    7  C6  UNL     1      32.926   6.004  44.340  1.00  0.00     0.032 A 
HETATM    8  C7  UNL     1      33.234   4.708  43.925  1.00  0.00     0.016 A 
HETATM    9  C8  UNL     1      34.017   4.103  44.976  1.00  0.00     0.010 A 
HETATM   10  C9  UNL     1      34.699   3.992  46.211  1.00  0.00     0.105 A 
HETATM   11  N2  UNL     1      34.311   5.247  46.413  1.00  0.00    -0.335 N 
HETATM   12  C10 UNL     1      33.608   5.865  45.540  1.00  0.00     0.156 A 
HETATM   13  O2  UNL     1      33.759   6.797  46.594  1.00  0.00    -0.301 OA
HETATM   14  C11 UNL     1      32.597   7.326  47.330  1.00  0.00     0.292 C 
HETATM   15  O3  UNL     1      32.699   7.323  48.638  1.00  0.00    -0.358 OA
HETATM   16  C12 UNL     1      32.976   5.953  48.988  1.00  0.00     0.183 C 
HETATM   17  C13 UNL     1      34.318   5.834  48.289  1.00  0.00     0.019 C 
HETATM   18  C14 UNL     1      34.674   5.008  47.274  1.00  0.00     0.134 A 
HETATM   19  C15 UNL     1      35.458   6.583  48.655  1.00  0.00     0.047 C 
ENDROOT
BRANCH   1  20
HETATM   20  O1  UNL     1      36.403   8.786  48.704  1.00  0.00    -0.395 OA
HETATM   21  H1  UNL     1      37.287   8.780  48.234  1.00  0.00     0.210 HD
ENDBRANCH   1  20
TORSDOF 1
ENDMDL
