MODEL 1
REMARK VINA RESULT:      -8.0      0.000      0.000
REMARK  7 active torsions:
REMARK  status: ('A' for Active; 'I' for Inactive)
REMARK    1  A    between atoms: C1_2  and  N1_3 
REMARK    2  A    between atoms: C1_2  and  N3_12 
REMARK    3  A    between atoms: N1_3  and  C2_4 
REMARK    4  A    between atoms: C2_4  and  C3_5 
REMARK    5  A    between atoms: C3_5  and  N2_6 
REMARK    6  A    between atoms: C12_19  and  N6_20 
REMARK    7  A    between atoms: N6_20  and  C13_21 
ROOT
HETATM    1  N3  UNL     1      24.000  -0.185  53.646  1.00  0.00    -0.354 N 
HETATM    2  C8  UNL     1      24.788  -0.817  54.653  1.00  0.00     0.132 C 
HETATM    3  C9  UNL     1      25.944  -0.037  55.173  1.00  0.00     0.080 C 
HETATM    4  C10 UNL     1      26.496   0.817  54.096  1.00  0.00     0.049 A 
HETATM    5  N4  UNL     1      27.790   1.139  54.284  1.00  0.00    -0.246 NA
HETATM    6  C11 UNL     1      28.399   1.932  53.360  1.00  0.00     0.235 A 
HETATM    7  N5  UNL     1      27.757   2.399  52.274  1.00  0.00    -0.224 NA
HETATM    8  C12 UNL     1      26.466   2.108  52.036  1.00  0.00     0.139 A 
HETATM    9  C19 UNL     1      25.828   1.289  52.986  1.00  0.00     0.030 A 
HETATM   10  C20 UNL     1      24.404   0.887  52.799  1.00  0.00     0.169 C 
ENDROOT
BRANCH   1  11
HETATM   11  C1  UNL     1      22.654  -0.659  53.469  1.00  0.00     0.170 C 
HETATM   12  S1  UNL     1      21.923  -1.545  54.631  1.00  0.00    -0.041 SA
BRANCH  11  13
HETATM   13  N1  UNL     1      21.900  -0.364  52.270  1.00  0.00    -0.365 N 
HETATM   14  H1  UNL     1      22.341  -0.687  51.370  1.00  0.00     0.161 HD
BRANCH  13  15
HETATM   15  C2  UNL     1      20.631   0.318  52.279  1.00  0.00     0.152 C 
BRANCH  15  16
HETATM   16  C3  UNL     1      20.756   1.670  52.908  1.00  0.00     0.292 C 
BRANCH  16  17
HETATM   17  N2  UNL     1      20.589   2.703  51.911  1.00  0.00     0.094 N 
HETATM   18  C4  UNL     1      21.339   3.894  52.223  1.00  0.00     0.298 C 
HETATM   19  C5  UNL     1      21.297   4.802  51.006  1.00  0.00     0.198 C 
HETATM   20  O1  UNL     1      19.990   5.044  50.574  1.00  0.00    -0.388 OA
HETATM   21  C6  UNL     1      19.324   3.849  50.279  1.00  0.00     0.198 C 
HETATM   22  C7  UNL     1      19.251   3.057  51.597  1.00  0.00     0.298 C 
ENDBRANCH  16  17
ENDBRANCH  15  16
ENDBRANCH  13  15
ENDBRANCH  11  13
ENDBRANCH   1  11
BRANCH   8  23
HETATM   23  N6  UNL     1      25.594   2.484  50.971  1.00  0.00    -0.340 N 
HETATM   24  H19 UNL     1      24.763   1.915  50.674  1.00  0.00     0.167 HD
BRANCH  23  25
HETATM   25  C13 UNL     1      25.870   3.715  50.264  1.00  0.00     0.035 A 
HETATM   26  C14 UNL     1      26.869   3.886  49.324  1.00  0.00     0.029 A 
HETATM   27  C15 UNL     1      27.046   5.127  48.747  1.00  0.00     0.004 A 
HETATM   28  C16 UNL     1      26.255   6.224  49.074  1.00  0.00     0.019 A 
HETATM   29  C17 UNL     1      25.250   6.071  50.011  1.00  0.00     0.013 A 
HETATM   30 BR1  UNL     1      24.128   7.542  50.515  1.00  0.00    -0.051 Br
HETATM   31  C18 UNL     1      25.068   4.818  50.598  1.00  0.00     0.048 A 
ENDBRANCH  23  25
ENDBRANCH   8  23
TORSDOF 7
ENDMDL
MODEL 2
REMARK VINA RESULT:      -8.0      3.243      5.141
REMARK  7 active torsions:
REMARK  status: ('A' for Active; 'I' for Inactive)
REMARK    1  A    between atoms: C1_2  and  N1_3 
REMARK    2  A    between atoms: C1_2  and  N3_12 
REMARK    3  A    between atoms: N1_3  and  C2_4 
REMARK    4  A    between atoms: C2_4  and  C3_5 
REMARK    5  A    between atoms: C3_5  and  N2_6 
REMARK    6  A    between atoms: C12_19  and  N6_20 
REMARK    7  A    between atoms: N6_20  and  C13_21 
ROOT
HETATM    1  N3  UNL     1      21.014   0.823  51.720  1.00  0.00    -0.354 N 
HETATM    2  C8  UNL     1      19.994   0.160  52.465  1.00  0.00     0.132 C 
HETATM    3  C9  UNL     1      20.289  -0.105  53.899  1.00  0.00     0.080 C 
HETATM    4  C10 UNL     1      21.740  -0.348  54.074  1.00  0.00     0.049 A 
HETATM    5  N4  UNL     1      22.027  -1.082  55.165  1.00  0.00    -0.246 NA
HETATM    6  C11 UNL     1      23.334  -1.358  55.432  1.00  0.00     0.235 A 
HETATM    7  N5  UNL     1      24.338  -0.924  54.648  1.00  0.00    -0.224 NA
HETATM    8  C12 UNL     1      24.107  -0.188  53.547  1.00  0.00     0.139 A 
HETATM    9  C19 UNL     1      22.761   0.101  53.263  1.00  0.00     0.030 A 
HETATM   10  C20 UNL     1      22.398   0.889  52.049  1.00  0.00     0.169 C 
ENDROOT
BRANCH   1  11
HETATM   11  C1  UNL     1      20.613   1.513  50.524  1.00  0.00     0.170 C 
HETATM   12  S1  UNL     1      21.296   1.150  49.085  1.00  0.00    -0.041 SA
BRANCH  11  13
HETATM   13  N1  UNL     1      19.592   2.538  50.548  1.00  0.00    -0.365 N 
HETATM   14  H1  UNL     1      18.770   2.370  49.913  1.00  0.00     0.161 HD
BRANCH  13  15
HETATM   15  C2  UNL     1      19.669   3.714  51.377  1.00  0.00     0.152 C 
BRANCH  15  16
HETATM   16  C3  UNL     1      20.125   4.898  50.582  1.00  0.00     0.292 C 
BRANCH  16  17
HETATM   17  N2  UNL     1      21.525   5.155  50.827  1.00  0.00     0.094 N 
HETATM   18  C4  UNL     1      21.962   4.650  52.104  1.00  0.00     0.298 C 
HETATM   19  C5  UNL     1      23.477   4.744  52.148  1.00  0.00     0.198 C 
HETATM   20  O1  UNL     1      23.934   6.033  51.855  1.00  0.00    -0.388 OA
HETATM   21  C6  UNL     1      23.484   6.457  50.600  1.00  0.00     0.198 C 
HETATM   22  C7  UNL     1      21.947   6.504  50.684  1.00  0.00     0.298 C 
ENDBRANCH  16  17
ENDBRANCH  15  16
ENDBRANCH  13  15
ENDBRANCH  11  13
ENDBRANCH   1  11
BRANCH   8  23
HETATM   23  N6  UNL     1      24.998   0.372  52.583  1.00  0.00    -0.340 N 
HETATM   24  H19 UNL     1      24.745   0.513  51.574  1.00  0.00     0.167 HD
BRANCH  23  25
HETATM   25  C13 UNL     1      26.319   0.766  53.019  1.00  0.00     0.035 A 
HETATM   26  C14 UNL     1      26.701   2.058  53.331  1.00  0.00     0.029 A 
HETATM   27  C15 UNL     1      28.007   2.303  53.704  1.00  0.00     0.004 A 
HETATM   28  C16 UNL     1      28.965   1.296  53.779  1.00  0.00     0.019 A 
HETATM   29  C17 UNL     1      28.601  -0.001  53.472  1.00  0.00     0.013 A 
HETATM   30 BR1  UNL     1      29.871  -1.435  53.546  1.00  0.00    -0.051 Br
HETATM   31  C18 UNL     1      27.281  -0.253  53.093  1.00  0.00     0.048 A 
ENDBRANCH  23  25
ENDBRANCH   8  23
TORSDOF 7
ENDMDL
MODEL 3
REMARK VINA RESULT:      -7.9      3.226      5.654
REMARK  7 active torsions:
REMARK  status: ('A' for Active; 'I' for Inactive)
REMARK    1  A    between atoms: C1_2  and  N1_3 
REMARK    2  A    between atoms: C1_2  and  N3_12 
REMARK    3  A    between atoms: N1_3  and  C2_4 
REMARK    4  A    between atoms: C2_4  and  C3_5 
REMARK    5  A    between atoms: C3_5  and  N2_6 
REMARK    6  A    between atoms: C12_19  and  N6_20 
REMARK    7  A    between atoms: N6_20  and  C13_21 
ROOT
HETATM    1  N3  UNL     1      21.242   0.895  51.571  1.00  0.00    -0.354 N 
HETATM    2  C8  UNL     1      20.158   0.329  52.305  1.00  0.00     0.132 C 
HETATM    3  C9  UNL     1      20.391   0.099  53.756  1.00  0.00     0.080 C 
HETATM    4  C10 UNL     1      21.816  -0.231  53.987  1.00  0.00     0.049 A 
HETATM    5  N4  UNL     1      22.021  -0.942  55.113  1.00  0.00    -0.246 NA
HETATM    6  C11 UNL     1      23.297  -1.292  55.432  1.00  0.00     0.235 A 
HETATM    7  N5  UNL     1      24.351  -0.956  54.666  1.00  0.00    -0.224 NA
HETATM    8  C12 UNL     1      24.204  -0.248  53.533  1.00  0.00     0.139 A 
HETATM    9  C19 UNL     1      22.889   0.119  53.194  1.00  0.00     0.030 A 
HETATM   10  C20 UNL     1      22.617   0.882  51.942  1.00  0.00     0.169 C 
ENDROOT
BRANCH   1  11
HETATM   11  C1  UNL     1      20.925   1.563  50.338  1.00  0.00     0.170 C 
HETATM   12  S1  UNL     1      19.371   1.840  49.915  1.00  0.00    -0.041 SA
BRANCH  11  13
HETATM   13  N1  UNL     1      21.961   2.021  49.438  1.00  0.00    -0.365 N 
HETATM   14  H1  UNL     1      22.560   1.264  49.018  1.00  0.00     0.161 HD
BRANCH  13  15
HETATM   15  C2  UNL     1      22.179   3.409  49.118  1.00  0.00     0.152 C 
BRANCH  15  16
HETATM   16  C3  UNL     1      23.033   4.068  50.156  1.00  0.00     0.292 C 
BRANCH  16  17
HETATM   17  N2  UNL     1      24.412   4.095  49.724  1.00  0.00     0.094 N 
HETATM   18  C4  UNL     1      25.207   3.077  50.362  1.00  0.00     0.298 C 
HETATM   19  C5  UNL     1      26.553   3.030  49.659  1.00  0.00     0.198 C 
HETATM   20  O1  UNL     1      27.165   4.286  49.608  1.00  0.00    -0.388 OA
HETATM   21  C6  UNL     1      26.345   5.223  48.968  1.00  0.00     0.198 C 
HETATM   22  C7  UNL     1      25.075   5.347  49.829  1.00  0.00     0.298 C 
ENDBRANCH  16  17
ENDBRANCH  15  16
ENDBRANCH  13  15
ENDBRANCH  11  13
ENDBRANCH   1  11
BRANCH   8  23
HETATM   23  N6  UNL     1      25.159   0.215  52.579  1.00  0.00    -0.340 N 
HETATM   24  H19 UNL     1      24.975   0.251  51.546  1.00  0.00     0.167 HD
BRANCH  23  25
HETATM   25  C13 UNL     1      26.448   0.660  53.062  1.00  0.00     0.035 A 
HETATM   26  C14 UNL     1      26.767   1.965  53.389  1.00  0.00     0.029 A 
HETATM   27  C15 UNL     1      28.049   2.260  53.806  1.00  0.00     0.004 A 
HETATM   28  C16 UNL     1      29.043   1.292  53.913  1.00  0.00     0.019 A 
HETATM   29  C17 UNL     1      28.741  -0.018  53.590  1.00  0.00     0.013 A 
HETATM   30 BR1  UNL     1      30.064  -1.401  53.705  1.00  0.00    -0.051 Br
HETATM   31  C18 UNL     1      27.446  -0.321  53.166  1.00  0.00     0.048 A 
ENDBRANCH  23  25
ENDBRANCH   8  23
TORSDOF 7
ENDMDL
MODEL 4
REMARK VINA RESULT:      -7.8      3.467      6.701
REMARK  7 active torsions:
REMARK  status: ('A' for Active; 'I' for Inactive)
REMARK    1  A    between atoms: C1_2  and  N1_3 
REMARK    2  A    between atoms: C1_2  and  N3_12 
REMARK    3  A    between atoms: N1_3  and  C2_4 
REMARK    4  A    between atoms: C2_4  and  C3_5 
REMARK    5  A    between atoms: C3_5  and  N2_6 
REMARK    6  A    between atoms: C12_19  and  N6_20 
REMARK    7  A    between atoms: N6_20  and  C13_21 
ROOT
HETATM    1  N3  UNL     1      23.091   3.724  52.139  1.00  0.00    -0.354 N 
HETATM    2  C8  UNL     1      21.671   3.610  52.078  1.00  0.00     0.132 C 
HETATM    3  C9  UNL     1      20.985   4.436  51.049  1.00  0.00     0.080 C 
HETATM    4  C10 UNL     1      21.729   5.702  50.848  1.00  0.00     0.049 A 
HETATM    5  N4  UNL     1      20.961   6.699  50.369  1.00  0.00    -0.246 NA
HETATM    6  C11 UNL     1      21.543   7.907  50.133  1.00  0.00     0.235 A 
HETATM    7  N5  UNL     1      22.849   8.135  50.362  1.00  0.00    -0.224 NA
HETATM    8  C12 UNL     1      23.661   7.176  50.841  1.00  0.00     0.139 A 
HETATM    9  C19 UNL     1      23.069   5.925  51.087  1.00  0.00     0.030 A 
HETATM   10  C20 UNL     1      23.879   4.803  51.643  1.00  0.00     0.169 C 
ENDROOT
BRANCH   1  11
HETATM   11  C1  UNL     1      23.814   2.638  52.744  1.00  0.00     0.170 C 
HETATM   12  S1  UNL     1      23.091   1.196  53.001  1.00  0.00    -0.041 SA
BRANCH  11  13
HETATM   13  N1  UNL     1      25.199   2.779  53.138  1.00  0.00    -0.365 N 
HETATM   14  H1  UNL     1      25.651   3.693  52.878  1.00  0.00     0.161 HD
BRANCH  13  15
HETATM   15  C2  UNL     1      25.932   1.757  53.841  1.00  0.00     0.152 C 
BRANCH  15  16
HETATM   16  C3  UNL     1      27.355   1.708  53.379  1.00  0.00     0.292 C 
BRANCH  16  17
HETATM   17  N2  UNL     1      27.760   0.339  53.151  1.00  0.00     0.094 N 
HETATM   18  C4  UNL     1      26.645  -0.573  53.168  1.00  0.00     0.298 C 
HETATM   19  C5  UNL     1      27.141  -1.921  52.671  1.00  0.00     0.198 C 
HETATM   20  O1  UNL     1      28.257  -2.368  53.384  1.00  0.00    -0.388 OA
HETATM   21  C6  UNL     1      29.304  -1.441  53.317  1.00  0.00     0.198 C 
HETATM   22  C7  UNL     1      28.789  -0.157  53.994  1.00  0.00     0.298 C 
ENDBRANCH  16  17
ENDBRANCH  15  16
ENDBRANCH  13  15
ENDBRANCH  11  13
ENDBRANCH   1  11
BRANCH   8  23
HETATM   23  N6  UNL     1      25.053   7.189  51.155  1.00  0.00    -0.340 N 
HETATM   24  H19 UNL     1      25.426   7.125  52.135  1.00  0.00     0.167 HD
BRANCH  23  25
HETATM   25  C13 UNL     1      26.000   7.294  50.067  1.00  0.00     0.035 A 
HETATM   26  C14 UNL     1      26.279   6.292  49.156  1.00  0.00     0.029 A 
HETATM   27  C15 UNL     1      27.232   6.512  48.183  1.00  0.00     0.004 A 
HETATM   28  C16 UNL     1      27.931   7.710  48.079  1.00  0.00     0.019 A 
HETATM   29  C17 UNL     1      27.665   8.724  48.980  1.00  0.00     0.013 A 
HETATM   30 BR1  UNL     1      28.597  10.397  48.900  1.00  0.00    -0.051 Br
HETATM   31  C18 UNL     1      26.702   8.505  49.967  1.00  0.00     0.048 A 
ENDBRANCH  23  25
ENDBRANCH   8  23
TORSDOF 7
ENDMDL
MODEL 5
REMARK VINA RESULT:      -7.6      5.368      8.359
REMARK  7 active torsions:
REMARK  status: ('A' for Active; 'I' for Inactive)
REMARK    1  A    between atoms: C1_2  and  N1_3 
REMARK    2  A    between atoms: C1_2  and  N3_12 
REMARK    3  A    between atoms: N1_3  and  C2_4 
REMARK    4  A    between atoms: C2_4  and  C3_5 
REMARK    5  A    between atoms: C3_5  and  N2_6 
REMARK    6  A    between atoms: C12_19  and  N6_20 
REMARK    7  A    between atoms: N6_20  and  C13_21 
ROOT
HETATM    1  N3  UNL     1      26.625   5.441  49.103  1.00  0.00    -0.354 N 
HETATM    2  C8  UNL     1      25.860   6.640  48.994  1.00  0.00     0.132 C 
HETATM    3  C9  UNL     1      26.225   7.559  47.883  1.00  0.00     0.080 C 
HETATM    4  C10 UNL     1      27.681   7.473  47.622  1.00  0.00     0.049 A 
HETATM    5  N4  UNL     1      28.183   8.581  47.044  1.00  0.00    -0.246 NA
HETATM    6  C11 UNL     1      29.511   8.609  46.747  1.00  0.00     0.235 A 
HETATM    7  N5  UNL     1      30.332   7.576  47.011  1.00  0.00    -0.224 NA
HETATM    8  C12 UNL     1      29.884   6.447  47.587  1.00  0.00     0.139 A 
HETATM    9  C19 UNL     1      28.513   6.408  47.898  1.00  0.00     0.030 A 
HETATM   10  C20 UNL     1      27.923   5.211  48.564  1.00  0.00     0.169 C 
ENDROOT
BRANCH   1  11
HETATM   11  C1  UNL     1      26.029   4.341  49.812  1.00  0.00     0.170 C 
HETATM   12  S1  UNL     1      24.466   3.937  49.561  1.00  0.00    -0.041 SA
BRANCH  11  13
HETATM   13  N1  UNL     1      26.788   3.553  50.758  1.00  0.00    -0.365 N 
HETATM   14  H1  UNL     1      27.657   4.013  51.134  1.00  0.00     0.161 HD
BRANCH  13  15
HETATM   15  C2  UNL     1      26.402   2.229  51.178  1.00  0.00     0.152 C 
BRANCH  15  16
HETATM   16  C3  UNL     1      26.229   2.170  52.663  1.00  0.00     0.292 C 
BRANCH  16  17
HETATM   17  N2  UNL     1      26.784   0.941  53.183  1.00  0.00     0.094 N 
HETATM   18  C4  UNL     1      28.048   1.146  53.844  1.00  0.00     0.298 C 
HETATM   19  C5  UNL     1      28.411  -0.142  54.563  1.00  0.00     0.198 C 
HETATM   20  O1  UNL     1      28.384  -1.248  53.709  1.00  0.00    -0.388 OA
HETATM   21  C6  UNL     1      27.127  -1.394  53.110  1.00  0.00     0.198 C 
HETATM   22  C7  UNL     1      26.903  -0.131  52.260  1.00  0.00     0.298 C 
ENDBRANCH  16  17
ENDBRANCH  15  16
ENDBRANCH  13  15
ENDBRANCH  11  13
ENDBRANCH   1  11
BRANCH   8  23
HETATM   23  N6  UNL     1      30.558   5.243  47.955  1.00  0.00    -0.340 N 
HETATM   24  H19 UNL     1      30.061   4.342  48.164  1.00  0.00     0.167 HD
BRANCH  23  25
HETATM   25  C13 UNL     1      32.001   5.267  48.042  1.00  0.00     0.035 A 
HETATM   26  C14 UNL     1      32.728   5.933  49.011  1.00  0.00     0.029 A 
HETATM   27  C15 UNL     1      34.107   5.901  48.959  1.00  0.00     0.004 A 
HETATM   28  C16 UNL     1      34.802   5.221  47.965  1.00  0.00     0.019 A 
HETATM   29  C17 UNL     1      34.092   4.549  46.988  1.00  0.00     0.013 A 
HETATM   30 BR1  UNL     1      34.986   3.600  45.583  1.00  0.00    -0.051 Br
HETATM   31  C18 UNL     1      32.697   4.579  47.036  1.00  0.00     0.048 A 
ENDBRANCH  23  25
ENDBRANCH   8  23
TORSDOF 7
ENDMDL
MODEL 6
REMARK VINA RESULT:      -7.5      2.910      5.896
REMARK  7 active torsions:
REMARK  status: ('A' for Active; 'I' for Inactive)
REMARK    1  A    between atoms: C1_2  and  N1_3 
REMARK    2  A    between atoms: C1_2  and  N3_12 
REMARK    3  A    between atoms: N1_3  and  C2_4 
REMARK    4  A    between atoms: C2_4  and  C3_5 
REMARK    5  A    between atoms: C3_5  and  N2_6 
REMARK    6  A    between atoms: C12_19  and  N6_20 
REMARK    7  A    between atoms: N6_20  and  C13_21 
ROOT
HETATM    1  N3  UNL     1      22.101   0.831  52.002  1.00  0.00    -0.354 N 
HETATM    2  C8  UNL     1      20.720   0.627  51.710  1.00  0.00     0.132 C 
HETATM    3  C9  UNL     1      20.335   0.662  50.274  1.00  0.00     0.080 C 
HETATM    4  C10 UNL     1      21.210   1.611  49.545  1.00  0.00     0.049 A 
HETATM    5  N4  UNL     1      20.646   2.099  48.424  1.00  0.00    -0.246 NA
HETATM    6  C11 UNL     1      21.365   2.973  47.667  1.00  0.00     0.235 A 
HETATM    7  N5  UNL     1      22.609   3.362  48.000  1.00  0.00    -0.224 NA
HETATM    8  C12 UNL     1      23.220   2.906  49.108  1.00  0.00     0.139 A 
HETATM    9  C19 UNL     1      22.485   2.003  49.896  1.00  0.00     0.030 A 
HETATM   10  C20 UNL     1      23.063   1.460  51.160  1.00  0.00     0.169 C 
ENDROOT
BRANCH   1  11
HETATM   11  C1  UNL     1      22.587   0.342  53.263  1.00  0.00     0.170 C 
HETATM   12  S1  UNL     1      21.566  -0.329  54.347  1.00  0.00    -0.041 SA
BRANCH  11  13
HETATM   13  N1  UNL     1      23.989   0.417  53.613  1.00  0.00    -0.365 N 
HETATM   14  H1  UNL     1      24.327   1.366  53.920  1.00  0.00     0.161 HD
BRANCH  13  15
HETATM   15  C2  UNL     1      24.882  -0.713  53.560  1.00  0.00     0.152 C 
BRANCH  15  16
HETATM   16  C3  UNL     1      26.048  -0.429  52.664  1.00  0.00     0.292 C 
BRANCH  16  17
HETATM   17  N2  UNL     1      27.048   0.337  53.372  1.00  0.00     0.094 N 
HETATM   18  C4  UNL     1      27.493   1.484  52.622  1.00  0.00     0.298 C 
HETATM   19  C5  UNL     1      28.338   2.344  53.546  1.00  0.00     0.198 C 
HETATM   20  O1  UNL     1      29.369   1.617  54.147  1.00  0.00    -0.388 OA
HETATM   21  C6  UNL     1      28.867   0.526  54.866  1.00  0.00     0.198 C 
HETATM   22  C7  UNL     1      28.176  -0.388  53.839  1.00  0.00     0.298 C 
ENDBRANCH  16  17
ENDBRANCH  15  16
ENDBRANCH  13  15
ENDBRANCH  11  13
ENDBRANCH   1  11
BRANCH   8  23
HETATM   23  N6  UNL     1      24.512   3.174  49.651  1.00  0.00    -0.340 N 
HETATM   24  H19 UNL     1      25.189   2.422  49.933  1.00  0.00     0.167 HD
BRANCH  23  25
HETATM   25  C13 UNL     1      24.910   4.554  49.821  1.00  0.00     0.035 A 
HETATM   26  C14 UNL     1      24.249   5.482  50.604  1.00  0.00     0.029 A 
HETATM   27  C15 UNL     1      24.717   6.778  50.652  1.00  0.00     0.004 A 
HETATM   28  C16 UNL     1      25.837   7.196  49.941  1.00  0.00     0.019 A 
HETATM   29  C17 UNL     1      26.512   6.282  49.153  1.00  0.00     0.013 A 
HETATM   30 BR1  UNL     1      28.056   6.791  48.139  1.00  0.00    -0.051 Br
HETATM   31  C18 UNL     1      26.041   4.969  49.101  1.00  0.00     0.048 A 
ENDBRANCH  23  25
ENDBRANCH   8  23
TORSDOF 7
ENDMDL
MODEL 7
REMARK VINA RESULT:      -7.4      5.106      8.098
REMARK  7 active torsions:
REMARK  status: ('A' for Active; 'I' for Inactive)
REMARK    1  A    between atoms: C1_2  and  N1_3 
REMARK    2  A    between atoms: C1_2  and  N3_12 
REMARK    3  A    between atoms: N1_3  and  C2_4 
REMARK    4  A    between atoms: C2_4  and  C3_5 
REMARK    5  A    between atoms: C3_5  and  N2_6 
REMARK    6  A    between atoms: C12_19  and  N6_20 
REMARK    7  A    between atoms: N6_20  and  C13_21 
ROOT
HETATM    1  N3  UNL     1      26.442   5.457  49.067  1.00  0.00    -0.354 N 
HETATM    2  C8  UNL     1      25.706   6.667  48.896  1.00  0.00     0.132 C 
HETATM    3  C9  UNL     1      26.134   7.548  47.777  1.00  0.00     0.080 C 
HETATM    4  C10 UNL     1      27.598   7.427  47.578  1.00  0.00     0.049 A 
HETATM    5  N4  UNL     1      28.145   8.509  46.991  1.00  0.00    -0.246 NA
HETATM    6  C11 UNL     1      29.484   8.503  46.747  1.00  0.00     0.235 A 
HETATM    7  N5  UNL     1      30.272   7.462  47.071  1.00  0.00    -0.224 NA
HETATM    8  C12 UNL     1      29.779   6.358  47.659  1.00  0.00     0.139 A 
HETATM    9  C19 UNL     1      28.396   6.354  47.915  1.00  0.00     0.030 A 
HETATM   10  C20 UNL     1      27.756   5.187  48.588  1.00  0.00     0.169 C 
ENDROOT
BRANCH   1  11
HETATM   11  C1  UNL     1      25.796   4.388  49.780  1.00  0.00     0.170 C 
HETATM   12  S1  UNL     1      24.278   3.926  49.394  1.00  0.00    -0.041 SA
BRANCH  11  13
HETATM   13  N1  UNL     1      26.465   3.682  50.852  1.00  0.00    -0.365 N 
HETATM   14  H1  UNL     1      27.439   4.016  51.072  1.00  0.00     0.161 HD
BRANCH  13  15
HETATM   15  C2  UNL     1      25.863   2.597  51.584  1.00  0.00     0.152 C 
BRANCH  15  16
HETATM   16  C3  UNL     1      26.662   1.341  51.431  1.00  0.00     0.292 C 
BRANCH  16  17
HETATM   17  N2  UNL     1      26.684   0.607  52.675  1.00  0.00     0.094 N 
HETATM   18  C4  UNL     1      25.361   0.332  53.175  1.00  0.00     0.298 C 
HETATM   19  C5  UNL     1      25.494  -0.646  54.329  1.00  0.00     0.198 C 
HETATM   20  O1  UNL     1      26.391  -0.196  55.302  1.00  0.00    -0.388 OA
HETATM   21  C6  UNL     1      27.657   0.041  54.752  1.00  0.00     0.198 C 
HETATM   22  C7  UNL     1      27.475   1.164  53.715  1.00  0.00     0.298 C 
ENDBRANCH  16  17
ENDBRANCH  15  16
ENDBRANCH  13  15
ENDBRANCH  11  13
ENDBRANCH   1  11
BRANCH   8  23
HETATM   23  N6  UNL     1      30.413   5.152  48.085  1.00  0.00    -0.340 N 
HETATM   24  H19 UNL     1      29.964   4.461  48.735  1.00  0.00     0.167 HD
BRANCH  23  25
HETATM   25  C13 UNL     1      31.743   4.868  47.595  1.00  0.00     0.035 A 
HETATM   26  C14 UNL     1      32.047   3.957  46.600  1.00  0.00     0.029 A 
HETATM   27  C15 UNL     1      33.366   3.757  46.250  1.00  0.00     0.004 A 
HETATM   28  C16 UNL     1      34.414   4.440  46.859  1.00  0.00     0.019 A 
HETATM   29  C17 UNL     1      34.129   5.356  47.854  1.00  0.00     0.013 A 
HETATM   30 BR1  UNL     1      35.525   6.325  48.743  1.00  0.00    -0.051 Br
HETATM   31  C18 UNL     1      32.796   5.560  48.213  1.00  0.00     0.048 A 
ENDBRANCH  23  25
ENDBRANCH   8  23
TORSDOF 7
ENDMDL
MODEL 8
REMARK VINA RESULT:      -7.2      4.734      8.552
REMARK  7 active torsions:
REMARK  status: ('A' for Active; 'I' for Inactive)
REMARK    1  A    between atoms: C1_2  and  N1_3 
REMARK    2  A    between atoms: C1_2  and  N3_12 
REMARK    3  A    between atoms: N1_3  and  C2_4 
REMARK    4  A    between atoms: C2_4  and  C3_5 
REMARK    5  A    between atoms: C3_5  and  N2_6 
REMARK    6  A    between atoms: C12_19  and  N6_20 
REMARK    7  A    between atoms: N6_20  and  C13_21 
ROOT
HETATM    1  N3  UNL     1      25.152   5.823  49.054  1.00  0.00    -0.354 N 
HETATM    2  C8  UNL     1      23.862   5.690  48.459  1.00  0.00     0.132 C 
HETATM    3  C9  UNL     1      22.849   4.933  49.242  1.00  0.00     0.080 C 
HETATM    4  C10 UNL     1      23.517   3.871  50.030  1.00  0.00     0.049 A 
HETATM    5  N4  UNL     1      22.701   2.845  50.337  1.00  0.00    -0.246 NA
HETATM    6  C11 UNL     1      23.205   1.815  51.070  1.00  0.00     0.235 A 
HETATM    7  N5  UNL     1      24.482   1.789  51.494  1.00  0.00    -0.224 NA
HETATM    8  C12 UNL     1      25.340   2.787  51.216  1.00  0.00     0.139 A 
HETATM    9  C19 UNL     1      24.827   3.855  50.459  1.00  0.00     0.030 A 
HETATM   10  C20 UNL     1      25.706   4.997  50.074  1.00  0.00     0.169 C 
ENDROOT
BRANCH   1  11
HETATM   11  C1  UNL     1      25.980   6.906  48.597  1.00  0.00     0.170 C 
HETATM   12  S1  UNL     1      25.490   7.870  47.372  1.00  0.00    -0.041 SA
BRANCH  11  13
HETATM   13  N1  UNL     1      27.262   7.186  49.206  1.00  0.00    -0.365 N 
HETATM   14  H1  UNL     1      27.753   6.355  49.624  1.00  0.00     0.161 HD
BRANCH  13  15
HETATM   15  C2  UNL     1      27.850   8.502  49.248  1.00  0.00     0.152 C 
BRANCH  15  16
HETATM   16  C3  UNL     1      29.017   8.593  48.315  1.00  0.00     0.292 C 
BRANCH  16  17
HETATM   17  N2  UNL     1      29.911   7.477  48.521  1.00  0.00     0.094 N 
HETATM   18  C4  UNL     1      31.108   7.854  49.229  1.00  0.00     0.298 C 
HETATM   19  C5  UNL     1      31.844   6.581  49.611  1.00  0.00     0.198 C 
HETATM   20  O1  UNL     1      32.068   5.752  48.508  1.00  0.00    -0.388 OA
HETATM   21  C6  UNL     1      30.866   5.415  47.875  1.00  0.00     0.198 C 
HETATM   22  C7  UNL     1      30.263   6.736  47.362  1.00  0.00     0.298 C 
ENDBRANCH  16  17
ENDBRANCH  15  16
ENDBRANCH  13  15
ENDBRANCH  11  13
ENDBRANCH   1  11
BRANCH   8  23
HETATM   23  N6  UNL     1      26.714   2.972  51.555  1.00  0.00    -0.340 N 
HETATM   24  H19 UNL     1      27.295   3.770  51.200  1.00  0.00     0.167 HD
BRANCH  23  25
HETATM   25  C13 UNL     1      27.337   2.008  52.435  1.00  0.00     0.035 A 
HETATM   26  C14 UNL     1      28.198   2.319  53.471  1.00  0.00     0.029 A 
HETATM   27  C15 UNL     1      28.752   1.298  54.216  1.00  0.00     0.004 A 
HETATM   28  C16 UNL     1      28.479  -0.044  53.966  1.00  0.00     0.019 A 
HETATM   29  C17 UNL     1      27.620  -0.373  52.934  1.00  0.00     0.013 A 
HETATM   30 BR1  UNL     1      27.207  -2.200  52.528  1.00  0.00    -0.051 Br
HETATM   31  C18 UNL     1      27.058   0.657  52.177  1.00  0.00     0.048 A 
ENDBRANCH  23  25
ENDBRANCH   8  23
TORSDOF 7
ENDMDL
MODEL 9
REMARK VINA RESULT:      -7.2      5.229      9.283
REMARK  7 active torsions:
REMARK  status: ('A' for Active; 'I' for Inactive)
REMARK    1  A    between atoms: C1_2  and  N1_3 
REMARK    2  A    between atoms: C1_2  and  N3_12 
REMARK    3  A    between atoms: N1_3  and  C2_4 
REMARK    4  A    between atoms: C2_4  and  C3_5 
REMARK    5  A    between atoms: C3_5  and  N2_6 
REMARK    6  A    between atoms: C12_19  and  N6_20 
REMARK    7  A    between atoms: N6_20  and  C13_21 
ROOT
HETATM    1  N3  UNL     1      26.235   6.656  49.148  1.00  0.00    -0.354 N 
HETATM    2  C8  UNL     1      25.522   7.884  49.286  1.00  0.00     0.132 C 
HETATM    3  C9  UNL     1      24.493   7.934  50.358  1.00  0.00     0.080 C 
HETATM    4  C10 UNL     1      23.885   6.593  50.530  1.00  0.00     0.049 A 
HETATM    5  N4  UNL     1      22.648   6.636  51.060  1.00  0.00    -0.246 NA
HETATM    6  C11 UNL     1      21.996   5.460  51.274  1.00  0.00     0.235 A 
HETATM    7  N5  UNL     1      22.543   4.267  50.975  1.00  0.00    -0.224 NA
HETATM    8  C12 UNL     1      23.775   4.167  50.445  1.00  0.00     0.139 A 
HETATM    9  C19 UNL     1      24.455   5.377  50.220  1.00  0.00     0.030 A 
HETATM   10  C20 UNL     1      25.817   5.375  49.610  1.00  0.00     0.169 C 
ENDROOT
BRANCH   1  11
HETATM   11  C1  UNL     1      27.515   6.706  48.494  1.00  0.00     0.170 C 
HETATM   12  S1  UNL     1      27.820   7.828  47.347  1.00  0.00    -0.041 SA
BRANCH  11  13
HETATM   13  N1  UNL     1      28.573   5.779  48.831  1.00  0.00    -0.365 N 
HETATM   14  H1  UNL     1      28.405   5.197  49.692  1.00  0.00     0.161 HD
BRANCH  13  15
HETATM   15  C2  UNL     1      29.781   5.639  48.059  1.00  0.00     0.152 C 
BRANCH  15  16
HETATM   16  C3  UNL     1      30.979   6.032  48.866  1.00  0.00     0.292 C 
BRANCH  16  17
HETATM   17  N2  UNL     1      32.110   5.203  48.519  1.00  0.00     0.094 N 
HETATM   18  C4  UNL     1      33.287   5.978  48.216  1.00  0.00     0.298 C 
HETATM   19  C5  UNL     1      34.462   5.019  48.117  1.00  0.00     0.198 C 
HETATM   20  O1  UNL     1      34.217   3.976  47.220  1.00  0.00    -0.388 OA
HETATM   21  C6  UNL     1      33.069   3.259  47.578  1.00  0.00     0.198 C 
HETATM   22  C7  UNL     1      31.894   4.251  47.488  1.00  0.00     0.298 C 
ENDBRANCH  16  17
ENDBRANCH  15  16
ENDBRANCH  13  15
ENDBRANCH  11  13
ENDBRANCH   1  11
BRANCH   8  23
HETATM   23  N6  UNL     1      24.545   3.030  50.055  1.00  0.00    -0.340 N 
HETATM   24  H19 UNL     1      24.755   2.789  49.055  1.00  0.00     0.167 HD
BRANCH  23  25
HETATM   25  C13 UNL     1      25.063   2.166  51.092  1.00  0.00     0.035 A 
HETATM   26  C14 UNL     1      26.401   2.012  51.403  1.00  0.00     0.029 A 
HETATM   27  C15 UNL     1      26.764   1.126  52.397  1.00  0.00     0.004 A 
HETATM   28  C16 UNL     1      25.832   0.375  53.106  1.00  0.00     0.019 A 
HETATM   29  C17 UNL     1      24.490   0.517  52.809  1.00  0.00     0.013 A 
HETATM   30 BR1  UNL     1      23.153  -0.494  53.739  1.00  0.00    -0.051 Br
HETATM   31  C18 UNL     1      24.118   1.411  51.803  1.00  0.00     0.048 A 
ENDBRANCH  23  25
ENDBRANCH   8  23
TORSDOF 7
ENDMDL
