MODEL 1
REMARK VINA RESULT:      -7.4      0.000      0.000
REMARK  1 active torsions:
REMARK  status: ('A' for Active; 'I' for Inactive)
REMARK    1  A    between atoms: C3_3  and  C4_4 
ROOT
HETATM    1  C4  UNL     1      24.682  -0.598  54.118  1.00  0.00     0.009 C 
HETATM    2  C5  UNL     1      23.829  -0.157  53.234  1.00  0.00    -0.027 C 
HETATM    3  C6  UNL     1      23.998   1.156  52.629  1.00  0.00    -0.051 A 
HETATM    4  C7  UNL     1      24.235   2.487  52.656  1.00  0.00     0.001 A 
HETATM    5  C8  UNL     1      23.682   3.786  53.163  1.00  0.00     0.044 C 
HETATM    6  C9  UNL     1      22.864   4.043  51.832  1.00  0.00    -0.000 C 
HETATM    7  C10 UNL     1      22.918   2.789  51.228  1.00  0.00     0.010 C 
HETATM    8  N1  UNL     1      21.688   2.458  50.501  1.00  0.00    -0.389 N 
HETATM    9  C11 UNL     1      21.211   1.079  50.698  1.00  0.00     0.147 C 
HETATM   10  C12 UNL     1      20.797   0.986  52.122  1.00  0.00     0.008 C 
HETATM   11  C13 UNL     1      21.419   0.146  52.949  1.00  0.00     0.035 C 
HETATM   12  C14 UNL     1      21.549  -0.425  54.312  1.00  0.00     0.250 C 
HETATM   13  O1  UNL     1      21.373   0.188  55.435  1.00  0.00    -0.268 OA
HETATM   14  N2  UNL     1      21.880  -1.650  53.616  1.00  0.00    -0.344 N 
HETATM   15  C15 UNL     1      22.578  -0.754  52.677  1.00  0.00     0.157 C 
HETATM   16  C16 UNL     1      23.914   1.638  51.137  1.00  0.00     0.066 A 
HETATM   17  C17 UNL     1      25.302   2.082  51.662  1.00  0.00     0.031 A 
HETATM   18  H10 UNL     1      21.226   3.179  49.905  1.00  0.00     0.159 HD
HETATM   19  H14 UNL     1      21.452  -2.478  54.134  1.00  0.00     0.163 HD
ENDROOT
BRANCH   1  20
HETATM   20  C3  UNL     1      25.847   0.051  54.632  1.00  0.00    -0.004 C 
HETATM   21  C2  UNL     1      27.005  -0.161  54.081  1.00  0.00    -0.031 C 
HETATM   22  C1  UNL     1      27.368  -1.008  52.936  1.00  0.00     0.036 C 
ENDBRANCH   1  20
TORSDOF 1
ENDMDL
MODEL 2
REMARK VINA RESULT:      -7.3      2.571      4.259
REMARK  1 active torsions:
REMARK  status: ('A' for Active; 'I' for Inactive)
REMARK    1  A    between atoms: C3_3  and  C4_4 
ROOT
HETATM    1  C4  UNL     1      23.810   0.372  53.353  1.00  0.00     0.009 C 
HETATM    2  C5  UNL     1      23.597   1.560  52.857  1.00  0.00    -0.027 C 
HETATM    3  C6  UNL     1      22.547   1.777  51.872  1.00  0.00    -0.051 A 
HETATM    4  C7  UNL     1      21.855   1.488  50.747  1.00  0.00     0.001 A 
HETATM    5  C8  UNL     1      21.989   1.391  49.257  1.00  0.00     0.044 C 
HETATM    6  C9  UNL     1      21.543   2.895  49.044  1.00  0.00    -0.000 C 
HETATM    7  C10 UNL     1      21.644   3.399  50.339  1.00  0.00     0.010 C 
HETATM    8  N1  UNL     1      22.098   4.793  50.368  1.00  0.00    -0.389 N 
HETATM    9  C11 UNL     1      23.109   5.089  51.398  1.00  0.00     0.147 C 
HETATM   10  C12 UNL     1      24.331   4.344  51.000  1.00  0.00     0.008 C 
HETATM   11  C13 UNL     1      24.822   3.388  51.788  1.00  0.00     0.035 C 
HETATM   12  C14 UNL     1      25.859   2.355  52.030  1.00  0.00     0.250 C 
HETATM   13  O1  UNL     1      26.440   1.610  51.151  1.00  0.00    -0.268 OA
HETATM   14  N2  UNL     1      25.713   2.735  53.419  1.00  0.00    -0.344 N 
HETATM   15  C15 UNL     1      24.285   2.867  53.080  1.00  0.00     0.157 C 
HETATM   16  C16 UNL     1      21.434   2.879  51.757  1.00  0.00     0.066 A 
HETATM   17  C17 UNL     1      20.703   1.515  51.729  1.00  0.00     0.031 A 
HETATM   18  H10 UNL     1      21.705   5.483  49.692  1.00  0.00     0.159 HD
HETATM   19  H14 UNL     1      26.669   2.718  53.893  1.00  0.00     0.163 HD
ENDROOT
BRANCH   1  20
HETATM   20  C3  UNL     1      23.127  -0.849  53.062  1.00  0.00    -0.004 C 
HETATM   21  C2  UNL     1      22.101  -1.206  53.776  1.00  0.00    -0.031 C 
HETATM   22  C1  UNL     1      21.459  -0.531  54.914  1.00  0.00     0.036 C 
ENDBRANCH   1  20
TORSDOF 1
ENDMDL
MODEL 3
REMARK VINA RESULT:      -7.3      2.079      4.243
REMARK  1 active torsions:
REMARK  status: ('A' for Active; 'I' for Inactive)
REMARK    1  A    between atoms: C3_3  and  C4_4 
ROOT
HETATM    1  C4  UNL     1      22.377   0.205  52.106  1.00  0.00     0.009 C 
HETATM    2  C5  UNL     1      23.309   0.981  51.625  1.00  0.00    -0.027 C 
HETATM    3  C6  UNL     1      24.651   0.968  52.189  1.00  0.00    -0.051 A 
HETATM    4  C7  UNL     1      25.545   0.988  53.203  1.00  0.00     0.001 A 
HETATM    5  C8  UNL     1      26.055   1.841  54.327  1.00  0.00     0.044 C 
HETATM    6  C9  UNL     1      27.187   2.482  53.426  1.00  0.00    -0.000 C 
HETATM    7  C10 UNL     1      26.772   2.106  52.151  1.00  0.00     0.010 C 
HETATM    8  N1  UNL     1      27.056   3.131  51.140  1.00  0.00    -0.389 N 
HETATM    9  C11 UNL     1      25.962   3.369  50.184  1.00  0.00     0.147 C 
HETATM   10  C12 UNL     1      24.852   3.969  50.969  1.00  0.00     0.008 C 
HETATM   11  C13 UNL     1      23.685   3.335  51.076  1.00  0.00     0.035 C 
HETATM   12  C14 UNL     1      22.302   3.309  51.613  1.00  0.00     0.250 C 
HETATM   13  O1  UNL     1      21.898   3.762  52.752  1.00  0.00    -0.268 OA
HETATM   14  N2  UNL     1      21.978   2.656  50.362  1.00  0.00    -0.344 N 
HETATM   15  C15 UNL     1      23.287   2.002  50.535  1.00  0.00     0.157 C 
HETATM   16  C16 UNL     1      26.068   0.913  51.515  1.00  0.00     0.066 A 
HETATM   17  C17 UNL     1      26.011  -0.273  52.508  1.00  0.00     0.031 A 
HETATM   18  H10 UNL     1      27.976   3.622  51.141  1.00  0.00     0.159 HD
HETATM   19  H14 UNL     1      21.027   2.998  50.021  1.00  0.00     0.163 HD
ENDROOT
BRANCH   1  20
HETATM   20  C3  UNL     1      22.465  -0.729  53.184  1.00  0.00    -0.004 C 
HETATM   21  C2  UNL     1      21.722  -0.576  54.240  1.00  0.00    -0.031 C 
HETATM   22  C1  UNL     1      20.726   0.458  54.553  1.00  0.00     0.036 C 
ENDBRANCH   1  20
TORSDOF 1
ENDMDL
MODEL 4
REMARK VINA RESULT:      -7.1      1.965      4.379
REMARK  1 active torsions:
REMARK  status: ('A' for Active; 'I' for Inactive)
REMARK    1  A    between atoms: C3_3  and  C4_4 
ROOT
HETATM    1  C4  UNL     1      23.172   3.268  51.867  1.00  0.00     0.009 C 
HETATM    2  C5  UNL     1      23.312   2.216  52.626  1.00  0.00    -0.027 C 
HETATM    3  C6  UNL     1      24.627   1.634  52.853  1.00  0.00    -0.051 A 
HETATM    4  C7  UNL     1      25.838   1.173  52.466  1.00  0.00     0.001 A 
HETATM    5  C8  UNL     1      26.500   0.104  51.647  1.00  0.00     0.044 C 
HETATM    6  C9  UNL     1      26.615  -0.877  52.884  1.00  0.00    -0.000 C 
HETATM    7  C10 UNL     1      25.758  -0.270  53.799  1.00  0.00     0.010 C 
HETATM    8  N1  UNL     1      25.031  -1.242  54.622  1.00  0.00    -0.389 N 
HETATM    9  C11 UNL     1      23.603  -0.937  54.814  1.00  0.00     0.147 C 
HETATM   10  C12 UNL     1      22.968  -1.084  53.479  1.00  0.00     0.008 C 
HETATM   11  C13 UNL     1      22.395  -0.036  52.889  1.00  0.00     0.035 C 
HETATM   12  C14 UNL     1      21.660   0.516  51.723  1.00  0.00     0.250 C 
HETATM   13  O1  UNL     1      21.801   0.185  50.483  1.00  0.00    -0.268 OA
HETATM   14  N2  UNL     1      20.991   1.335  52.712  1.00  0.00    -0.344 N 
HETATM   15  C15 UNL     1      22.315   1.379  53.357  1.00  0.00     0.157 C 
HETATM   16  C16 UNL     1      25.344   1.151  54.164  1.00  0.00     0.066 A 
HETATM   17  C17 UNL     1      26.293   2.179  53.501  1.00  0.00     0.031 A 
HETATM   18  H10 UNL     1      25.532  -2.066  55.019  1.00  0.00     0.159 HD
HETATM   19  H14 UNL     1      19.963   1.441  52.445  1.00  0.00     0.163 HD
ENDROOT
BRANCH   1  20
HETATM   20  C3  UNL     1      24.180   4.000  51.165  1.00  0.00    -0.004 C 
HETATM   21  C2  UNL     1      24.305   3.864  49.879  1.00  0.00    -0.031 C 
HETATM   22  C1  UNL     1      23.542   3.034  48.936  1.00  0.00     0.036 C 
ENDBRANCH   1  20
TORSDOF 1
ENDMDL
MODEL 5
REMARK VINA RESULT:      -7.1      2.481      3.640
REMARK  1 active torsions:
REMARK  status: ('A' for Active; 'I' for Inactive)
REMARK    1  A    between atoms: C3_3  and  C4_4 
ROOT
HETATM    1  C4  UNL     1      20.352   0.553  53.223  1.00  0.00     0.009 C 
HETATM    2  C5  UNL     1      20.850   1.035  52.118  1.00  0.00    -0.027 C 
HETATM    3  C6  UNL     1      22.191   1.600  52.092  1.00  0.00    -0.051 A 
HETATM    4  C7  UNL     1      23.193   2.380  52.557  1.00  0.00     0.001 A 
HETATM    5  C8  UNL     1      23.570   3.810  52.811  1.00  0.00     0.044 C 
HETATM    6  C9  UNL     1      24.222   3.971  51.378  1.00  0.00    -0.000 C 
HETATM    7  C10 UNL     1      23.737   2.841  50.725  1.00  0.00     0.010 C 
HETATM    8  N1  UNL     1      23.455   3.085  49.306  1.00  0.00    -0.389 N 
HETATM    9  C11 UNL     1      22.190   2.506  48.823  1.00  0.00     0.147 C 
HETATM   10  C12 UNL     1      21.106   3.249  49.516  1.00  0.00     0.008 C 
HETATM   11  C13 UNL     1      20.274   2.612  50.338  1.00  0.00     0.035 C 
HETATM   12  C14 UNL     1      19.111   2.669  51.258  1.00  0.00     0.250 C 
HETATM   13  O1  UNL     1      18.791   3.634  52.053  1.00  0.00    -0.268 OA
HETATM   14  N2  UNL     1      18.811   1.353  50.734  1.00  0.00    -0.344 N 
HETATM   15  C15 UNL     1      20.274   1.176  50.747  1.00  0.00     0.157 C 
HETATM   16  C16 UNL     1      23.389   1.403  51.095  1.00  0.00     0.066 A 
HETATM   17  C17 UNL     1      23.932   1.061  52.504  1.00  0.00     0.031 A 
HETATM   18  H10 UNL     1      24.130   3.632  48.728  1.00  0.00     0.159 HD
HETATM   19  H14 UNL     1      17.754   1.248  50.627  1.00  0.00     0.163 HD
ENDROOT
BRANCH   1  20
HETATM   20  C3  UNL     1      20.956   0.485  54.517  1.00  0.00    -0.004 C 
HETATM   21  C2  UNL     1      21.554  -0.605  54.898  1.00  0.00    -0.031 C 
HETATM   22  C1  UNL     1      21.741  -1.879  54.189  1.00  0.00     0.036 C 
ENDBRANCH   1  20
TORSDOF 1
ENDMDL
MODEL 6
REMARK VINA RESULT:      -7.0     11.839     13.700
REMARK  1 active torsions:
REMARK  status: ('A' for Active; 'I' for Inactive)
REMARK    1  A    between atoms: C3_3  and  C4_4 
ROOT
HETATM    1  C4  UNL     1      31.913   7.002  45.217  1.00  0.00     0.009 C 
HETATM    2  C5  UNL     1      32.559   6.048  45.829  1.00  0.00    -0.027 C 
HETATM    3  C6  UNL     1      33.195   6.287  47.116  1.00  0.00    -0.051 A 
HETATM    4  C7  UNL     1      33.964   6.985  47.983  1.00  0.00     0.001 A 
HETATM    5  C8  UNL     1      35.367   7.460  48.216  1.00  0.00     0.044 C 
HETATM    6  C9  UNL     1      35.745   6.168  49.049  1.00  0.00    -0.000 C 
HETATM    7  C10 UNL     1      34.683   5.321  48.744  1.00  0.00     0.010 C 
HETATM    8  N1  UNL     1      35.092   3.915  48.646  1.00  0.00    -0.389 N 
HETATM    9  C11 UNL     1      34.510   3.185  47.506  1.00  0.00     0.147 C 
HETATM   10  C12 UNL     1      35.098   3.793  46.285  1.00  0.00     0.008 C 
HETATM   11  C13 UNL     1      34.316   4.402  45.395  1.00  0.00     0.035 C 
HETATM   12  C14 UNL     1      34.192   5.140  44.113  1.00  0.00     0.250 C 
HETATM   13  O1  UNL     1      35.028   5.988  43.616  1.00  0.00    -0.268 OA
HETATM   14  N2  UNL     1      32.939   4.426  43.985  1.00  0.00    -0.344 N 
HETATM   15  C15 UNL     1      32.842   4.633  45.441  1.00  0.00     0.157 C 
HETATM   16  C16 UNL     1      33.193   5.462  48.452  1.00  0.00     0.066 A 
HETATM   17  C17 UNL     1      32.704   6.885  48.817  1.00  0.00     0.031 A 
HETATM   18  H10 UNL     1      35.743   3.512  49.353  1.00  0.00     0.159 HD
HETATM   19  H14 UNL     1      32.791   4.152  42.965  1.00  0.00     0.163 HD
ENDROOT
BRANCH   1  20
HETATM   20  C3  UNL     1      31.713   8.353  45.639  1.00  0.00    -0.004 C 
HETATM   21  C2  UNL     1      30.603   8.694  46.222  1.00  0.00    -0.031 C 
HETATM   22  C1  UNL     1      29.424   7.885  46.560  1.00  0.00     0.036 C 
ENDBRANCH   1  20
TORSDOF 1
ENDMDL
MODEL 7
REMARK VINA RESULT:      -6.9      2.581      4.216
REMARK  1 active torsions:
REMARK  status: ('A' for Active; 'I' for Inactive)
REMARK    1  A    between atoms: C3_3  and  C4_4 
ROOT
HETATM    1  C4  UNL     1      24.563   1.961  53.068  1.00  0.00     0.009 C 
HETATM    2  C5  UNL     1      23.532   2.609  52.600  1.00  0.00    -0.027 C 
HETATM    3  C6  UNL     1      22.287   1.914  52.308  1.00  0.00    -0.051 A 
HETATM    4  C7  UNL     1      21.547   0.912  51.781  1.00  0.00     0.001 A 
HETATM    5  C8  UNL     1      21.159   0.275  50.479  1.00  0.00     0.044 C 
HETATM    6  C9  UNL     1      19.877   1.191  50.328  1.00  0.00    -0.000 C 
HETATM    7  C10 UNL     1      20.125   2.175  51.282  1.00  0.00     0.010 C 
HETATM    8  N1  UNL     1      19.646   3.498  50.867  1.00  0.00    -0.389 N 
HETATM    9  C11 UNL     1      20.579   4.603  51.145  1.00  0.00     0.147 C 
HETATM   10  C12 UNL     1      21.755   4.379  50.266  1.00  0.00     0.008 C 
HETATM   11  C13 UNL     1      22.958   4.158  50.796  1.00  0.00     0.035 C 
HETATM   12  C14 UNL     1      24.403   3.890  50.591  1.00  0.00     0.250 C 
HETATM   13  O1  UNL     1      24.940   3.184  49.653  1.00  0.00    -0.268 OA
HETATM   14  N2  UNL     1      24.579   4.706  51.774  1.00  0.00    -0.344 N 
HETATM   15  C15 UNL     1      23.344   4.045  52.234  1.00  0.00     0.157 C 
HETATM   16  C16 UNL     1      20.794   2.257  52.650  1.00  0.00     0.066 A 
HETATM   17  C17 UNL     1      21.054   0.837  53.210  1.00  0.00     0.031 A 
HETATM   18  H10 UNL     1      18.711   3.595  50.416  1.00  0.00     0.159 HD
HETATM   19  H14 UNL     1      25.452   5.307  51.661  1.00  0.00     0.163 HD
ENDROOT
BRANCH   1  20
HETATM   20  C3  UNL     1      24.680   0.567  53.363  1.00  0.00    -0.004 C 
HETATM   21  C2  UNL     1      25.639  -0.132  52.833  1.00  0.00    -0.031 C 
HETATM   22  C1  UNL     1      26.713   0.278  51.917  1.00  0.00     0.036 C 
ENDBRANCH   1  20
TORSDOF 1
ENDMDL
MODEL 8
REMARK VINA RESULT:      -6.7      2.885      4.624
REMARK  1 active torsions:
REMARK  status: ('A' for Active; 'I' for Inactive)
REMARK    1  A    between atoms: C3_3  and  C4_4 
ROOT
HETATM    1  C4  UNL     1      23.671   2.243  52.683  1.00  0.00     0.009 C 
HETATM    2  C5  UNL     1      22.666   2.836  52.099  1.00  0.00    -0.027 C 
HETATM    3  C6  UNL     1      21.992   2.213  50.969  1.00  0.00    -0.051 A 
HETATM    4  C7  UNL     1      21.949   1.574  49.777  1.00  0.00     0.001 A 
HETATM    5  C8  UNL     1      22.294   1.734  48.326  1.00  0.00     0.044 C 
HETATM    6  C9  UNL     1      20.865   2.314  47.973  1.00  0.00    -0.000 C 
HETATM    7  C10 UNL     1      20.362   2.603  49.239  1.00  0.00     0.010 C 
HETATM    8  N1  UNL     1      19.527   3.808  49.254  1.00  0.00    -0.389 N 
HETATM    9  C11 UNL     1      19.767   4.708  50.394  1.00  0.00     0.147 C 
HETATM   10  C12 UNL     1      21.138   5.251  50.209  1.00  0.00     0.008 C 
HETATM   11  C13 UNL     1      22.088   4.996  51.107  1.00  0.00     0.035 C 
HETATM   12  C14 UNL     1      23.495   5.168  51.546  1.00  0.00     0.250 C 
HETATM   13  O1  UNL     1      24.544   5.239  50.796  1.00  0.00    -0.268 OA
HETATM   14  N2  UNL     1      22.931   5.180  52.879  1.00  0.00    -0.344 N 
HETATM   15  C15 UNL     1      22.015   4.158  52.340  1.00  0.00     0.157 C 
HETATM   16  C16 UNL     1      20.469   2.014  50.641  1.00  0.00     0.066 A 
HETATM   17  C17 UNL     1      21.114   0.607  50.589  1.00  0.00     0.031 A 
HETATM   18  H10 UNL     1      18.831   3.968  48.493  1.00  0.00     0.159 HD
HETATM   19  H14 UNL     1      23.456   5.888  53.479  1.00  0.00     0.163 HD
ENDROOT
BRANCH   1  20
HETATM   20  C3  UNL     1      24.266   0.982  52.369  1.00  0.00    -0.004 C 
HETATM   21  C2  UNL     1      23.848  -0.098  52.959  1.00  0.00    -0.031 C 
HETATM   22  C1  UNL     1      22.792  -0.279  53.965  1.00  0.00     0.036 C 
ENDBRANCH   1  20
TORSDOF 1
ENDMDL
MODEL 9
REMARK VINA RESULT:      -6.5      2.385      4.670
REMARK  1 active torsions:
REMARK  status: ('A' for Active; 'I' for Inactive)
REMARK    1  A    between atoms: C3_3  and  C4_4 
ROOT
HETATM    1  C4  UNL     1      23.796   3.396  49.532  1.00  0.00     0.009 C 
HETATM    2  C5  UNL     1      22.952   2.884  50.385  1.00  0.00    -0.027 C 
HETATM    3  C6  UNL     1      23.427   2.178  51.566  1.00  0.00    -0.051 A 
HETATM    4  C7  UNL     1      24.203   1.285  52.221  1.00  0.00     0.001 A 
HETATM    5  C8  UNL     1      24.499  -0.181  52.332  1.00  0.00     0.044 C 
HETATM    6  C9  UNL     1      23.435  -0.384  53.487  1.00  0.00    -0.000 C 
HETATM    7  C10 UNL     1      22.713   0.804  53.411  1.00  0.00     0.010 C 
HETATM    8  N1  UNL     1      21.287   0.618  53.700  1.00  0.00    -0.389 N 
HETATM    9  C11 UNL     1      20.378   1.340  52.794  1.00  0.00     0.147 C 
HETATM   10  C12 UNL     1      20.536   0.706  51.460  1.00  0.00     0.008 C 
HETATM   11  C13 UNL     1      20.998   1.414  50.430  1.00  0.00     0.035 C 
HETATM   12  C14 UNL     1      21.375   1.465  48.996  1.00  0.00     0.250 C 
HETATM   13  O1  UNL     1      21.918   0.525  48.297  1.00  0.00    -0.268 OA
HETATM   14  N2  UNL     1      20.856   2.815  49.052  1.00  0.00    -0.344 N 
HETATM   15  C15 UNL     1      21.460   2.833  50.397  1.00  0.00     0.157 C 
HETATM   16  C16 UNL     1      23.001   2.263  53.076  1.00  0.00     0.066 A 
HETATM   17  C17 UNL     1      24.528   2.518  53.037  1.00  0.00     0.031 A 
HETATM   18  H10 UNL     1      20.992   0.013  54.497  1.00  0.00     0.159 HD
HETATM   19  H14 UNL     1      20.345   3.036  48.142  1.00  0.00     0.163 HD
ENDROOT
BRANCH   1  20
HETATM   20  C3  UNL     1      25.225   3.374  49.570  1.00  0.00    -0.004 C 
HETATM   21  C2  UNL     1      25.898   4.460  49.333  1.00  0.00    -0.031 C 
HETATM   22  C1  UNL     1      25.427   5.815  49.011  1.00  0.00     0.036 C 
ENDBRANCH   1  20
TORSDOF 1
ENDMDL
