MODEL 1
REMARK VINA RESULT:      -8.4      0.000      0.000
REMARK  8 active torsions:
REMARK  status: ('A' for Active; 'I' for Inactive)
REMARK    1  A    between atoms: N1_1  and  C1_2 
REMARK    2  A    between atoms: C2_3  and  C3_4 
REMARK    3  A    between atoms: C4_5  and  C5_6 
REMARK    4  A    between atoms: C6_7  and  C7_8 
REMARK    5  A    between atoms: C7_8  and  C8_9 
REMARK    6  A    between atoms: C7_8  and  N2_11 
REMARK    7  A    between atoms: C8_9  and  O1_10 
REMARK    8  A    between atoms: N2_11  and  C9_12 
ROOT
HETATM    1  N2  UNL     1      24.091   1.923  51.167  1.00  0.00    -0.364 N 
HETATM    2  H13 UNL     1      24.481   1.316  50.446  1.00  0.00     0.162 HD
ENDROOT
BRANCH   1   3
HETATM    3  C7  UNL     1      25.257   2.675  51.623  1.00  0.00     0.129 C 
BRANCH   3   4
HETATM    4  C6  UNL     1      25.747   2.266  52.934  1.00  0.00     0.000 C 
HETATM    5  C5  UNL     1      26.734   1.888  53.722  1.00  0.00    -0.002 C 
BRANCH   5   6
HETATM    6  C4  UNL     1      28.156   1.640  53.626  1.00  0.00    -0.000 C 
HETATM    7  C3  UNL     1      28.929   0.587  53.479  1.00  0.00     0.001 C 
BRANCH   7   8
HETATM    8  C2  UNL     1      28.402  -0.782  53.363  1.00  0.00     0.011 C 
HETATM    9  C1  UNL     1      29.170  -1.849  53.388  1.00  0.00     0.054 C 
BRANCH   9  10
HETATM   10  N1  UNL     1      28.667  -3.169  53.278  1.00  0.00    -0.312 NA
HETATM   11  H1  UNL     1      27.714  -3.467  52.981  1.00  0.00     0.123 HD
HETATM   12  H2  UNL     1      27.696  -3.397  52.972  1.00  0.00     0.123 HD
ENDBRANCH   9  10
ENDBRANCH   7   8
ENDBRANCH   5   6
ENDBRANCH   3   4
BRANCH   3  13
HETATM   13  C8  UNL     1      26.417   2.532  50.622  1.00  0.00     0.193 C 
BRANCH  13  14
HETATM   14  O1  UNL     1      27.166   3.715  50.764  1.00  0.00    -0.399 OA
HETATM   15  H12 UNL     1      27.359   4.122  49.881  1.00  0.00     0.209 HD
ENDBRANCH  13  14
ENDBRANCH   3  13
ENDBRANCH   1   3
BRANCH   1  16
HETATM   16  C9  UNL     1      22.811   2.156  51.742  1.00  0.00     0.139 A 
HETATM   17  N3  UNL     1      22.186   3.260  51.330  1.00  0.00    -0.224 NA
HETATM   18  C10 UNL     1      21.012   3.686  51.726  1.00  0.00     0.236 A 
HETATM   19  N4  UNL     1      20.332   2.982  52.633  1.00  0.00    -0.234 NA
HETATM   20  C11 UNL     1      21.085   1.746  53.062  1.00  0.00     0.114 A 
HETATM   21  S1  UNL     1      20.402   0.546  54.330  1.00  0.00    -0.073 SA
HETATM   22  C14 UNL     1      22.291   1.296  52.663  1.00  0.00     0.053 A 
HETATM   23  C12 UNL     1      21.843  -0.431  54.168  1.00  0.00    -0.008 A 
HETATM   24  C13 UNL     1      22.654   0.170  53.251  1.00  0.00    -0.028 A 
HETATM   25  C18 UNL     1      22.199  -1.738  54.904  1.00  0.00     0.047 C 
HETATM   26  C15 UNL     1      23.827  -0.721  53.184  1.00  0.00     0.041 C 
HETATM   27  C16 UNL     1      24.452  -0.933  54.558  1.00  0.00     0.005 C 
HETATM   28  C17 UNL     1      23.498  -1.357  55.614  1.00  0.00     0.005 C 
ENDBRANCH   1  16
TORSDOF 8
ENDMDL
MODEL 2
REMARK VINA RESULT:      -8.4      1.870      2.329
REMARK  8 active torsions:
REMARK  status: ('A' for Active; 'I' for Inactive)
REMARK    1  A    between atoms: N1_1  and  C1_2 
REMARK    2  A    between atoms: C2_3  and  C3_4 
REMARK    3  A    between atoms: C4_5  and  C5_6 
REMARK    4  A    between atoms: C6_7  and  C7_8 
REMARK    5  A    between atoms: C7_8  and  C8_9 
REMARK    6  A    between atoms: C7_8  and  N2_11 
REMARK    7  A    between atoms: C8_9  and  O1_10 
REMARK    8  A    between atoms: N2_11  and  C9_12 
ROOT
HETATM    1  N2  UNL     1      25.550   2.304  53.139  1.00  0.00    -0.364 N 
HETATM    2  H13 UNL     1      26.023   2.138  54.028  1.00  0.00     0.162 HD
ENDROOT
BRANCH   1   3
HETATM    3  C7  UNL     1      26.513   1.808  52.161  1.00  0.00     0.129 C 
BRANCH   3   4
HETATM    4  C6  UNL     1      26.428   0.372  51.925  1.00  0.00     0.000 C 
HETATM    5  C5  UNL     1      26.855  -0.855  52.151  1.00  0.00    -0.002 C 
BRANCH   5   6
HETATM    6  C4  UNL     1      27.869  -1.514  52.944  1.00  0.00    -0.000 C 
HETATM    7  C3  UNL     1      28.971  -1.155  53.566  1.00  0.00     0.001 C 
BRANCH   7   8
HETATM    8  C2  UNL     1      29.468   0.230  53.578  1.00  0.00     0.011 C 
HETATM    9  C1  UNL     1      29.154   1.094  54.518  1.00  0.00     0.054 C 
BRANCH   9  10
HETATM   10  N1  UNL     1      29.632   2.428  54.534  1.00  0.00    -0.312 NA
HETATM   11  H1  UNL     1      29.083   3.302  54.676  1.00  0.00     0.123 HD
HETATM   12  H2  UNL     1      29.023   3.263  54.683  1.00  0.00     0.123 HD
ENDBRANCH   9  10
ENDBRANCH   7   8
ENDBRANCH   5   6
ENDBRANCH   3   4
BRANCH   3  13
HETATM   13  C8  UNL     1      26.325   2.518  50.809  1.00  0.00     0.193 C 
BRANCH  13  14
HETATM   14  O1  UNL     1      27.210   3.612  50.846  1.00  0.00    -0.399 OA
HETATM   15  H12 UNL     1      26.757   4.424  51.187  1.00  0.00     0.209 HD
ENDBRANCH  13  14
ENDBRANCH   3  13
ENDBRANCH   1   3
BRANCH   1  16
HETATM   16  C9  UNL     1      24.305   2.848  52.716  1.00  0.00     0.139 A 
HETATM   17  N3  UNL     1      24.335   4.123  52.327  1.00  0.00    -0.224 NA
HETATM   18  C10 UNL     1      23.316   4.836  51.912  1.00  0.00     0.236 A 
HETATM   19  N4  UNL     1      22.107   4.277  51.855  1.00  0.00    -0.234 NA
HETATM   20  C11 UNL     1      22.132   2.836  52.305  1.00  0.00     0.114 A 
HETATM   21  S1  UNL     1      20.590   1.771  52.348  1.00  0.00    -0.073 SA
HETATM   22  C14 UNL     1      23.171   2.092  52.733  1.00  0.00     0.053 A 
HETATM   23  C12 UNL     1      21.542   0.432  52.945  1.00  0.00    -0.008 A 
HETATM   24  C13 UNL     1      22.834   0.855  53.055  1.00  0.00    -0.028 A 
HETATM   25  C18 UNL     1      21.069  -0.989  53.310  1.00  0.00     0.047 C 
HETATM   26  C15 UNL     1      23.550  -0.332  53.559  1.00  0.00     0.041 C 
HETATM   27  C16 UNL     1      22.930  -0.857  54.848  1.00  0.00     0.005 C 
HETATM   28  C17 UNL     1      21.465  -1.084  54.784  1.00  0.00     0.005 C 
ENDBRANCH   1  16
TORSDOF 8
ENDMDL
MODEL 3
REMARK VINA RESULT:      -8.2      2.911      4.651
REMARK  8 active torsions:
REMARK  status: ('A' for Active; 'I' for Inactive)
REMARK    1  A    between atoms: N1_1  and  C1_2 
REMARK    2  A    between atoms: C2_3  and  C3_4 
REMARK    3  A    between atoms: C4_5  and  C5_6 
REMARK    4  A    between atoms: C6_7  and  C7_8 
REMARK    5  A    between atoms: C7_8  and  C8_9 
REMARK    6  A    between atoms: C7_8  and  N2_11 
REMARK    7  A    between atoms: C8_9  and  O1_10 
REMARK    8  A    between atoms: N2_11  and  C9_12 
ROOT
HETATM    1  N2  UNL     1      22.452   0.617  53.392  1.00  0.00    -0.364 N 
HETATM    2  H13 UNL     1      22.532   1.115  54.279  1.00  0.00     0.162 HD
ENDROOT
BRANCH   1   3
HETATM    3  C7  UNL     1      23.091  -0.664  53.681  1.00  0.00     0.129 C 
BRANCH   3   4
HETATM    4  C6  UNL     1      24.409  -0.542  54.292  1.00  0.00     0.000 C 
HETATM    5  C5  UNL     1      25.722  -0.617  54.209  1.00  0.00    -0.002 C 
BRANCH   5   6
HETATM    6  C4  UNL     1      26.723  -0.938  53.216  1.00  0.00    -0.000 C 
HETATM    7  C3  UNL     1      27.994  -0.664  53.025  1.00  0.00     0.001 C 
BRANCH   7   8
HETATM    8  C2  UNL     1      28.782   0.165  53.950  1.00  0.00     0.011 C 
HETATM    9  C1  UNL     1      28.881   1.471  53.834  1.00  0.00     0.054 C 
BRANCH   9  10
HETATM   10  N1  UNL     1      29.638   2.274  54.723  1.00  0.00    -0.312 NA
HETATM   11  H1  UNL     1      30.014   2.011  55.658  1.00  0.00     0.123 HD
HETATM   12  H2  UNL     1      29.986   1.944  55.651  1.00  0.00     0.123 HD
ENDBRANCH   9  10
ENDBRANCH   7   8
ENDBRANCH   5   6
ENDBRANCH   3   4
BRANCH   3  13
HETATM   13  C8  UNL     1      22.212  -1.505  54.623  1.00  0.00     0.193 C 
BRANCH  13  14
HETATM   14  O1  UNL     1      22.997  -1.700  55.775  1.00  0.00    -0.399 OA
HETATM   15  H12 UNL     1      23.326  -2.634  55.827  1.00  0.00     0.209 HD
ENDBRANCH  13  14
ENDBRANCH   3  13
ENDBRANCH   1   3
BRANCH   1  16
HETATM   16  C9  UNL     1      21.913   0.881  52.102  1.00  0.00     0.139 A 
HETATM   17  N3  UNL     1      20.745   0.296  51.834  1.00  0.00    -0.224 NA
HETATM   18  C10 UNL     1      20.067   0.382  50.715  1.00  0.00     0.236 A 
HETATM   19  N4  UNL     1      20.553   1.114  49.711  1.00  0.00    -0.234 NA
HETATM   20  C11 UNL     1      21.875   1.750  50.069  1.00  0.00     0.114 A 
HETATM   21  S1  UNL     1      22.821   2.837  48.870  1.00  0.00    -0.073 SA
HETATM   22  C14 UNL     1      22.580   1.671  51.215  1.00  0.00     0.053 A 
HETATM   23  C12 UNL     1      24.072   3.057  50.072  1.00  0.00    -0.008 A 
HETATM   24  C13 UNL     1      23.710   2.357  51.185  1.00  0.00    -0.028 A 
HETATM   25  C18 UNL     1      25.375   3.873  49.956  1.00  0.00     0.047 C 
HETATM   26  C15 UNL     1      24.814   2.606  52.130  1.00  0.00     0.041 C 
HETATM   27  C16 UNL     1      26.162   2.218  51.534  1.00  0.00     0.005 C 
HETATM   28  C17 UNL     1      26.440   2.802  50.198  1.00  0.00     0.005 C 
ENDBRANCH   1  16
TORSDOF 8
ENDMDL
MODEL 4
REMARK VINA RESULT:      -8.1      2.403      4.102
REMARK  8 active torsions:
REMARK  status: ('A' for Active; 'I' for Inactive)
REMARK    1  A    between atoms: N1_1  and  C1_2 
REMARK    2  A    between atoms: C2_3  and  C3_4 
REMARK    3  A    between atoms: C4_5  and  C5_6 
REMARK    4  A    between atoms: C6_7  and  C7_8 
REMARK    5  A    between atoms: C7_8  and  C8_9 
REMARK    6  A    between atoms: C7_8  and  N2_11 
REMARK    7  A    between atoms: C8_9  and  O1_10 
REMARK    8  A    between atoms: N2_11  and  C9_12 
ROOT
HETATM    1  N2  UNL     1      24.870   1.899  53.181  1.00  0.00    -0.364 N 
HETATM    2  H13 UNL     1      25.036   2.838  53.545  1.00  0.00     0.162 HD
ENDROOT
BRANCH   1   3
HETATM    3  C7  UNL     1      26.199   1.480  52.745  1.00  0.00     0.129 C 
BRANCH   3   4
HETATM    4  C6  UNL     1      26.271   0.085  52.327  1.00  0.00     0.000 C 
HETATM    5  C5  UNL     1      26.865  -1.092  52.357  1.00  0.00    -0.002 C 
BRANCH   5   6
HETATM    6  C4  UNL     1      28.020  -1.700  52.979  1.00  0.00    -0.000 C 
HETATM    7  C3  UNL     1      29.155  -1.279  53.490  1.00  0.00     0.001 C 
BRANCH   7   8
HETATM    8  C2  UNL     1      29.534   0.142  53.538  1.00  0.00     0.011 C 
HETATM    9  C1  UNL     1      29.204   0.937  54.533  1.00  0.00     0.054 C 
BRANCH   9  10
HETATM   10  N1  UNL     1      29.568   2.306  54.583  1.00  0.00    -0.312 NA
HETATM   11  H1  UNL     1      30.105   2.797  55.329  1.00  0.00     0.123 HD
HETATM   12  H2  UNL     1      30.110   2.735  55.365  1.00  0.00     0.123 HD
ENDBRANCH   9  10
ENDBRANCH   7   8
ENDBRANCH   5   6
ENDBRANCH   3   4
BRANCH   3  13
HETATM   13  C8  UNL     1      26.679   2.348  51.568  1.00  0.00     0.193 C 
BRANCH  13  14
HETATM   14  O1  UNL     1      27.880   2.931  52.013  1.00  0.00    -0.399 OA
HETATM   15  H12 UNL     1      27.753   3.383  52.887  1.00  0.00     0.209 HD
ENDBRANCH  13  14
ENDBRANCH   3  13
ENDBRANCH   1   3
BRANCH   1  16
HETATM   16  C9  UNL     1      23.754   1.028  53.036  1.00  0.00     0.139 A 
HETATM   17  N3  UNL     1      23.674   0.040  53.926  1.00  0.00    -0.224 NA
HETATM   18  C10 UNL     1      22.748  -0.887  53.983  1.00  0.00     0.236 A 
HETATM   19  N4  UNL     1      21.766  -0.886  53.081  1.00  0.00    -0.234 NA
HETATM   20  C11 UNL     1      21.907   0.252  52.099  1.00  0.00     0.114 A 
HETATM   21  S1  UNL     1      20.689   0.528  50.701  1.00  0.00    -0.073 SA
HETATM   22  C14 UNL     1      22.852   1.211  52.030  1.00  0.00     0.053 A 
HETATM   23  C12 UNL     1      21.611   1.921  50.185  1.00  0.00    -0.008 A 
HETATM   24  C13 UNL     1      22.671   2.058  51.032  1.00  0.00    -0.028 A 
HETATM   25  C18 UNL     1      21.337   2.860  48.993  1.00  0.00     0.047 C 
HETATM   26  C15 UNL     1      23.377   3.247  50.520  1.00  0.00     0.041 C 
HETATM   27  C16 UNL     1      23.743   3.094  49.048  1.00  0.00     0.005 C 
HETATM   28  C17 UNL     1      22.614   2.702  48.167  1.00  0.00     0.005 C 
ENDBRANCH   1  16
TORSDOF 8
ENDMDL
MODEL 5
REMARK VINA RESULT:      -8.0      2.920      4.230
REMARK  8 active torsions:
REMARK  status: ('A' for Active; 'I' for Inactive)
REMARK    1  A    between atoms: N1_1  and  C1_2 
REMARK    2  A    between atoms: C2_3  and  C3_4 
REMARK    3  A    between atoms: C4_5  and  C5_6 
REMARK    4  A    between atoms: C6_7  and  C7_8 
REMARK    5  A    between atoms: C7_8  and  C8_9 
REMARK    6  A    between atoms: C7_8  and  N2_11 
REMARK    7  A    between atoms: C8_9  and  O1_10 
REMARK    8  A    between atoms: N2_11  and  C9_12 
ROOT
HETATM    1  N2  UNL     1      25.404   1.080  53.829  1.00  0.00    -0.364 N 
HETATM    2  H13 UNL     1      25.513   1.405  54.790  1.00  0.00     0.162 HD
ENDROOT
BRANCH   1   3
HETATM    3  C7  UNL     1      25.384  -0.372  53.977  1.00  0.00     0.129 C 
BRANCH   3   4
HETATM    4  C6  UNL     1      26.213  -1.076  53.006  1.00  0.00     0.000 C 
HETATM    5  C5  UNL     1      27.358  -1.633  52.666  1.00  0.00    -0.002 C 
BRANCH   5   6
HETATM    6  C4  UNL     1      28.661  -1.862  53.251  1.00  0.00    -0.000 C 
HETATM    7  C3  UNL     1      29.687  -1.120  53.605  1.00  0.00     0.001 C 
BRANCH   7   8
HETATM    8  C2  UNL     1      29.708   0.343  53.449  1.00  0.00     0.011 C 
HETATM    9  C1  UNL     1      29.047   1.158  54.242  1.00  0.00     0.054 C 
BRANCH   9  10
HETATM   10  N1  UNL     1      29.066   2.567  54.096  1.00  0.00    -0.312 NA
HETATM   11  H1  UNL     1      28.293   3.239  54.281  1.00  0.00     0.123 HD
HETATM   12  H2  UNL     1      28.250   3.184  54.301  1.00  0.00     0.123 HD
ENDBRANCH   9  10
ENDBRANCH   7   8
ENDBRANCH   5   6
ENDBRANCH   3   4
BRANCH   3  13
HETATM   13  C8  UNL     1      25.861  -0.778  55.383  1.00  0.00     0.193 C 
BRANCH  13  14
HETATM   14  O1  UNL     1      24.796  -1.519  55.928  1.00  0.00    -0.399 OA
HETATM   15  H12 UNL     1      24.845  -2.469  55.649  1.00  0.00     0.209 HD
ENDBRANCH  13  14
ENDBRANCH   3  13
ENDBRANCH   1   3
BRANCH   1  16
HETATM   16  C9  UNL     1      25.279   1.677  52.543  1.00  0.00     0.139 A 
HETATM   17  N3  UNL     1      26.360   2.317  52.098  1.00  0.00    -0.224 NA
HETATM   18  C10 UNL     1      26.477   2.950  50.956  1.00  0.00     0.236 A 
HETATM   19  N4  UNL     1      25.438   2.989  50.120  1.00  0.00    -0.234 NA
HETATM   20  C11 UNL     1      24.244   2.250  50.675  1.00  0.00     0.114 A 
HETATM   21  S1  UNL     1      22.622   2.123  49.744  1.00  0.00    -0.073 SA
HETATM   22  C14 UNL     1      24.111   1.595  51.845  1.00  0.00     0.053 A 
HETATM   23  C12 UNL     1      21.950   1.190  51.061  1.00  0.00    -0.008 A 
HETATM   24  C13 UNL     1      22.915   1.058  52.015  1.00  0.00    -0.028 A 
HETATM   25  C18 UNL     1      20.530   0.603  51.189  1.00  0.00     0.047 C 
HETATM   26  C15 UNL     1      22.259   0.264  53.070  1.00  0.00     0.041 C 
HETATM   27  C16 UNL     1      20.968   0.918  53.546  1.00  0.00     0.005 C 
HETATM   28  C17 UNL     1      20.021   1.282  52.461  1.00  0.00     0.005 C 
ENDBRANCH   1  16
TORSDOF 8
ENDMDL
MODEL 6
REMARK VINA RESULT:      -8.0      2.588      5.758
REMARK  8 active torsions:
REMARK  status: ('A' for Active; 'I' for Inactive)
REMARK    1  A    between atoms: N1_1  and  C1_2 
REMARK    2  A    between atoms: C2_3  and  C3_4 
REMARK    3  A    between atoms: C4_5  and  C5_6 
REMARK    4  A    between atoms: C6_7  and  C7_8 
REMARK    5  A    between atoms: C7_8  and  C8_9 
REMARK    6  A    between atoms: C7_8  and  N2_11 
REMARK    7  A    between atoms: C8_9  and  O1_10 
REMARK    8  A    between atoms: N2_11  and  C9_12 
ROOT
HETATM    1  N2  UNL     1      25.808   3.515  51.340  1.00  0.00    -0.364 N 
HETATM    2  H13 UNL     1      25.404   4.439  51.497  1.00  0.00     0.162 HD
ENDROOT
BRANCH   1   3
HETATM    3  C7  UNL     1      25.934   3.459  49.886  1.00  0.00     0.129 C 
BRANCH   3   4
HETATM    4  C6  UNL     1      24.692   3.125  49.199  1.00  0.00     0.000 C 
HETATM    5  C5  UNL     1      23.524   3.484  48.704  1.00  0.00    -0.002 C 
BRANCH   5   6
HETATM    6  C4  UNL     1      22.727   4.685  48.582  1.00  0.00    -0.000 C 
HETATM    7  C3  UNL     1      22.379   5.677  49.371  1.00  0.00     0.001 C 
BRANCH   7   8
HETATM    8  C2  UNL     1      22.811   5.774  50.774  1.00  0.00     0.011 C 
HETATM    9  C1  UNL     1      23.902   6.408  51.144  1.00  0.00     0.054 C 
BRANCH   9  10
HETATM   10  N1  UNL     1      24.321   6.506  52.494  1.00  0.00    -0.312 NA
HETATM   11  H1  UNL     1      24.393   5.741  53.198  1.00  0.00     0.123 HD
HETATM   12  H2  UNL     1      24.369   5.693  53.148  1.00  0.00     0.123 HD
ENDBRANCH   9  10
ENDBRANCH   7   8
ENDBRANCH   5   6
ENDBRANCH   3   4
BRANCH   3  13
HETATM   13  C8  UNL     1      26.428   4.807  49.334  1.00  0.00     0.193 C 
BRANCH  13  14
HETATM   14  O1  UNL     1      27.830   4.753  49.445  1.00  0.00    -0.399 OA
HETATM   15  H12 UNL     1      28.136   3.832  49.643  1.00  0.00     0.209 HD
ENDBRANCH  13  14
ENDBRANCH   3  13
ENDBRANCH   1   3
BRANCH   1  16
HETATM   16  C9  UNL     1      26.222   2.417  52.144  1.00  0.00     0.139 A 
HETATM   17  N3  UNL     1      27.538   2.289  52.313  1.00  0.00    -0.224 NA
HETATM   18  C10 UNL     1      28.151   1.354  52.997  1.00  0.00     0.236 A 
HETATM   19  N4  UNL     1      27.430   0.409  53.603  1.00  0.00    -0.234 NA
HETATM   20  C11 UNL     1      25.950   0.603  53.379  1.00  0.00     0.114 A 
HETATM   21  S1  UNL     1      24.666  -0.561  54.094  1.00  0.00    -0.073 SA
HETATM   22  C14 UNL     1      25.308   1.559  52.679  1.00  0.00     0.053 A 
HETATM   23  C12 UNL     1      23.402   0.393  53.356  1.00  0.00    -0.008 A 
HETATM   24  C13 UNL     1      23.993   1.424  52.687  1.00  0.00    -0.028 A 
HETATM   25  C18 UNL     1      21.878   0.162  53.403  1.00  0.00     0.047 C 
HETATM   26  C15 UNL     1      22.857   2.163  52.107  1.00  0.00     0.041 C 
HETATM   27  C16 UNL     1      21.976   1.260  51.252  1.00  0.00     0.005 C 
HETATM   28  C17 UNL     1      21.535   0.011  51.921  1.00  0.00     0.005 C 
ENDBRANCH   1  16
TORSDOF 8
ENDMDL
MODEL 7
REMARK VINA RESULT:      -7.8      2.115      2.826
REMARK  8 active torsions:
REMARK  status: ('A' for Active; 'I' for Inactive)
REMARK    1  A    between atoms: N1_1  and  C1_2 
REMARK    2  A    between atoms: C2_3  and  C3_4 
REMARK    3  A    between atoms: C4_5  and  C5_6 
REMARK    4  A    between atoms: C6_7  and  C7_8 
REMARK    5  A    between atoms: C7_8  and  C8_9 
REMARK    6  A    between atoms: C7_8  and  N2_11 
REMARK    7  A    between atoms: C8_9  and  O1_10 
REMARK    8  A    between atoms: N2_11  and  C9_12 
ROOT
HETATM    1  N2  UNL     1      24.450   2.283  50.983  1.00  0.00    -0.364 N 
HETATM    2  H13 UNL     1      24.745   1.600  50.285  1.00  0.00     0.162 HD
ENDROOT
BRANCH   1   3
HETATM    3  C7  UNL     1      25.449   2.124  52.035  1.00  0.00     0.129 C 
BRANCH   3   4
HETATM    4  C6  UNL     1      25.374   0.846  52.733  1.00  0.00     0.000 C 
HETATM    5  C5  UNL     1      25.910  -0.312  53.067  1.00  0.00    -0.002 C 
BRANCH   5   6
HETATM    6  C4  UNL     1      27.139  -1.038  52.833  1.00  0.00    -0.000 C 
HETATM    7  C3  UNL     1      28.380  -0.965  53.258  1.00  0.00     0.001 C 
BRANCH   7   8
HETATM    8  C2  UNL     1      28.838   0.045  54.225  1.00  0.00     0.011 C 
HETATM    9  C1  UNL     1      29.164   1.271  53.879  1.00  0.00     0.054 C 
BRANCH   9  10
HETATM   10  N1  UNL     1      29.603   2.247  54.808  1.00  0.00    -0.312 NA
HETATM   11  H1  UNL     1      29.493   2.240  55.843  1.00  0.00     0.123 HD
HETATM   12  H2  UNL     1      29.459   2.176  55.839  1.00  0.00     0.123 HD
ENDBRANCH   9  10
ENDBRANCH   7   8
ENDBRANCH   5   6
ENDBRANCH   3   4
BRANCH   3  13
HETATM   13  C8  UNL     1      26.869   2.260  51.457  1.00  0.00     0.193 C 
BRANCH  13  14
HETATM   14  O1  UNL     1      26.907   3.546  50.885  1.00  0.00    -0.399 OA
HETATM   15  H12 UNL     1      26.018   3.981  50.932  1.00  0.00     0.209 HD
ENDBRANCH  13  14
ENDBRANCH   3  13
ENDBRANCH   1   3
BRANCH   1  16
HETATM   16  C9  UNL     1      23.402   3.235  51.120  1.00  0.00     0.139 A 
HETATM   17  N3  UNL     1      23.760   4.511  50.976  1.00  0.00    -0.224 NA
HETATM   18  C10 UNL     1      22.975   5.557  51.071  1.00  0.00     0.236 A 
HETATM   19  N4  UNL     1      21.681   5.382  51.340  1.00  0.00    -0.234 NA
HETATM   20  C11 UNL     1      21.333   3.921  51.494  1.00  0.00     0.114 A 
HETATM   21  S1  UNL     1      19.593   3.339  51.881  1.00  0.00    -0.073 SA
HETATM   22  C14 UNL     1      22.128   2.837  51.397  1.00  0.00     0.053 A 
HETATM   23  C12 UNL     1      20.153   1.683  51.866  1.00  0.00    -0.008 A 
HETATM   24  C13 UNL     1      21.489   1.696  51.593  1.00  0.00    -0.028 A 
HETATM   25  C18 UNL     1      19.340   0.398  52.116  1.00  0.00     0.047 C 
HETATM   26  C15 UNL     1      21.863   0.270  51.601  1.00  0.00     0.041 C 
HETATM   27  C16 UNL     1      21.478  -0.406  52.911  1.00  0.00     0.005 C 
HETATM   28  C17 UNL     1      20.065  -0.204  53.321  1.00  0.00     0.005 C 
ENDBRANCH   1  16
TORSDOF 8
ENDMDL
MODEL 8
REMARK VINA RESULT:      -7.8      1.761      2.382
REMARK  8 active torsions:
REMARK  status: ('A' for Active; 'I' for Inactive)
REMARK    1  A    between atoms: N1_1  and  C1_2 
REMARK    2  A    between atoms: C2_3  and  C3_4 
REMARK    3  A    between atoms: C4_5  and  C5_6 
REMARK    4  A    between atoms: C6_7  and  C7_8 
REMARK    5  A    between atoms: C7_8  and  C8_9 
REMARK    6  A    between atoms: C7_8  and  N2_11 
REMARK    7  A    between atoms: C8_9  and  O1_10 
REMARK    8  A    between atoms: N2_11  and  C9_12 
ROOT
HETATM    1  N2  UNL     1      24.308   1.951  53.158  1.00  0.00    -0.364 N 
HETATM    2  H13 UNL     1      24.309   1.062  53.660  1.00  0.00     0.162 HD
ENDROOT
BRANCH   1   3
HETATM    3  C7  UNL     1      25.730   2.210  52.953  1.00  0.00     0.129 C 
BRANCH   3   4
HETATM    4  C6  UNL     1      26.598   1.523  53.901  1.00  0.00     0.000 C 
HETATM    5  C5  UNL     1      27.781   1.047  54.236  1.00  0.00    -0.002 C 
BRANCH   5   6
HETATM    6  C4  UNL     1      29.109   0.964  53.669  1.00  0.00    -0.000 C 
HETATM    7  C3  UNL     1      29.982   0.011  53.431  1.00  0.00     0.001 C 
BRANCH   7   8
HETATM    8  C2  UNL     1      29.731  -1.404  53.749  1.00  0.00     0.011 C 
HETATM    9  C1  UNL     1      28.916  -2.161  53.048  1.00  0.00     0.054 C 
BRANCH   9  10
HETATM   10  N1  UNL     1      28.671  -3.524  53.351  1.00  0.00    -0.312 NA
HETATM   11  H1  UNL     1      29.369  -4.264  53.575  1.00  0.00     0.123 HD
HETATM   12  H2  UNL     1      29.423  -4.215  53.567  1.00  0.00     0.123 HD
ENDBRANCH   9  10
ENDBRANCH   7   8
ENDBRANCH   5   6
ENDBRANCH   3   4
BRANCH   3  13
HETATM   13  C8  UNL     1      26.156   1.789  51.536  1.00  0.00     0.193 C 
BRANCH  13  14
HETATM   14  O1  UNL     1      27.108   2.749  51.142  1.00  0.00    -0.399 OA
HETATM   15  H12 UNL     1      26.997   2.987  50.186  1.00  0.00     0.209 HD
ENDBRANCH  13  14
ENDBRANCH   3  13
ENDBRANCH   1   3
BRANCH   1  16
HETATM   16  C9  UNL     1      23.330   2.866  52.679  1.00  0.00     0.139 A 
HETATM   17  N3  UNL     1      23.718   4.140  52.608  1.00  0.00    -0.224 NA
HETATM   18  C10 UNL     1      22.991   5.157  52.212  1.00  0.00     0.236 A 
HETATM   19  N4  UNL     1      21.729   4.950  51.834  1.00  0.00    -0.234 NA
HETATM   20  C11 UNL     1      21.345   3.493  51.934  1.00  0.00     0.114 A 
HETATM   21  S1  UNL     1      19.634   2.874  51.480  1.00  0.00    -0.073 SA
HETATM   22  C14 UNL     1      22.081   2.440  52.338  1.00  0.00     0.053 A 
HETATM   23  C12 UNL     1      20.124   1.248  51.894  1.00  0.00    -0.008 A 
HETATM   24  C13 UNL     1      21.423   1.294  52.305  1.00  0.00    -0.028 A 
HETATM   25  C18 UNL     1      19.286  -0.046  51.837  1.00  0.00     0.047 C 
HETATM   26  C15 UNL     1      21.739  -0.110  52.626  1.00  0.00     0.041 C 
HETATM   27  C16 UNL     1      20.761  -0.689  53.642  1.00  0.00     0.005 C 
HETATM   28  C17 UNL     1      19.329  -0.513  53.293  1.00  0.00     0.005 C 
ENDBRANCH   1  16
TORSDOF 8
ENDMDL
MODEL 9
REMARK VINA RESULT:      -7.7      3.446      5.765
REMARK  8 active torsions:
REMARK  status: ('A' for Active; 'I' for Inactive)
REMARK    1  A    between atoms: N1_1  and  C1_2 
REMARK    2  A    between atoms: C2_3  and  C3_4 
REMARK    3  A    between atoms: C4_5  and  C5_6 
REMARK    4  A    between atoms: C6_7  and  C7_8 
REMARK    5  A    between atoms: C7_8  and  C8_9 
REMARK    6  A    between atoms: C7_8  and  N2_11 
REMARK    7  A    between atoms: C8_9  and  O1_10 
REMARK    8  A    between atoms: N2_11  and  C9_12 
ROOT
HETATM    1  N2  UNL     1      23.814   2.298  50.930  1.00  0.00    -0.364 N 
HETATM    2  H13 UNL     1      23.794   2.278  49.910  1.00  0.00     0.162 HD
ENDROOT
BRANCH   1   3
HETATM    3  C7  UNL     1      24.447   3.582  51.217  1.00  0.00     0.129 C 
BRANCH   3   4
HETATM    4  C6  UNL     1      25.407   4.006  50.205  1.00  0.00     0.000 C 
HETATM    5  C5  UNL     1      25.799   4.865  49.284  1.00  0.00    -0.002 C 
BRANCH   5   6
HETATM    6  C4  UNL     1      25.336   6.106  48.701  1.00  0.00    -0.000 C 
HETATM    7  C3  UNL     1      25.517   7.388  48.929  1.00  0.00     0.001 C 
BRANCH   7   8
HETATM    8  C2  UNL     1      26.378   7.895  50.009  1.00  0.00     0.011 C 
HETATM    9  C1  UNL     1      26.831   9.129  50.042  1.00  0.00     0.054 C 
BRANCH   9  10
HETATM   10  N1  UNL     1      27.660   9.623  51.081  1.00  0.00    -0.312 NA
HETATM   11  H1  UNL     1      27.497   9.568  52.108  1.00  0.00     0.123 HD
HETATM   12  H2  UNL     1      27.434   9.533  52.096  1.00  0.00     0.123 HD
ENDBRANCH   9  10
ENDBRANCH   7   8
ENDBRANCH   5   6
ENDBRANCH   3   4
BRANCH   3  13
HETATM   13  C8  UNL     1      23.386   4.689  51.351  1.00  0.00     0.193 C 
BRANCH  13  14
HETATM   14  O1  UNL     1      23.905   5.575  52.314  1.00  0.00    -0.399 OA
HETATM   15  H12 UNL     1      24.786   5.931  52.031  1.00  0.00     0.209 HD
ENDBRANCH  13  14
ENDBRANCH   3  13
ENDBRANCH   1   3
BRANCH   1  16
HETATM   16  C9  UNL     1      23.403   1.443  51.990  1.00  0.00     0.139 A 
HETATM   17  N3  UNL     1      22.091   1.404  52.224  1.00  0.00    -0.224 NA
HETATM   18  C10 UNL     1      21.484   0.703  53.151  1.00  0.00     0.236 A 
HETATM   19  N4  UNL     1      22.206  -0.062  53.971  1.00  0.00    -0.234 NA
HETATM   20  C11 UNL     1      23.682   0.021  53.661  1.00  0.00     0.114 A 
HETATM   21  S1  UNL     1      24.966  -0.933  54.637  1.00  0.00    -0.073 SA
HETATM   22  C14 UNL     1      24.318   0.735  52.712  1.00  0.00     0.053 A 
HETATM   23  C12 UNL     1      26.224  -0.247  53.636  1.00  0.00    -0.008 A 
HETATM   24  C13 UNL     1      25.630   0.575  52.724  1.00  0.00    -0.028 A 
HETATM   25  C18 UNL     1      27.746  -0.478  53.721  1.00  0.00     0.047 C 
HETATM   26  C15 UNL     1      26.761   1.098  51.935  1.00  0.00     0.041 C 
HETATM   27  C16 UNL     1      27.805   1.766  52.821  1.00  0.00     0.005 C 
HETATM   28  C17 UNL     1      28.267   0.939  53.964  1.00  0.00     0.005 C 
ENDBRANCH   1  16
TORSDOF 8
ENDMDL
