MODEL 1
REMARK VINA RESULT:      -6.7      0.000      0.000
REMARK  6 active torsions:
REMARK  status: ('A' for Active; 'I' for Inactive)
REMARK    1  A    between atoms: C2_2  and  C3_3 
REMARK    2  A    between atoms: C2_2  and  O1_18 
REMARK    3  A    between atoms: C3_3  and  C4_4 
REMARK    4  A    between atoms: C5_5  and  C6_6 
REMARK    5  A    between atoms: C9_10  and  C10_11 
REMARK    6  A    between atoms: O1_18  and  C15_19 
ROOT
HETATM    1  C6  UNL     1      23.874   2.394  52.154  1.00  0.00     0.026 C 
HETATM    2  C7  UNL     1      24.188   3.243  51.196  1.00  0.00     0.030 A 
HETATM    3  C8  UNL     1      23.261   3.805  50.183  1.00  0.00     0.208 A 
HETATM    4  N1  UNL     1      24.127   4.656  49.404  1.00  0.00    -0.265 NA
HETATM    5  C9  UNL     1      25.337   4.627  49.844  1.00  0.00     0.150 A 
HETATM    6  N3  UNL     1      25.487   3.764  50.976  1.00  0.00    -0.341 N 
HETATM    7  H18 UNL     1      26.384   3.594  51.487  1.00  0.00     0.167 HD
ENDROOT
BRANCH   1   8
HETATM    8  C5  UNL     1      24.858   1.901  53.099  1.00  0.00    -0.002 C 
HETATM    9  C4  UNL     1      25.070   0.631  53.411  1.00  0.00    -0.024 C 
BRANCH   9  10
HETATM   10  C3  UNL     1      26.102   0.200  54.393  1.00  0.00     0.058 C 
BRANCH  10  11
HETATM   11  C2  UNL     1      27.239  -0.400  53.632  1.00  0.00     0.122 C 
HETATM   12  C1  UNL     1      26.686  -1.291  52.561  1.00  0.00     0.040 C 
BRANCH  11  13
HETATM   13  O1  UNL     1      28.134   0.489  53.117  1.00  0.00    -0.371 OA
BRANCH  13  14
HETATM   14  C15 UNL     1      29.341   0.568  53.763  1.00  0.00     0.282 C 
HETATM   15 CL1  UNL     1      30.068  -1.061  53.741  1.00  0.00    -0.102 Cl
ENDBRANCH  13  14
ENDBRANCH  11  13
ENDBRANCH  10  11
ENDBRANCH   9  10
ENDBRANCH   1   8
BRANCH   5  16
HETATM   16  C10 UNL     1      26.433   5.385  49.258  1.00  0.00     0.080 A 
HETATM   17  C11 UNL     1      27.564   4.895  48.620  1.00  0.00     0.035 A 
HETATM   18  C12 UNL     1      28.389   5.910  48.192  1.00  0.00     0.020 A 
HETATM   19  C13 UNL     1      27.736   7.056  48.585  1.00  0.00     0.091 A 
HETATM   20  N2  UNL     1      26.589   6.720  49.210  1.00  0.00    -0.358 N 
HETATM   21  C14 UNL     1      25.697   7.718  49.731  1.00  0.00     0.156 C 
ENDBRANCH   5  16
TORSDOF 6
ENDMDL
MODEL 2
REMARK VINA RESULT:      -6.6      3.287      5.796
REMARK  6 active torsions:
REMARK  status: ('A' for Active; 'I' for Inactive)
REMARK    1  A    between atoms: C2_2  and  C3_3 
REMARK    2  A    between atoms: C2_2  and  O1_18 
REMARK    3  A    between atoms: C3_3  and  C4_4 
REMARK    4  A    between atoms: C5_5  and  C6_6 
REMARK    5  A    between atoms: C9_10  and  C10_11 
REMARK    6  A    between atoms: O1_18  and  C15_19 
ROOT
HETATM    1  C6  UNL     1      23.500   2.795  50.318  1.00  0.00     0.026 C 
HETATM    2  C7  UNL     1      24.767   2.749  50.680  1.00  0.00     0.030 A 
HETATM    3  C8  UNL     1      25.894   3.448  50.016  1.00  0.00     0.208 A 
HETATM    4  N1  UNL     1      27.026   3.048  50.817  1.00  0.00    -0.265 NA
HETATM    5  C9  UNL     1      26.672   2.265  51.776  1.00  0.00     0.150 A 
HETATM    6  N3  UNL     1      25.264   2.010  51.782  1.00  0.00    -0.341 N 
HETATM    7  H18 UNL     1      24.767   1.402  52.473  1.00  0.00     0.167 HD
ENDROOT
BRANCH   1   8
HETATM    8  C5  UNL     1      22.468   2.071  51.037  1.00  0.00    -0.002 C 
HETATM    9  C4  UNL     1      21.881   0.953  50.639  1.00  0.00    -0.024 C 
BRANCH   9  10
HETATM   10  C3  UNL     1      20.826   0.265  51.433  1.00  0.00     0.058 C 
BRANCH  10  11
HETATM   11  C2  UNL     1      21.306   0.161  52.844  1.00  0.00     0.122 C 
HETATM   12  C1  UNL     1      20.121   0.194  53.761  1.00  0.00     0.040 C 
BRANCH  11  13
HETATM   13  O1  UNL     1      22.107  -0.908  53.114  1.00  0.00    -0.371 OA
BRANCH  13  14
HETATM   14  C15 UNL     1      21.748  -1.667  54.198  1.00  0.00     0.282 C 
HETATM   15 CL1  UNL     1      22.980  -1.409  55.462  1.00  0.00    -0.102 Cl
ENDBRANCH  13  14
ENDBRANCH  11  13
ENDBRANCH  10  11
ENDBRANCH   9  10
ENDBRANCH   1   8
BRANCH   5  16
HETATM   16  C10 UNL     1      27.597   1.700  52.748  1.00  0.00     0.080 A 
HETATM   17  C11 UNL     1      28.502   2.374  53.557  1.00  0.00     0.035 A 
HETATM   18  C12 UNL     1      29.216   1.509  54.354  1.00  0.00     0.020 A 
HETATM   19  C13 UNL     1      28.729   0.267  54.017  1.00  0.00     0.091 A 
HETATM   20  N2  UNL     1      27.779   0.407  53.070  1.00  0.00    -0.358 N 
HETATM   21  C14 UNL     1      27.090  -0.729  52.523  1.00  0.00     0.156 C 
ENDBRANCH   5  16
TORSDOF 6
ENDMDL
MODEL 3
REMARK VINA RESULT:      -6.6      3.533      6.907
REMARK  6 active torsions:
REMARK  status: ('A' for Active; 'I' for Inactive)
REMARK    1  A    between atoms: C2_2  and  C3_3 
REMARK    2  A    between atoms: C2_2  and  O1_18 
REMARK    3  A    between atoms: C3_3  and  C4_4 
REMARK    4  A    between atoms: C5_5  and  C6_6 
REMARK    5  A    between atoms: C9_10  and  C10_11 
REMARK    6  A    between atoms: O1_18  and  C15_19 
ROOT
HETATM    1  C6  UNL     1      26.065   5.157  49.312  1.00  0.00     0.026 C 
HETATM    2  C7  UNL     1      25.876   4.190  50.188  1.00  0.00     0.030 A 
HETATM    3  C8  UNL     1      24.634   3.932  50.956  1.00  0.00     0.208 A 
HETATM    4  N1  UNL     1      24.987   2.776  51.745  1.00  0.00    -0.265 NA
HETATM    5  C9  UNL     1      26.197   2.399  51.512  1.00  0.00     0.150 A 
HETATM    6  N3  UNL     1      26.850   3.225  50.543  1.00  0.00    -0.341 N 
HETATM    7  H18 UNL     1      27.834   3.095  50.210  1.00  0.00     0.167 HD
ENDROOT
BRANCH   1   8
HETATM    8  C5  UNL     1      27.323   5.326  48.611  1.00  0.00    -0.002 C 
HETATM    9  C4  UNL     1      27.936   6.477  48.377  1.00  0.00    -0.024 C 
BRANCH   9  10
HETATM   10  C3  UNL     1      29.231   6.572  47.648  1.00  0.00     0.058 C 
BRANCH  10  11
HETATM   11  C2  UNL     1      30.270   5.876  48.465  1.00  0.00     0.122 C 
HETATM   12  C1  UNL     1      31.036   4.942  47.577  1.00  0.00     0.040 C 
BRANCH  11  13
HETATM   13  O1  UNL     1      31.111   6.692  49.161  1.00  0.00    -0.371 OA
BRANCH  13  14
HETATM   14  C15 UNL     1      32.445   6.386  49.083  1.00  0.00     0.282 C 
HETATM   15 CL1  UNL     1      33.315   7.891  48.680  1.00  0.00    -0.102 Cl
ENDBRANCH  13  14
ENDBRANCH  11  13
ENDBRANCH  10  11
ENDBRANCH   9  10
ENDBRANCH   1   8
BRANCH   5  16
HETATM   16  C10 UNL     1      26.831   1.261  52.161  1.00  0.00     0.080 A 
HETATM   17  C11 UNL     1      26.521  -0.085  52.019  1.00  0.00     0.035 A 
HETATM   18  C12 UNL     1      27.335  -0.881  52.792  1.00  0.00     0.020 A 
HETATM   19  C13 UNL     1      28.168   0.012  53.425  1.00  0.00     0.091 A 
HETATM   20  N2  UNL     1      27.851   1.265  53.038  1.00  0.00    -0.358 N 
HETATM   21  C14 UNL     1      28.559   2.409  53.541  1.00  0.00     0.156 C 
ENDBRANCH   5  16
TORSDOF 6
ENDMDL
MODEL 4
REMARK VINA RESULT:      -6.6      3.225      6.492
REMARK  6 active torsions:
REMARK  status: ('A' for Active; 'I' for Inactive)
REMARK    1  A    between atoms: C2_2  and  C3_3 
REMARK    2  A    between atoms: C2_2  and  O1_18 
REMARK    3  A    between atoms: C3_3  and  C4_4 
REMARK    4  A    between atoms: C5_5  and  C6_6 
REMARK    5  A    between atoms: C9_10  and  C10_11 
REMARK    6  A    between atoms: O1_18  and  C15_19 
ROOT
HETATM    1  C6  UNL     1      23.219   1.213  51.911  1.00  0.00     0.026 C 
HETATM    2  C7  UNL     1      24.201   0.640  52.578  1.00  0.00     0.030 A 
HETATM    3  C8  UNL     1      24.057  -0.284  53.729  1.00  0.00     0.208 A 
HETATM    4  N1  UNL     1      25.428  -0.594  54.056  1.00  0.00    -0.265 NA
HETATM    5  C9  UNL     1      26.248   0.012  53.269  1.00  0.00     0.150 A 
HETATM    6  N3  UNL     1      25.578   0.820  52.297  1.00  0.00    -0.341 N 
HETATM    7  H18 UNL     1      26.054   1.396  51.564  1.00  0.00     0.167 HD
ENDROOT
BRANCH   1   8
HETATM    8  C5  UNL     1      23.466   2.106  50.795  1.00  0.00    -0.002 C 
HETATM    9  C4  UNL     1      23.207   3.405  50.764  1.00  0.00    -0.024 C 
BRANCH   9  10
HETATM   10  C3  UNL     1      23.489   4.260  49.579  1.00  0.00     0.058 C 
BRANCH  10  11
HETATM   11  C2  UNL     1      24.099   5.533  50.065  1.00  0.00     0.122 C 
HETATM   12  C1  UNL     1      23.436   5.926  51.351  1.00  0.00     0.040 C 
BRANCH  11  13
HETATM   13  O1  UNL     1      25.455   5.521  50.195  1.00  0.00    -0.371 OA
BRANCH  13  14
HETATM   14  C15 UNL     1      26.162   5.158  49.078  1.00  0.00     0.282 C 
HETATM   15 CL1  UNL     1      26.853   3.542  49.384  1.00  0.00    -0.102 Cl
ENDBRANCH  13  14
ENDBRANCH  11  13
ENDBRANCH  10  11
ENDBRANCH   9  10
ENDBRANCH   1   8
BRANCH   5  16
HETATM   16  C10 UNL     1      27.697  -0.109  53.357  1.00  0.00     0.080 A 
HETATM   17  C11 UNL     1      28.462  -1.266  53.302  1.00  0.00     0.035 A 
HETATM   18  C12 UNL     1      29.806  -0.995  53.420  1.00  0.00     0.020 A 
HETATM   19  C13 UNL     1      29.859   0.373  53.551  1.00  0.00     0.091 A 
HETATM   20  N2  UNL     1      28.605   0.870  53.511  1.00  0.00    -0.358 N 
HETATM   21  C14 UNL     1      28.352   2.280  53.625  1.00  0.00     0.156 C 
ENDBRANCH   5  16
TORSDOF 6
ENDMDL
MODEL 5
REMARK VINA RESULT:      -6.6      2.932      5.179
REMARK  6 active torsions:
REMARK  status: ('A' for Active; 'I' for Inactive)
REMARK    1  A    between atoms: C2_2  and  C3_3 
REMARK    2  A    between atoms: C2_2  and  O1_18 
REMARK    3  A    between atoms: C3_3  and  C4_4 
REMARK    4  A    between atoms: C5_5  and  C6_6 
REMARK    5  A    between atoms: C9_10  and  C10_11 
REMARK    6  A    between atoms: O1_18  and  C15_19 
ROOT
HETATM    1  C6  UNL     1      26.707   2.670  51.149  1.00  0.00     0.026 C 
HETATM    2  C7  UNL     1      25.419   2.654  50.868  1.00  0.00     0.030 A 
HETATM    3  C8  UNL     1      24.753   3.388  49.764  1.00  0.00     0.208 A 
HETATM    4  N1  UNL     1      23.369   3.012  49.927  1.00  0.00    -0.265 NA
HETATM    5  C9  UNL     1      23.213   2.211  50.924  1.00  0.00     0.150 A 
HETATM    6  N3  UNL     1      24.446   1.919  51.589  1.00  0.00    -0.341 N 
HETATM    7  H18 UNL     1      24.545   1.292  52.422  1.00  0.00     0.167 HD
ENDROOT
BRANCH   1   8
HETATM    8  C5  UNL     1      27.262   1.914  52.255  1.00  0.00    -0.002 C 
HETATM    9  C4  UNL     1      28.239   2.311  53.057  1.00  0.00    -0.024 C 
BRANCH   9  10
HETATM   10  C3  UNL     1      28.758   1.477  54.176  1.00  0.00     0.058 C 
BRANCH  10  11
HETATM   11  C2  UNL     1      28.203   0.099  54.018  1.00  0.00     0.122 C 
HETATM   12  C1  UNL     1      29.319  -0.831  53.646  1.00  0.00     0.040 C 
BRANCH  11  13
HETATM   13  O1  UNL     1      27.503  -0.376  55.085  1.00  0.00    -0.371 OA
BRANCH  13  14
HETATM   14  C15 UNL     1      26.161  -0.096  55.095  1.00  0.00     0.282 C 
HETATM   15 CL1  UNL     1      25.451  -0.824  53.630  1.00  0.00    -0.102 Cl
ENDBRANCH  13  14
ENDBRANCH  11  13
ENDBRANCH  10  11
ENDBRANCH   9  10
ENDBRANCH   1   8
BRANCH   5  16
HETATM   16  C10 UNL     1      21.928   1.662  51.331  1.00  0.00     0.080 A 
HETATM   17  C11 UNL     1      21.473   0.358  51.191  1.00  0.00     0.035 A 
HETATM   18  C12 UNL     1      20.201   0.204  51.692  1.00  0.00     0.020 A 
HETATM   19  C13 UNL     1      19.872   1.458  52.154  1.00  0.00     0.091 A 
HETATM   20  N2  UNL     1      20.904   2.297  51.929  1.00  0.00    -0.358 N 
HETATM   21  C14 UNL     1      20.844   3.681  52.310  1.00  0.00     0.156 C 
ENDBRANCH   5  16
TORSDOF 6
ENDMDL
MODEL 6
REMARK VINA RESULT:      -6.5      1.591      2.394
REMARK  6 active torsions:
REMARK  status: ('A' for Active; 'I' for Inactive)
REMARK    1  A    between atoms: C2_2  and  C3_3 
REMARK    2  A    between atoms: C2_2  and  O1_18 
REMARK    3  A    between atoms: C3_3  and  C4_4 
REMARK    4  A    between atoms: C5_5  and  C6_6 
REMARK    5  A    between atoms: C9_10  and  C10_11 
REMARK    6  A    between atoms: O1_18  and  C15_19 
ROOT
HETATM    1  C6  UNL     1      25.363   3.095  50.122  1.00  0.00     0.026 C 
HETATM    2  C7  UNL     1      25.444   4.343  49.705  1.00  0.00     0.030 A 
HETATM    3  C8  UNL     1      24.426   5.070  48.907  1.00  0.00     0.208 A 
HETATM    4  N1  UNL     1      25.028   6.371  48.740  1.00  0.00    -0.265 NA
HETATM    5  C9  UNL     1      26.178   6.435  49.316  1.00  0.00     0.150 A 
HETATM    6  N3  UNL     1      26.538   5.207  49.957  1.00  0.00    -0.341 N 
HETATM    7  H18 UNL     1      27.429   5.042  50.481  1.00  0.00     0.167 HD
ENDROOT
BRANCH   1   8
HETATM    8  C5  UNL     1      26.417   2.474  50.900  1.00  0.00    -0.002 C 
HETATM    9  C4  UNL     1      26.251   1.742  51.991  1.00  0.00    -0.024 C 
BRANCH   9  10
HETATM   10  C3  UNL     1      27.386   1.134  52.740  1.00  0.00     0.058 C 
BRANCH  10  11
HETATM   11  C2  UNL     1      26.877  -0.087  53.433  1.00  0.00     0.122 C 
HETATM   12  C1  UNL     1      26.524  -1.116  52.401  1.00  0.00     0.040 C 
BRANCH  11  13
HETATM   13  O1  UNL     1      27.702  -0.608  54.384  1.00  0.00    -0.371 OA
BRANCH  13  14
HETATM   14  C15 UNL     1      28.907   0.025  54.546  1.00  0.00     0.282 C 
HETATM   15 CL1  UNL     1      30.148  -0.970  53.739  1.00  0.00    -0.102 Cl
ENDBRANCH  13  14
ENDBRANCH  11  13
ENDBRANCH  10  11
ENDBRANCH   9  10
ENDBRANCH   1   8
BRANCH   5  16
HETATM   16  C10 UNL     1      27.021   7.622  49.317  1.00  0.00     0.080 A 
HETATM   17  C11 UNL     1      26.851   8.789  50.051  1.00  0.00     0.035 A 
HETATM   18  C12 UNL     1      27.847   9.703  49.794  1.00  0.00     0.020 A 
HETATM   19  C13 UNL     1      28.650   9.069  48.874  1.00  0.00     0.091 A 
HETATM   20  N2  UNL     1      28.142   7.847  48.610  1.00  0.00    -0.358 N 
HETATM   21  C14 UNL     1      28.775   6.955  47.680  1.00  0.00     0.156 C 
ENDBRANCH   5  16
TORSDOF 6
ENDMDL
MODEL 7
REMARK VINA RESULT:      -6.5      3.681      7.415
REMARK  6 active torsions:
REMARK  status: ('A' for Active; 'I' for Inactive)
REMARK    1  A    between atoms: C2_2  and  C3_3 
REMARK    2  A    between atoms: C2_2  and  O1_18 
REMARK    3  A    between atoms: C3_3  and  C4_4 
REMARK    4  A    between atoms: C5_5  and  C6_6 
REMARK    5  A    between atoms: C9_10  and  C10_11 
REMARK    6  A    between atoms: O1_18  and  C15_19 
ROOT
HETATM    1  C6  UNL     1      25.847   4.844  49.373  1.00  0.00     0.026 C 
HETATM    2  C7  UNL     1      25.724   3.891  50.275  1.00  0.00     0.030 A 
HETATM    3  C8  UNL     1      24.513   3.593  51.078  1.00  0.00     0.208 A 
HETATM    4  N1  UNL     1      24.939   2.474  51.884  1.00  0.00    -0.265 NA
HETATM    5  C9  UNL     1      26.159   2.148  51.631  1.00  0.00     0.150 A 
HETATM    6  N3  UNL     1      26.751   2.980  50.629  1.00  0.00    -0.341 N 
HETATM    7  H18 UNL     1      27.732   2.889  50.275  1.00  0.00     0.167 HD
ENDROOT
BRANCH   1   8
HETATM    8  C5  UNL     1      27.080   5.055  48.639  1.00  0.00    -0.002 C 
HETATM    9  C4  UNL     1      27.751   6.193  48.554  1.00  0.00    -0.024 C 
BRANCH   9  10
HETATM   10  C3  UNL     1      29.014   6.334  47.778  1.00  0.00     0.058 C 
BRANCH  10  11
HETATM   11  C2  UNL     1      29.382   7.782  47.759  1.00  0.00     0.122 C 
HETATM   12  C1  UNL     1      28.414   8.514  46.878  1.00  0.00     0.040 C 
BRANCH  11  13
HETATM   13  O1  UNL     1      29.483   8.378  48.979  1.00  0.00    -0.371 OA
BRANCH  13  14
HETATM   14  C15 UNL     1      28.835   9.578  49.117  1.00  0.00     0.282 C 
HETATM   15 CL1  UNL     1      27.532   9.349  50.313  1.00  0.00    -0.102 Cl
ENDBRANCH  13  14
ENDBRANCH  11  13
ENDBRANCH  10  11
ENDBRANCH   9  10
ENDBRANCH   1   8
BRANCH   5  16
HETATM   16  C10 UNL     1      26.862   1.057  52.291  1.00  0.00     0.080 A 
HETATM   17  C11 UNL     1      26.614  -0.305  52.184  1.00  0.00     0.035 A 
HETATM   18  C12 UNL     1      27.482  -1.044  52.956  1.00  0.00     0.020 A 
HETATM   19  C13 UNL     1      28.283  -0.098  53.552  1.00  0.00     0.091 A 
HETATM   20  N2  UNL     1      27.897   1.129  53.145  1.00  0.00    -0.358 N 
HETATM   21  C14 UNL     1      28.559   2.317  53.608  1.00  0.00     0.156 C 
ENDBRANCH   5  16
TORSDOF 6
ENDMDL
MODEL 8
REMARK VINA RESULT:      -6.5      3.685      6.426
REMARK  6 active torsions:
REMARK  status: ('A' for Active; 'I' for Inactive)
REMARK    1  A    between atoms: C2_2  and  C3_3 
REMARK    2  A    between atoms: C2_2  and  O1_18 
REMARK    3  A    between atoms: C3_3  and  C4_4 
REMARK    4  A    between atoms: C5_5  and  C6_6 
REMARK    5  A    between atoms: C9_10  and  C10_11 
REMARK    6  A    between atoms: O1_18  and  C15_19 
ROOT
HETATM    1  C6  UNL     1      23.934   3.658  52.222  1.00  0.00     0.026 C 
HETATM    2  C7  UNL     1      22.667   3.299  52.278  1.00  0.00     0.030 A 
HETATM    3  C8  UNL     1      21.494   4.205  52.216  1.00  0.00     0.208 A 
HETATM    4  N1  UNL     1      20.384   3.289  52.321  1.00  0.00    -0.265 NA
HETATM    5  C9  UNL     1      20.788   2.070  52.426  1.00  0.00     0.150 A 
HETATM    6  N3  UNL     1      22.214   1.963  52.410  1.00  0.00    -0.341 N 
HETATM    7  H18 UNL     1      22.750   1.067  52.484  1.00  0.00     0.167 HD
ENDROOT
BRANCH   1   8
HETATM    8  C5  UNL     1      25.012   2.691  52.292  1.00  0.00    -0.002 C 
HETATM    9  C4  UNL     1      25.658   2.323  53.389  1.00  0.00    -0.024 C 
BRANCH   9  10
HETATM   10  C3  UNL     1      26.758   1.320  53.383  1.00  0.00     0.058 C 
BRANCH  10  11
HETATM   11  C2  UNL     1      26.379   0.216  54.316  1.00  0.00     0.122 C 
HETATM   12  C1  UNL     1      25.626  -0.827  53.547  1.00  0.00     0.040 C 
BRANCH  11  13
HETATM   13  O1  UNL     1      27.406  -0.337  55.018  1.00  0.00    -0.371 OA
BRANCH  13  14
HETATM   14  C15 UNL     1      28.646   0.202  54.794  1.00  0.00     0.282 C 
HETATM   15 CL1  UNL     1      29.573  -0.971  53.821  1.00  0.00    -0.102 Cl
ENDBRANCH  13  14
ENDBRANCH  11  13
ENDBRANCH  10  11
ENDBRANCH   9  10
ENDBRANCH   1   8
BRANCH   5  16
HETATM   16  C10 UNL     1      19.894   0.927  52.549  1.00  0.00     0.080 A 
HETATM   17  C11 UNL     1      18.825   0.588  51.731  1.00  0.00     0.035 A 
HETATM   18  C12 UNL     1      18.204  -0.565  52.154  1.00  0.00     0.020 A 
HETATM   19  C13 UNL     1      18.921  -0.939  53.267  1.00  0.00     0.091 A 
HETATM   20  N2  UNL     1      19.909  -0.044  53.478  1.00  0.00    -0.358 N 
HETATM   21  C14 UNL     1      20.823  -0.181  54.577  1.00  0.00     0.156 C 
ENDBRANCH   5  16
TORSDOF 6
ENDMDL
MODEL 9
REMARK VINA RESULT:      -6.4      4.483      6.690
REMARK  6 active torsions:
REMARK  status: ('A' for Active; 'I' for Inactive)
REMARK    1  A    between atoms: C2_2  and  C3_3 
REMARK    2  A    between atoms: C2_2  and  O1_18 
REMARK    3  A    between atoms: C3_3  and  C4_4 
REMARK    4  A    between atoms: C5_5  and  C6_6 
REMARK    5  A    between atoms: C9_10  and  C10_11 
REMARK    6  A    between atoms: O1_18  and  C15_19 
ROOT
HETATM    1  C6  UNL     1      23.414  -0.698  53.957  1.00  0.00     0.026 C 
HETATM    2  C7  UNL     1      22.129  -0.618  53.675  1.00  0.00     0.030 A 
HETATM    3  C8  UNL     1      21.029  -1.306  54.394  1.00  0.00     0.208 A 
HETATM    4  N1  UNL     1      19.859  -0.867  53.671  1.00  0.00    -0.265 NA
HETATM    5  C9  UNL     1      20.172  -0.073  52.706  1.00  0.00     0.150 A 
HETATM    6  N3  UNL     1      21.582   0.152  52.619  1.00  0.00    -0.341 N 
HETATM    7  H18 UNL     1      22.050   0.762  51.908  1.00  0.00     0.167 HD
ENDROOT
BRANCH   1   8
HETATM    8  C5  UNL     1      24.416   0.017  53.189  1.00  0.00    -0.002 C 
HETATM    9  C4  UNL     1      25.581  -0.467  52.788  1.00  0.00    -0.024 C 
BRANCH   9  10
HETATM   10  C3  UNL     1      26.562   0.329  52.000  1.00  0.00     0.058 C 
BRANCH  10  11
HETATM   11  C2  UNL     1      27.673   0.726  52.916  1.00  0.00     0.122 C 
HETATM   12  C1  UNL     1      27.661   2.217  53.072  1.00  0.00     0.040 C 
BRANCH  11  13
HETATM   13  O1  UNL     1      27.683   0.105  54.129  1.00  0.00    -0.371 OA
BRANCH  13  14
HETATM   14  C15 UNL     1      28.907  -0.007  54.736  1.00  0.00     0.282 C 
HETATM   15 CL1  UNL     1      29.997  -0.838  53.594  1.00  0.00    -0.102 Cl
ENDBRANCH  13  14
ENDBRANCH  11  13
ENDBRANCH  10  11
ENDBRANCH   9  10
ENDBRANCH   1   8
BRANCH   5  16
HETATM   16  C10 UNL     1      19.202   0.529  51.803  1.00  0.00     0.080 A 
HETATM   17  C11 UNL     1      18.233  -0.111  51.042  1.00  0.00     0.035 A 
HETATM   18  C12 UNL     1      17.493   0.783  50.302  1.00  0.00     0.020 A 
HETATM   19  C13 UNL     1      18.031   2.007  50.625  1.00  0.00     0.091 A 
HETATM   20  N2  UNL     1      19.035   1.830  51.509  1.00  0.00    -0.358 N 
HETATM   21  C14 UNL     1      19.784   2.941  52.027  1.00  0.00     0.156 C 
ENDBRANCH   5  16
TORSDOF 6
ENDMDL
