MODEL 1
REMARK VINA RESULT:      -7.6      0.000      0.000
REMARK  8 active torsions:
REMARK  status: ('A' for Active; 'I' for Inactive)
REMARK    1  A    between atoms: C3_3  and  C4_5 
REMARK    2  A    between atoms: C5_7  and  C6_8 
REMARK    3  A    between atoms: C6_8  and  N1_9 
REMARK    4  A    between atoms: N1_9  and  C7_10 
REMARK    5  A    between atoms: C12_16  and  N3_17 
REMARK       I    between atoms: N3_17  and  C13_18 
REMARK    6  A    between atoms: C13_18  and  C14_20 
REMARK    7  A    between atoms: C15_21  and  C16_22 
REMARK    8  A    between atoms: C16_22  and  O2_23 
ROOT
HETATM    1  C7  UNL     1      22.544   4.522  52.201  1.00  0.00     0.129 A 
HETATM    2  N2  UNL     1      21.249   4.522  52.142  1.00  0.00    -0.268 NA
HETATM    3  C8  UNL     1      20.728   3.177  52.280  1.00  0.00     0.190 A 
HETATM    4  C9  UNL     1      21.928   2.335  52.433  1.00  0.00    -0.024 A 
HETATM    5  C10 UNL     1      22.050   0.972  52.602  1.00  0.00     0.012 A 
HETATM    6  C11 UNL     1      23.366   0.504  52.716  1.00  0.00     0.030 A 
HETATM    7  C12 UNL     1      24.451   1.327  52.667  1.00  0.00     0.036 A 
HETATM    8  C17 UNL     1      24.327   2.673  52.500  1.00  0.00     0.045 A 
HETATM    9  C18 UNL     1      23.035   3.161  52.385  1.00  0.00     0.019 A 
ENDROOT
BRANCH   1  10
HETATM   10  N1  UNL     1      23.311   5.735  52.089  1.00  0.00    -0.371 N 
HETATM   11  H8  UNL     1      23.806   6.067  52.955  1.00  0.00     0.161 HD
BRANCH  10  12
HETATM   12  C6  UNL     1      23.324   6.392  50.773  1.00  0.00     0.150 C 
BRANCH  12  13
HETATM   13  C5  UNL     1      24.602   6.110  50.090  1.00  0.00     0.019 C 
HETATM   14  C4  UNL     1      25.180   5.069  49.484  1.00  0.00     0.070 C 
HETATM   15 CL1  UNL     1      26.785   5.336  48.837  1.00  0.00    -0.081 Cl
BRANCH  14  16
HETATM   16  C3  UNL     1      24.740   3.708  49.245  1.00  0.00     0.133 C 
HETATM   17  C2  UNL     1      23.573   3.200  48.872  1.00  0.00     0.013 C 
HETATM   18  C1  UNL     1      22.194   3.699  48.536  1.00  0.00     0.039 C 
HETATM   19  F1  UNL     1      25.842   2.921  49.480  1.00  0.00    -0.205 F 
ENDBRANCH  14  16
ENDBRANCH  12  13
ENDBRANCH  10  12
ENDBRANCH   1  10
BRANCH   7  20
HETATM   20  N3  UNL     1      25.697   0.656  52.803  1.00  0.00    -0.316 N 
HETATM   21  C13 UNL     1      27.086   0.893  52.711  1.00  0.00     0.301 C 
HETATM   22  O1  UNL     1      27.643   2.001  52.422  1.00  0.00    -0.258 OA
HETATM   23  H13 UNL     1      25.329  -0.290  53.048  1.00  0.00     0.170 HD
BRANCH  21  24
HETATM   24  C14 UNL     1      27.948  -0.227  52.969  1.00  0.00    -0.003 C 
HETATM   25  C15 UNL     1      28.667  -1.192  53.178  1.00  0.00    -0.071 C 
BRANCH  25  26
HETATM   26  C16 UNL     1      29.541  -2.333  53.434  1.00  0.00     0.258 C 
BRANCH  26  27
HETATM   27  O2  UNL     1      28.730  -3.465  53.483  1.00  0.00    -0.389 OA
HETATM   28  H16 UNL     1      28.620  -3.877  52.597  1.00  0.00     0.210 HD
ENDBRANCH  26  27
ENDBRANCH  25  26
ENDBRANCH  21  24
ENDBRANCH   7  20
TORSDOF 8
ENDMDL
MODEL 2
REMARK VINA RESULT:      -7.6      3.476      5.702
REMARK  8 active torsions:
REMARK  status: ('A' for Active; 'I' for Inactive)
REMARK    1  A    between atoms: C3_3  and  C4_5 
REMARK    2  A    between atoms: C5_7  and  C6_8 
REMARK    3  A    between atoms: C6_8  and  N1_9 
REMARK    4  A    between atoms: N1_9  and  C7_10 
REMARK    5  A    between atoms: C12_16  and  N3_17 
REMARK       I    between atoms: N3_17  and  C13_18 
REMARK    6  A    between atoms: C13_18  and  C14_20 
REMARK    7  A    between atoms: C15_21  and  C16_22 
REMARK    8  A    between atoms: C16_22  and  O2_23 
ROOT
HETATM    1  C7  UNL     1      27.083   2.314  52.254  1.00  0.00     0.129 A 
HETATM    2  N2  UNL     1      28.307   2.151  52.651  1.00  0.00    -0.268 NA
HETATM    3  C8  UNL     1      28.399   1.062  53.602  1.00  0.00     0.190 A 
HETATM    4  C9  UNL     1      27.014   0.573  53.731  1.00  0.00    -0.024 A 
HETATM    5  C10 UNL     1      26.493  -0.449  54.495  1.00  0.00     0.012 A 
HETATM    6  C11 UNL     1      25.111  -0.641  54.369  1.00  0.00     0.030 A 
HETATM    7  C12 UNL     1      24.331   0.123  53.552  1.00  0.00     0.036 A 
HETATM    8  C17 UNL     1      24.849   1.131  52.798  1.00  0.00     0.045 A 
HETATM    9  C18 UNL     1      26.214   1.340  52.906  1.00  0.00     0.019 A 
ENDROOT
BRANCH   1  10
HETATM   10  N1  UNL     1      26.719   3.334  51.306  1.00  0.00    -0.371 N 
HETATM   11  H8  UNL     1      26.628   4.314  51.673  1.00  0.00     0.161 HD
BRANCH  10  12
HETATM   12  C6  UNL     1      26.509   2.901  49.915  1.00  0.00     0.150 C 
BRANCH  12  13
HETATM   13  C5  UNL     1      25.442   3.714  49.299  1.00  0.00     0.019 C 
HETATM   14  C4  UNL     1      24.114   3.824  49.397  1.00  0.00     0.070 C 
HETATM   15 CL1  UNL     1      23.352   5.013  48.362  1.00  0.00    -0.081 Cl
BRANCH  14  16
HETATM   16  C3  UNL     1      23.133   3.134  50.212  1.00  0.00     0.133 C 
HETATM   17  C2  UNL     1      22.257   2.178  49.936  1.00  0.00     0.013 C 
HETATM   18  C1  UNL     1      21.828   1.366  48.744  1.00  0.00     0.039 C 
HETATM   19  F1  UNL     1      23.261   3.673  51.471  1.00  0.00    -0.205 F 
ENDBRANCH  14  16
ENDBRANCH  12  13
ENDBRANCH  10  12
ENDBRANCH   1  10
BRANCH   7  20
HETATM   20  N3  UNL     1      22.954  -0.232  53.566  1.00  0.00    -0.316 N 
HETATM   21  C13 UNL     1      22.018  -0.965  54.328  1.00  0.00     0.301 C 
HETATM   22  O1  UNL     1      22.259  -1.607  55.401  1.00  0.00    -0.258 OA
HETATM   23  H13 UNL     1      22.664   0.266  52.695  1.00  0.00     0.170 HD
BRANCH  21  24
HETATM   24  C14 UNL     1      20.667  -0.986  53.842  1.00  0.00    -0.003 C 
HETATM   25  C15 UNL     1      19.512  -1.016  53.445  1.00  0.00    -0.071 C 
BRANCH  25  26
HETATM   26  C16 UNL     1      18.136  -1.036  52.957  1.00  0.00     0.258 C 
BRANCH  26  27
HETATM   27  O2  UNL     1      17.316  -1.264  54.060  1.00  0.00    -0.389 OA
HETATM   28  H16 UNL     1      16.495  -1.749  53.814  1.00  0.00     0.210 HD
ENDBRANCH  26  27
ENDBRANCH  25  26
ENDBRANCH  21  24
ENDBRANCH   7  20
TORSDOF 8
ENDMDL
MODEL 3
REMARK VINA RESULT:      -7.5      3.550      5.673
REMARK  8 active torsions:
REMARK  status: ('A' for Active; 'I' for Inactive)
REMARK    1  A    between atoms: C3_3  and  C4_5 
REMARK    2  A    between atoms: C5_7  and  C6_8 
REMARK    3  A    between atoms: C6_8  and  N1_9 
REMARK    4  A    between atoms: N1_9  and  C7_10 
REMARK    5  A    between atoms: C12_16  and  N3_17 
REMARK       I    between atoms: N3_17  and  C13_18 
REMARK    6  A    between atoms: C13_18  and  C14_20 
REMARK    7  A    between atoms: C15_21  and  C16_22 
REMARK    8  A    between atoms: C16_22  and  O2_23 
ROOT
HETATM    1  C7  UNL     1      26.773   2.489  51.980  1.00  0.00     0.129 A 
HETATM    2  N2  UNL     1      28.026   2.394  52.301  1.00  0.00    -0.268 NA
HETATM    3  C8  UNL     1      28.234   1.317  53.247  1.00  0.00     0.190 A 
HETATM    4  C9  UNL     1      26.887   0.754  53.460  1.00  0.00    -0.024 A 
HETATM    5  C10 UNL     1      26.469  -0.290  54.257  1.00  0.00     0.012 A 
HETATM    6  C11 UNL     1      25.094  -0.556  54.215  1.00  0.00     0.030 A 
HETATM    7  C12 UNL     1      24.226   0.161  53.446  1.00  0.00     0.036 A 
HETATM    8  C17 UNL     1      24.642   1.192  52.660  1.00  0.00     0.045 A 
HETATM    9  C18 UNL     1      25.998   1.474  52.684  1.00  0.00     0.019 A 
ENDROOT
BRANCH   1  10
HETATM   10  N1  UNL     1      26.298   3.484  51.054  1.00  0.00    -0.371 N 
HETATM   11  H8  UNL     1      25.844   4.338  51.464  1.00  0.00     0.161 HD
BRANCH  10  12
HETATM   12  C6  UNL     1      26.495   3.204  49.622  1.00  0.00     0.150 C 
BRANCH  12  13
HETATM   13  C5  UNL     1      27.172   4.349  48.982  1.00  0.00     0.019 C 
HETATM   14  C4  UNL     1      26.954   5.659  48.835  1.00  0.00     0.070 C 
HETATM   15 CL1  UNL     1      28.155   6.553  47.929  1.00  0.00    -0.081 Cl
BRANCH  14  16
HETATM   16  C3  UNL     1      25.884   6.529  49.285  1.00  0.00     0.133 C 
HETATM   17  C2  UNL     1      24.584   6.554  49.025  1.00  0.00     0.013 C 
HETATM   18  C1  UNL     1      23.597   5.779  48.194  1.00  0.00     0.039 C 
HETATM   19  F1  UNL     1      26.480   7.433  50.132  1.00  0.00    -0.205 F 
ENDBRANCH  14  16
ENDBRANCH  12  13
ENDBRANCH  10  12
ENDBRANCH   1  10
BRANCH   7  20
HETATM   20  N3  UNL     1      22.873  -0.267  53.544  1.00  0.00    -0.316 N 
HETATM   21  C13 UNL     1      22.026  -1.046  54.362  1.00  0.00     0.301 C 
HETATM   22  O1  UNL     1      22.366  -1.669  55.420  1.00  0.00    -0.258 OA
HETATM   23  H13 UNL     1      22.505   0.211  52.691  1.00  0.00     0.170 HD
BRANCH  21  24
HETATM   24  C14 UNL     1      20.651  -1.141  53.959  1.00  0.00    -0.003 C 
HETATM   25  C15 UNL     1      19.477  -1.230  53.636  1.00  0.00    -0.071 C 
BRANCH  25  26
HETATM   26  C16 UNL     1      18.077  -1.324  53.233  1.00  0.00     0.258 C 
BRANCH  26  27
HETATM   27  O2  UNL     1      17.486  -2.301  54.032  1.00  0.00    -0.389 OA
HETATM   28  H16 UNL     1      16.559  -2.487  53.761  1.00  0.00     0.210 HD
ENDBRANCH  26  27
ENDBRANCH  25  26
ENDBRANCH  21  24
ENDBRANCH   7  20
TORSDOF 8
ENDMDL
MODEL 4
REMARK VINA RESULT:      -7.4      3.870      6.131
REMARK  8 active torsions:
REMARK  status: ('A' for Active; 'I' for Inactive)
REMARK    1  A    between atoms: C3_3  and  C4_5 
REMARK    2  A    between atoms: C5_7  and  C6_8 
REMARK    3  A    between atoms: C6_8  and  N1_9 
REMARK    4  A    between atoms: N1_9  and  C7_10 
REMARK    5  A    between atoms: C12_16  and  N3_17 
REMARK       I    between atoms: N3_17  and  C13_18 
REMARK    6  A    between atoms: C13_18  and  C14_20 
REMARK    7  A    between atoms: C15_21  and  C16_22 
REMARK    8  A    between atoms: C16_22  and  O2_23 
ROOT
HETATM    1  C7  UNL     1      26.678   2.503  51.980  1.00  0.00     0.129 A 
HETATM    2  N2  UNL     1      27.919   2.323  52.310  1.00  0.00    -0.268 NA
HETATM    3  C8  UNL     1      28.056   1.189  53.199  1.00  0.00     0.190 A 
HETATM    4  C9  UNL     1      26.679   0.690  53.369  1.00  0.00    -0.024 A 
HETATM    5  C10 UNL     1      26.194  -0.370  54.105  1.00  0.00     0.012 A 
HETATM    6  C11 UNL     1      24.808  -0.558  54.034  1.00  0.00     0.030 A 
HETATM    7  C12 UNL     1      23.990   0.243  53.294  1.00  0.00     0.036 A 
HETATM    8  C17 UNL     1      24.472   1.289  52.568  1.00  0.00     0.045 A 
HETATM    9  C18 UNL     1      25.840   1.496  52.622  1.00  0.00     0.019 A 
ENDROOT
BRANCH   1  10
HETATM   10  N1  UNL     1      26.270   3.568  51.102  1.00  0.00    -0.371 N 
HETATM   11  H8  UNL     1      25.629   4.298  51.504  1.00  0.00     0.161 HD
BRANCH  10  12
HETATM   12  C6  UNL     1      26.790   3.529  49.726  1.00  0.00     0.150 C 
BRANCH  12  13
HETATM   13  C5  UNL     1      26.557   4.830  49.070  1.00  0.00     0.019 C 
HETATM   14  C4  UNL     1      27.295   5.783  48.494  1.00  0.00     0.070 C 
HETATM   15 CL1  UNL     1      26.428   7.169  47.868  1.00  0.00    -0.081 Cl
BRANCH  14  16
HETATM   16  C3  UNL     1      28.722   5.916  48.273  1.00  0.00     0.133 C 
HETATM   17  C2  UNL     1      29.551   6.945  48.383  1.00  0.00     0.013 C 
HETATM   18  C1  UNL     1      29.478   8.403  48.750  1.00  0.00     0.039 C 
HETATM   19  F1  UNL     1      29.151   4.665  47.895  1.00  0.00    -0.205 F 
ENDBRANCH  14  16
ENDBRANCH  12  13
ENDBRANCH  10  12
ENDBRANCH   1  10
BRANCH   7  20
HETATM   20  N3  UNL     1      22.615  -0.115  53.355  1.00  0.00    -0.316 N 
HETATM   21  C13 UNL     1      21.690  -0.778  54.192  1.00  0.00     0.301 C 
HETATM   22  O1  UNL     1      21.945  -1.314  55.318  1.00  0.00    -0.258 OA
HETATM   23  H13 UNL     1      22.314   0.298  52.444  1.00  0.00     0.170 HD
BRANCH  21  24
HETATM   24  C14 UNL     1      20.334  -0.850  53.723  1.00  0.00    -0.003 C 
HETATM   25  C15 UNL     1      19.188  -0.901  53.306  1.00  0.00    -0.071 C 
BRANCH  25  26
HETATM   26  C16 UNL     1      17.812  -0.975  52.822  1.00  0.00     0.258 C 
BRANCH  26  27
HETATM   27  O2  UNL     1      17.004  -1.227  53.929  1.00  0.00    -0.389 OA
HETATM   28  H16 UNL     1      17.007  -2.179  54.177  1.00  0.00     0.210 HD
ENDBRANCH  26  27
ENDBRANCH  25  26
ENDBRANCH  21  24
ENDBRANCH   7  20
TORSDOF 8
ENDMDL
MODEL 5
REMARK VINA RESULT:      -7.3      2.683      3.794
REMARK  8 active torsions:
REMARK  status: ('A' for Active; 'I' for Inactive)
REMARK    1  A    between atoms: C3_3  and  C4_5 
REMARK    2  A    between atoms: C5_7  and  C6_8 
REMARK    3  A    between atoms: C6_8  and  N1_9 
REMARK    4  A    between atoms: N1_9  and  C7_10 
REMARK    5  A    between atoms: C12_16  and  N3_17 
REMARK       I    between atoms: N3_17  and  C13_18 
REMARK    6  A    between atoms: C13_18  and  C14_20 
REMARK    7  A    between atoms: C15_21  and  C16_22 
REMARK    8  A    between atoms: C16_22  and  O2_23 
ROOT
HETATM    1  C7  UNL     1      20.194   0.551  51.544  1.00  0.00     0.129 A 
HETATM    2  N2  UNL     1      19.023   0.098  51.872  1.00  0.00    -0.268 NA
HETATM    3  C8  UNL     1      19.100  -0.705  53.075  1.00  0.00     0.190 A 
HETATM    4  C9  UNL     1      20.528  -0.675  53.442  1.00  0.00    -0.024 A 
HETATM    5  C10 UNL     1      21.194  -1.261  54.497  1.00  0.00     0.012 A 
HETATM    6  C11 UNL     1      22.573  -1.019  54.538  1.00  0.00     0.030 A 
HETATM    7  C12 UNL     1      23.218  -0.260  53.607  1.00  0.00     0.036 A 
HETATM    8  C17 UNL     1      22.557   0.318  52.566  1.00  0.00     0.045 A 
HETATM    9  C18 UNL     1      21.192   0.093  52.505  1.00  0.00     0.019 A 
ENDROOT
BRANCH   1  10
HETATM   10  N1  UNL     1      20.392   1.378  50.383  1.00  0.00    -0.371 N 
HETATM   11  H8  UNL     1      19.747   2.199  50.268  1.00  0.00     0.161 HD
BRANCH  10  12
HETATM   12  C6  UNL     1      21.479   0.989  49.471  1.00  0.00     0.150 C 
BRANCH  12  13
HETATM   13  C5  UNL     1      22.254   2.185  49.085  1.00  0.00     0.019 C 
HETATM   14  C4  UNL     1      23.096   3.039  49.674  1.00  0.00     0.070 C 
HETATM   15 CL1  UNL     1      23.726   4.328  48.671  1.00  0.00    -0.081 Cl
BRANCH  14  16
HETATM   16  C3  UNL     1      23.614   3.127  51.026  1.00  0.00     0.133 C 
HETATM   17  C2  UNL     1      24.813   2.887  51.540  1.00  0.00     0.013 C 
HETATM   18  C1  UNL     1      26.162   2.425  51.059  1.00  0.00     0.039 C 
HETATM   19  F1  UNL     1      22.558   3.556  51.794  1.00  0.00    -0.205 F 
ENDBRANCH  14  16
ENDBRANCH  12  13
ENDBRANCH  10  12
ENDBRANCH   1  10
BRANCH   7  20
HETATM   20  N3  UNL     1      24.617  -0.134  53.828  1.00  0.00    -0.316 N 
HETATM   21  C13 UNL     1      25.611  -0.452  54.780  1.00  0.00     0.301 C 
HETATM   22  O1  UNL     1      25.425  -1.051  55.889  1.00  0.00    -0.258 OA
HETATM   23  H13 UNL     1      24.863   0.360  52.941  1.00  0.00     0.170 HD
BRANCH  21  24
HETATM   24  C14 UNL     1      26.956  -0.062  54.462  1.00  0.00    -0.003 C 
HETATM   25  C15 UNL     1      28.102   0.251  54.182  1.00  0.00    -0.071 C 
BRANCH  25  26
HETATM   26  C16 UNL     1      29.469   0.644  53.853  1.00  0.00     0.258 C 
BRANCH  26  27
HETATM   27  O2  UNL     1      29.391   1.851  53.160  1.00  0.00    -0.389 OA
HETATM   28  H16 UNL     1      30.275   2.270  53.051  1.00  0.00     0.210 HD
ENDBRANCH  26  27
ENDBRANCH  25  26
ENDBRANCH  21  24
ENDBRANCH   7  20
TORSDOF 8
ENDMDL
MODEL 6
REMARK VINA RESULT:      -7.2      2.536      3.870
REMARK  8 active torsions:
REMARK  status: ('A' for Active; 'I' for Inactive)
REMARK    1  A    between atoms: C3_3  and  C4_5 
REMARK    2  A    between atoms: C5_7  and  C6_8 
REMARK    3  A    between atoms: C6_8  and  N1_9 
REMARK    4  A    between atoms: N1_9  and  C7_10 
REMARK    5  A    between atoms: C12_16  and  N3_17 
REMARK       I    between atoms: N3_17  and  C13_18 
REMARK    6  A    between atoms: C13_18  and  C14_20 
REMARK    7  A    between atoms: C15_21  and  C16_22 
REMARK    8  A    between atoms: C16_22  and  O2_23 
ROOT
HETATM    1  C7  UNL     1      23.236   5.240  50.865  1.00  0.00     0.129 A 
HETATM    2  N2  UNL     1      23.158   6.103  49.901  1.00  0.00    -0.268 NA
HETATM    3  C8  UNL     1      24.283   5.970  48.998  1.00  0.00     0.190 A 
HETATM    4  C9  UNL     1      25.080   4.869  49.570  1.00  0.00    -0.024 A 
HETATM    5  C10 UNL     1      26.260   4.300  49.139  1.00  0.00     0.012 A 
HETATM    6  C11 UNL     1      26.742   3.256  49.939  1.00  0.00     0.030 A 
HETATM    7  C12 UNL     1      26.099   2.827  51.062  1.00  0.00     0.036 A 
HETATM    8  C17 UNL     1      24.934   3.391  51.484  1.00  0.00     0.045 A 
HETATM    9  C18 UNL     1      24.437   4.426  50.710  1.00  0.00     0.019 A 
ENDROOT
BRANCH   1  10
HETATM   10  N1  UNL     1      22.239   5.163  51.901  1.00  0.00    -0.371 N 
HETATM   11  H8  UNL     1      22.380   5.774  52.743  1.00  0.00     0.161 HD
BRANCH  10  12
HETATM   12  C6  UNL     1      21.121   4.232  51.676  1.00  0.00     0.150 C 
BRANCH  12  13
HETATM   13  C5  UNL     1      21.402   2.948  52.348  1.00  0.00     0.019 C 
HETATM   14  C4  UNL     1      21.422   1.654  52.018  1.00  0.00     0.070 C 
HETATM   15 CL1  UNL     1      21.841   0.530  53.292  1.00  0.00    -0.081 Cl
BRANCH  14  16
HETATM   16  C3  UNL     1      21.154   0.957  50.774  1.00  0.00     0.133 C 
HETATM   17  C2  UNL     1      21.572   1.156  49.531  1.00  0.00     0.013 C 
HETATM   18  C1  UNL     1      22.458   2.123  48.792  1.00  0.00     0.039 C 
HETATM   19  F1  UNL     1      20.306  -0.072  51.107  1.00  0.00    -0.205 F 
ENDBRANCH  14  16
ENDBRANCH  12  13
ENDBRANCH  10  12
ENDBRANCH   1  10
BRANCH   7  20
HETATM   20  N3  UNL     1      26.752   1.755  51.732  1.00  0.00    -0.316 N 
HETATM   21  C13 UNL     1      27.091   1.319  53.032  1.00  0.00     0.301 C 
HETATM   22  O1  UNL     1      26.827   1.924  54.121  1.00  0.00    -0.258 OA
HETATM   23  H13 UNL     1      27.009   1.191  50.892  1.00  0.00     0.170 HD
BRANCH  21  24
HETATM   24  C14 UNL     1      27.800   0.074  53.128  1.00  0.00    -0.003 C 
HETATM   25  C15 UNL     1      28.420  -0.975  53.202  1.00  0.00    -0.071 C 
BRANCH  25  26
HETATM   26  C16 UNL     1      29.147  -2.237  53.302  1.00  0.00     0.258 C 
BRANCH  26  27
HETATM   27  O2  UNL     1      28.294  -3.237  52.839  1.00  0.00    -0.389 OA
HETATM   28  H16 UNL     1      28.784  -3.950  52.370  1.00  0.00     0.210 HD
ENDBRANCH  26  27
ENDBRANCH  25  26
ENDBRANCH  21  24
ENDBRANCH   7  20
TORSDOF 8
ENDMDL
MODEL 7
REMARK VINA RESULT:      -7.1      2.318      3.172
REMARK  8 active torsions:
REMARK  status: ('A' for Active; 'I' for Inactive)
REMARK    1  A    between atoms: C3_3  and  C4_5 
REMARK    2  A    between atoms: C5_7  and  C6_8 
REMARK    3  A    between atoms: C6_8  and  N1_9 
REMARK    4  A    between atoms: N1_9  and  C7_10 
REMARK    5  A    between atoms: C12_16  and  N3_17 
REMARK       I    between atoms: N3_17  and  C13_18 
REMARK    6  A    between atoms: C13_18  and  C14_20 
REMARK    7  A    between atoms: C15_21  and  C16_22 
REMARK    8  A    between atoms: C16_22  and  O2_23 
ROOT
HETATM    1  C7  UNL     1      20.131   0.657  51.707  1.00  0.00     0.129 A 
HETATM    2  N2  UNL     1      18.966   0.326  52.169  1.00  0.00    -0.268 NA
HETATM    3  C8  UNL     1      19.097  -0.510  53.345  1.00  0.00     0.190 A 
HETATM    4  C9  UNL     1      20.553  -0.644  53.536  1.00  0.00    -0.024 A 
HETATM    5  C10 UNL     1      21.271  -1.326  54.495  1.00  0.00     0.012 A 
HETATM    6  C11 UNL     1      22.664  -1.235  54.371  1.00  0.00     0.030 A 
HETATM    7  C12 UNL     1      23.273  -0.527  53.377  1.00  0.00     0.036 A 
HETATM    8  C17 UNL     1      22.560   0.144  52.431  1.00  0.00     0.045 A 
HETATM    9  C18 UNL     1      21.181   0.070  52.533  1.00  0.00     0.019 A 
ENDROOT
BRANCH   1  10
HETATM   10  N1  UNL     1      20.280   1.486  50.540  1.00  0.00    -0.371 N 
HETATM   11  H8  UNL     1      20.540   1.004  49.643  1.00  0.00     0.161 HD
BRANCH  10  12
HETATM   12  C6  UNL     1      20.054   2.929  50.719  1.00  0.00     0.150 C 
BRANCH  12  13
HETATM   13  C5  UNL     1      21.178   3.517  51.475  1.00  0.00     0.019 C 
HETATM   14  C4  UNL     1      22.505   3.607  51.345  1.00  0.00     0.070 C 
HETATM   15 CL1  UNL     1      23.357   4.457  52.616  1.00  0.00    -0.081 Cl
BRANCH  14  16
HETATM   16  C3  UNL     1      23.424   3.126  50.331  1.00  0.00     0.133 C 
HETATM   17  C2  UNL     1      23.366   3.115  49.006  1.00  0.00     0.013 C 
HETATM   18  C1  UNL     1      22.407   3.542  47.927  1.00  0.00     0.039 C 
HETATM   19  F1  UNL     1      24.503   2.629  51.022  1.00  0.00    -0.205 F 
ENDBRANCH  14  16
ENDBRANCH  12  13
ENDBRANCH  10  12
ENDBRANCH   1  10
BRANCH   7  20
HETATM   20  N3  UNL     1      24.694  -0.560  53.427  1.00  0.00    -0.316 N 
HETATM   21  C13 UNL     1      25.804   0.291  53.619  1.00  0.00     0.301 C 
HETATM   22  O1  UNL     1      25.762   1.545  53.837  1.00  0.00    -0.258 OA
HETATM   23  H13 UNL     1      24.824  -1.582  53.254  1.00  0.00     0.170 HD
BRANCH  21  24
HETATM   24  C14 UNL     1      27.102  -0.322  53.563  1.00  0.00    -0.003 C 
HETATM   25  C15 UNL     1      28.198  -0.858  53.530  1.00  0.00    -0.071 C 
BRANCH  25  26
HETATM   26  C16 UNL     1      29.514  -1.487  53.473  1.00  0.00     0.258 C 
BRANCH  26  27
HETATM   27  O2  UNL     1      29.307  -2.865  53.451  1.00  0.00    -0.389 OA
HETATM   28  H16 UNL     1      29.258  -3.215  52.532  1.00  0.00     0.210 HD
ENDBRANCH  26  27
ENDBRANCH  25  26
ENDBRANCH  21  24
ENDBRANCH   7  20
TORSDOF 8
ENDMDL
MODEL 8
REMARK VINA RESULT:      -7.0      3.943      6.176
REMARK  8 active torsions:
REMARK  status: ('A' for Active; 'I' for Inactive)
REMARK    1  A    between atoms: C3_3  and  C4_5 
REMARK    2  A    between atoms: C5_7  and  C6_8 
REMARK    3  A    between atoms: C6_8  and  N1_9 
REMARK    4  A    between atoms: N1_9  and  C7_10 
REMARK    5  A    between atoms: C12_16  and  N3_17 
REMARK       I    between atoms: N3_17  and  C13_18 
REMARK    6  A    between atoms: C13_18  and  C14_20 
REMARK    7  A    between atoms: C15_21  and  C16_22 
REMARK    8  A    between atoms: C16_22  and  O2_23 
ROOT
HETATM    1  C7  UNL     1      21.543  -0.413  54.349  1.00  0.00     0.129 A 
HETATM    2  N2  UNL     1      21.749  -1.325  55.248  1.00  0.00    -0.268 NA
HETATM    3  C8  UNL     1      23.164  -1.592  55.396  1.00  0.00     0.190 A 
HETATM    4  C9  UNL     1      23.809  -0.686  54.428  1.00  0.00    -0.024 A 
HETATM    5  C10 UNL     1      25.142  -0.499  54.126  1.00  0.00     0.012 A 
HETATM    6  C11 UNL     1      25.398   0.460  53.138  1.00  0.00     0.030 A 
HETATM    7  C12 UNL     1      24.409   1.163  52.516  1.00  0.00     0.036 A 
HETATM    8  C17 UNL     1      23.094   0.976  52.816  1.00  0.00     0.045 A 
HETATM    9  C18 UNL     1      22.816   0.032  53.790  1.00  0.00     0.019 A 
ENDROOT
BRANCH   1  10
HETATM   10  N1  UNL     1      20.219   0.036  54.009  1.00  0.00    -0.371 N 
HETATM   11  H8  UNL     1      20.011   1.056  54.151  1.00  0.00     0.161 HD
BRANCH  10  12
HETATM   12  C6  UNL     1      19.285  -0.980  53.498  1.00  0.00     0.150 C 
BRANCH  12  13
HETATM   13  C5  UNL     1      18.538  -0.435  52.347  1.00  0.00     0.019 C 
HETATM   14  C4  UNL     1      18.776   0.403  51.334  1.00  0.00     0.070 C 
HETATM   15 CL1  UNL     1      17.446   0.690  50.232  1.00  0.00    -0.081 Cl
BRANCH  14  16
HETATM   16  C3  UNL     1      19.951   1.157  50.943  1.00  0.00     0.133 C 
HETATM   17  C2  UNL     1      20.226   2.454  50.959  1.00  0.00     0.013 C 
HETATM   18  C1  UNL     1      19.538   3.737  51.342  1.00  0.00     0.039 C 
HETATM   19  F1  UNL     1      20.858   0.220  50.507  1.00  0.00    -0.205 F 
ENDBRANCH  14  16
ENDBRANCH  12  13
ENDBRANCH  10  12
ENDBRANCH   1  10
BRANCH   7  20
HETATM   20  N3  UNL     1      24.878   2.090  51.544  1.00  0.00    -0.316 N 
HETATM   21  C13 UNL     1      24.486   2.701  50.333  1.00  0.00     0.301 C 
HETATM   22  O1  UNL     1      23.388   2.512  49.716  1.00  0.00    -0.258 OA
HETATM   23  H13 UNL     1      25.802   2.307  51.980  1.00  0.00     0.170 HD
BRANCH  21  24
HETATM   24  C14 UNL     1      25.417   3.623  49.746  1.00  0.00    -0.003 C 
HETATM   25  C15 UNL     1      26.226   4.396  49.256  1.00  0.00    -0.071 C 
BRANCH  25  26
HETATM   26  C16 UNL     1      27.178   5.328  48.659  1.00  0.00     0.258 C 
BRANCH  26  27
HETATM   27  O2  UNL     1      28.431   5.029  49.193  1.00  0.00    -0.389 OA
HETATM   28  H16 UNL     1      28.783   4.177  48.851  1.00  0.00     0.210 HD
ENDBRANCH  26  27
ENDBRANCH  25  26
ENDBRANCH  21  24
ENDBRANCH   7  20
TORSDOF 8
ENDMDL
MODEL 9
REMARK VINA RESULT:      -6.9      4.249      6.765
REMARK  8 active torsions:
REMARK  status: ('A' for Active; 'I' for Inactive)
REMARK    1  A    between atoms: C3_3  and  C4_5 
REMARK    2  A    between atoms: C5_7  and  C6_8 
REMARK    3  A    between atoms: C6_8  and  N1_9 
REMARK    4  A    between atoms: N1_9  and  C7_10 
REMARK    5  A    between atoms: C12_16  and  N3_17 
REMARK       I    between atoms: N3_17  and  C13_18 
REMARK    6  A    between atoms: C13_18  and  C14_20 
REMARK    7  A    between atoms: C15_21  and  C16_22 
REMARK    8  A    between atoms: C16_22  and  O2_23 
ROOT
HETATM    1  C7  UNL     1      24.065   3.482  52.326  1.00  0.00     0.129 A 
HETATM    2  N2  UNL     1      24.104   4.688  51.850  1.00  0.00    -0.268 NA
HETATM    3  C8  UNL     1      22.781   5.129  51.457  1.00  0.00     0.190 A 
HETATM    4  C9  UNL     1      21.907   3.983  51.771  1.00  0.00    -0.024 A 
HETATM    5  C10 UNL     1      20.547   3.824  51.611  1.00  0.00     0.012 A 
HETATM    6  C11 UNL     1      20.041   2.584  52.023  1.00  0.00     0.030 A 
HETATM    7  C12 UNL     1      20.829   1.601  52.545  1.00  0.00     0.036 A 
HETATM    8  C17 UNL     1      22.172   1.762  52.701  1.00  0.00     0.045 A 
HETATM    9  C18 UNL     1      22.696   2.980  52.301  1.00  0.00     0.019 A 
ENDROOT
BRANCH   1  10
HETATM   10  N1  UNL     1      25.250   2.808  52.788  1.00  0.00    -0.371 N 
HETATM   11  H8  UNL     1      25.382   2.737  53.828  1.00  0.00     0.161 HD
BRANCH  10  12
HETATM   12  C6  UNL     1      26.161   2.287  51.757  1.00  0.00     0.150 C 
BRANCH  12  13
HETATM   13  C5  UNL     1      26.269   0.820  51.885  1.00  0.00     0.019 C 
HETATM   14  C4  UNL     1      26.818  -0.051  52.736  1.00  0.00     0.070 C 
HETATM   15 CL1  UNL     1      26.618  -1.747  52.353  1.00  0.00    -0.081 Cl
BRANCH  14  16
HETATM   16  C3  UNL     1      27.580   0.123  53.958  1.00  0.00     0.133 C 
HETATM   17  C2  UNL     1      28.834  -0.168  54.277  1.00  0.00     0.013 C 
HETATM   18  C1  UNL     1      30.039  -0.788  53.621  1.00  0.00     0.039 C 
HETATM   19  F1  UNL     1      26.714   0.714  54.847  1.00  0.00    -0.205 F 
ENDBRANCH  14  16
ENDBRANCH  12  13
ENDBRANCH  10  12
ENDBRANCH   1  10
BRANCH   7  20
HETATM   20  N3  UNL     1      20.123   0.419  52.902  1.00  0.00    -0.316 N 
HETATM   21  C13 UNL     1      20.198  -0.677  53.789  1.00  0.00     0.301 C 
HETATM   22  O1  UNL     1      21.115  -0.888  54.648  1.00  0.00    -0.258 OA
HETATM   23  H13 UNL     1      19.330   0.512  52.229  1.00  0.00     0.170 HD
BRANCH  21  24
HETATM   24  C14 UNL     1      19.137  -1.641  53.711  1.00  0.00    -0.003 C 
HETATM   25  C15 UNL     1      18.234  -2.458  53.623  1.00  0.00    -0.071 C 
BRANCH  25  26
HETATM   26  C16 UNL     1      17.158  -3.441  53.538  1.00  0.00     0.258 C 
BRANCH  26  27
HETATM   27  O2  UNL     1      15.998  -2.748  53.197  1.00  0.00    -0.389 OA
HETATM   28  H16 UNL     1      15.720  -2.928  52.271  1.00  0.00     0.210 HD
ENDBRANCH  26  27
ENDBRANCH  25  26
ENDBRANCH  21  24
ENDBRANCH   7  20
TORSDOF 8
ENDMDL
