MODEL 1
REMARK VINA RESULT:      -8.8      0.000      0.000
REMARK  5 active torsions:
REMARK  status: ('A' for Active; 'I' for Inactive)
REMARK    1  A    between atoms: N1_1  and  C1_2 
REMARK    2  A    between atoms: C6_9  and  C7_10 
REMARK       I    between atoms: N4_19  and  C14_20 
REMARK    3  A    between atoms: C14_20  and  C15_22 
REMARK    4  A    between atoms: C15_22  and  C16_23 
REMARK    5  A    between atoms: C16_23  and  N5_24 
ROOT
HETATM    1  C1  UNL     1      25.529   2.655  51.004  1.00  0.00     0.121 A 
HETATM    2  C2  UNL     1      24.557   2.302  51.775  1.00  0.00     0.049 A 
HETATM    3  C3  UNL     1      23.283   2.789  52.222  1.00  0.00     0.000 A 
HETATM    4  C4  UNL     1      22.211   2.121  52.742  1.00  0.00     0.130 C 
HETATM    5  N2  UNL     1      22.234   0.686  52.905  1.00  0.00    -0.253 NA
HETATM    6  C5  UNL     1      23.132  -0.202  53.077  1.00  0.00     0.233 C 
HETATM    7  N3  UNL     1      24.494   0.172  53.156  1.00  0.00    -0.240 NA
HETATM    8  C6  UNL     1      25.123   1.209  52.635  1.00  0.00     0.083 C 
HETATM    9  C13 UNL     1      22.736   4.100  51.798  1.00  0.00     0.049 A 
HETATM   10  P1  UNL     1      23.771   4.913  50.746  1.00  0.00     0.073 P 
HETATM   11  N4  UNL     1      25.280   3.955  50.412  1.00  0.00    -0.268 N 
HETATM   12  C14 UNL     1      26.266   4.521  49.511  1.00  0.00     0.231 C 
HETATM   13  O1  UNL     1      27.373   3.997  49.158  1.00  0.00    -0.273 OA
ENDROOT
BRANCH   1  14
HETATM   14  N1  UNL     1      26.694   1.889  50.758  1.00  0.00    -0.384 N 
HETATM   15  H1  UNL     1      27.002   1.585  49.811  1.00  0.00     0.157 HD
HETATM   16  H2  UNL     1      27.405   1.545  51.419  1.00  0.00     0.157 HD
ENDBRANCH   1  14
BRANCH  12  17
HETATM   17  C15 UNL     1      25.963   5.853  48.934  1.00  0.00     0.134 C 
BRANCH  17  18
HETATM   18  C16 UNL     1      27.227   6.523  48.526  1.00  0.00     0.282 C 
BRANCH  18  19
HETATM   19  N5  UNL     1      27.047   7.891  48.074  1.00  0.00     0.093 N 
HETATM   20  C17 UNL     1      25.692   8.256  48.406  1.00  0.00     0.298 C 
HETATM   21  C18 UNL     1      25.557   9.686  48.855  1.00  0.00     0.198 C 
HETATM   22  O2  UNL     1      26.360   9.991  49.942  1.00  0.00    -0.388 OA
HETATM   23  C19 UNL     1      27.470   9.160  50.043  1.00  0.00     0.198 C 
HETATM   24  C20 UNL     1      27.959   8.826  48.656  1.00  0.00     0.298 C 
ENDBRANCH  18  19
ENDBRANCH  17  18
ENDBRANCH  12  17
BRANCH   8  25
HETATM   25  C7  UNL     1      26.527   1.271  53.139  1.00  0.00    -0.005 A 
HETATM   26  C8  UNL     1      27.392   2.252  53.561  1.00  0.00     0.014 A 
HETATM   27  C9  UNL     1      28.707   2.187  53.906  1.00  0.00     0.002 A 
HETATM   28  C10 UNL     1      29.274   0.948  53.827  1.00  0.00     0.019 A 
HETATM   29  C11 UNL     1      28.538  -0.132  53.424  1.00  0.00     0.011 A 
HETATM   30 BR1  UNL     1      29.394  -1.833  53.336  1.00  0.00    -0.051 Br
HETATM   31  C12 UNL     1      27.230   0.054  53.103  1.00  0.00     0.032 A 
ENDBRANCH   8  25
TORSDOF 5
ENDMDL
MODEL 2
REMARK VINA RESULT:      -8.3      1.972      2.473
REMARK  5 active torsions:
REMARK  status: ('A' for Active; 'I' for Inactive)
REMARK    1  A    between atoms: N1_1  and  C1_2 
REMARK    2  A    between atoms: C6_9  and  C7_10 
REMARK       I    between atoms: N4_19  and  C14_20 
REMARK    3  A    between atoms: C14_20  and  C15_22 
REMARK    4  A    between atoms: C15_22  and  C16_23 
REMARK    5  A    between atoms: C16_23  and  N5_24 
ROOT
HETATM    1  C1  UNL     1      25.548   3.843  50.353  1.00  0.00     0.121 A 
HETATM    2  C2  UNL     1      24.508   3.941  51.111  1.00  0.00     0.049 A 
HETATM    3  C3  UNL     1      23.591   4.937  51.584  1.00  0.00     0.000 A 
HETATM    4  C4  UNL     1      22.322   4.812  52.077  1.00  0.00     0.130 C 
HETATM    5  N2  UNL     1      21.683   3.520  52.171  1.00  0.00    -0.253 NA
HETATM    6  C5  UNL     1      22.072   2.313  52.299  1.00  0.00     0.233 C 
HETATM    7  N3  UNL     1      23.452   2.018  52.391  1.00  0.00    -0.240 NA
HETATM    8  C6  UNL     1      24.496   2.674  51.917  1.00  0.00     0.083 C 
HETATM    9  C13 UNL     1      23.711   6.370  51.225  1.00  0.00     0.049 A 
HETATM   10  P1  UNL     1      25.022   6.664  50.208  1.00  0.00     0.073 P 
HETATM   11  N4  UNL     1      25.932   5.137  49.825  1.00  0.00    -0.268 N 
HETATM   12  C14 UNL     1      27.085   5.228  48.948  1.00  0.00     0.231 C 
HETATM   13  O1  UNL     1      27.835   4.271  48.567  1.00  0.00    -0.273 OA
ENDROOT
BRANCH   1  14
HETATM   14  N1  UNL     1      26.238   2.640  50.068  1.00  0.00    -0.384 N 
HETATM   15  H1  UNL     1      25.956   1.970  49.323  1.00  0.00     0.157 HD
HETATM   16  H2  UNL     1      27.092   2.256  50.496  1.00  0.00     0.157 HD
ENDBRANCH   1  14
BRANCH  12  17
HETATM   17  C15 UNL     1      27.434   6.574  48.435  1.00  0.00     0.134 C 
BRANCH  17  18
HETATM   18  C16 UNL     1      28.782   6.537  47.806  1.00  0.00     0.282 C 
BRANCH  18  19
HETATM   19  N5  UNL     1      29.408   7.841  47.681  1.00  0.00     0.093 N 
HETATM   20  C17 UNL     1      29.009   8.598  48.842  1.00  0.00     0.298 C 
HETATM   21  C18 UNL     1      30.100   9.488  49.372  1.00  0.00     0.198 C 
HETATM   22  O2  UNL     1      31.257   8.796  49.692  1.00  0.00    -0.388 OA
HETATM   23  C19 UNL     1      31.386   7.607  48.984  1.00  0.00     0.198 C 
HETATM   24  C20 UNL     1      30.835   7.801  47.594  1.00  0.00     0.298 C 
ENDBRANCH  18  19
ENDBRANCH  17  18
ENDBRANCH  12  17
BRANCH   8  25
HETATM   25  C7  UNL     1      25.763   2.064  52.418  1.00  0.00    -0.005 A 
HETATM   26  C8  UNL     1      26.970   2.521  52.890  1.00  0.00     0.014 A 
HETATM   27  C9  UNL     1      28.104   1.847  53.226  1.00  0.00     0.002 A 
HETATM   28  C10 UNL     1      28.047   0.493  53.077  1.00  0.00     0.019 A 
HETATM   29  C11 UNL     1      26.910  -0.113  52.618  1.00  0.00     0.011 A 
HETATM   30 BR1  UNL     1      26.900  -2.009  52.434  1.00  0.00    -0.051 Br
HETATM   31  C12 UNL     1      25.837   0.664  52.312  1.00  0.00     0.032 A 
ENDBRANCH   8  25
TORSDOF 5
ENDMDL
MODEL 3
REMARK VINA RESULT:      -8.1      4.877      8.403
REMARK  5 active torsions:
REMARK  status: ('A' for Active; 'I' for Inactive)
REMARK    1  A    between atoms: N1_1  and  C1_2 
REMARK    2  A    between atoms: C6_9  and  C7_10 
REMARK       I    between atoms: N4_19  and  C14_20 
REMARK    3  A    between atoms: C14_20  and  C15_22 
REMARK    4  A    between atoms: C15_22  and  C16_23 
REMARK    5  A    between atoms: C16_23  and  N5_24 
ROOT
HETATM    1  C1  UNL     1      22.425   0.576  52.028  1.00  0.00     0.121 A 
HETATM    2  C2  UNL     1      23.268   0.246  52.946  1.00  0.00     0.049 A 
HETATM    3  C3  UNL     1      23.303  -0.457  54.197  1.00  0.00     0.000 A 
HETATM    4  C4  UNL     1      24.348  -1.041  54.857  1.00  0.00     0.130 C 
HETATM    5  N2  UNL     1      25.681  -1.030  54.301  1.00  0.00    -0.253 NA
HETATM    6  C5  UNL     1      26.336  -0.279  53.505  1.00  0.00     0.233 C 
HETATM    7  N3  UNL     1      25.728   0.876  52.959  1.00  0.00    -0.240 NA
HETATM    8  C6  UNL     1      24.456   1.135  52.718  1.00  0.00     0.083 C 
HETATM    9  C13 UNL     1      22.094  -1.051  54.814  1.00  0.00     0.049 A 
HETATM   10  P1  UNL     1      20.715  -0.808  53.876  1.00  0.00     0.073 P 
HETATM   11  N4  UNL     1      21.090   0.116  52.356  1.00  0.00    -0.268 N 
HETATM   12  C14 UNL     1      20.001   0.395  51.437  1.00  0.00     0.231 C 
HETATM   13  O1  UNL     1      20.075   1.020  50.329  1.00  0.00    -0.273 OA
ENDROOT
BRANCH   1  14
HETATM   14  N1  UNL     1      22.742   1.295  50.850  1.00  0.00    -0.384 N 
HETATM   15  H1  UNL     1      23.663   1.749  50.675  1.00  0.00     0.157 HD
HETATM   16  H2  UNL     1      22.172   1.462  50.009  1.00  0.00     0.157 HD
ENDBRANCH   1  14
BRANCH  12  17
HETATM   17  C15 UNL     1      18.656  -0.098  51.820  1.00  0.00     0.134 C 
BRANCH  17  18
HETATM   18  C16 UNL     1      17.744  -0.028  50.647  1.00  0.00     0.282 C 
BRANCH  18  19
HETATM   19  N5  UNL     1      16.353  -0.297  50.967  1.00  0.00     0.093 N 
HETATM   20  C17 UNL     1      16.282  -0.420  52.402  1.00  0.00     0.298 C 
HETATM   21  C18 UNL     1      15.023   0.164  52.984  1.00  0.00     0.198 C 
HETATM   22  O2  UNL     1      14.846   1.500  52.661  1.00  0.00    -0.388 OA
HETATM   23  C19 UNL     1      15.500   1.862  51.489  1.00  0.00     0.198 C 
HETATM   24  C20 UNL     1      15.442   0.709  50.519  1.00  0.00     0.298 C 
ENDBRANCH  18  19
ENDBRANCH  17  18
ENDBRANCH  12  17
BRANCH   8  25
HETATM   25  C7  UNL     1      24.288   2.558  52.297  1.00  0.00    -0.005 A 
HETATM   26  C8  UNL     1      23.436   3.592  52.599  1.00  0.00     0.014 A 
HETATM   27  C9  UNL     1      23.323   4.837  52.059  1.00  0.00     0.002 A 
HETATM   28  C10 UNL     1      24.197   5.118  51.049  1.00  0.00     0.019 A 
HETATM   29  C11 UNL     1      25.111   4.189  50.636  1.00  0.00     0.011 A 
HETATM   30 BR1  UNL     1      26.300   4.650  49.221  1.00  0.00    -0.051 Br
HETATM   31  C12 UNL     1      25.129   2.976  51.251  1.00  0.00     0.032 A 
ENDBRANCH   8  25
TORSDOF 5
ENDMDL
MODEL 4
REMARK VINA RESULT:      -8.0      2.968      4.853
REMARK  5 active torsions:
REMARK  status: ('A' for Active; 'I' for Inactive)
REMARK    1  A    between atoms: N1_1  and  C1_2 
REMARK    2  A    between atoms: C6_9  and  C7_10 
REMARK       I    between atoms: N4_19  and  C14_20 
REMARK    3  A    between atoms: C14_20  and  C15_22 
REMARK    4  A    between atoms: C15_22  and  C16_23 
REMARK    5  A    between atoms: C16_23  and  N5_24 
ROOT
HETATM    1  C1  UNL     1      23.822   2.329  52.116  1.00  0.00     0.121 A 
HETATM    2  C2  UNL     1      24.340   1.231  52.553  1.00  0.00     0.049 A 
HETATM    3  C3  UNL     1      25.592   0.531  52.538  1.00  0.00     0.000 A 
HETATM    4  C4  UNL     1      26.076  -0.440  53.369  1.00  0.00     0.130 C 
HETATM    5  N2  UNL     1      25.300  -0.914  54.491  1.00  0.00    -0.253 NA
HETATM    6  C5  UNL     1      24.061  -0.995  54.780  1.00  0.00     0.233 C 
HETATM    7  N3  UNL     1      23.087  -0.552  53.855  1.00  0.00    -0.240 NA
HETATM    8  C6  UNL     1      23.166   0.365  52.909  1.00  0.00     0.083 C 
HETATM    9  C13 UNL     1      26.790   1.052  51.837  1.00  0.00     0.049 A 
HETATM   10  P1  UNL     1      26.499   2.534  51.091  1.00  0.00     0.073 P 
HETATM   11  N4  UNL     1      24.790   3.096  51.355  1.00  0.00    -0.268 N 
HETATM   12  C14 UNL     1      24.389   4.367  50.781  1.00  0.00     0.231 C 
HETATM   13  O1  UNL     1      23.244   4.919  50.865  1.00  0.00    -0.273 OA
ENDROOT
BRANCH   1  14
HETATM   14  N1  UNL     1      22.487   2.745  52.337  1.00  0.00    -0.384 N 
HETATM   15  H1  UNL     1      22.119   3.684  52.074  1.00  0.00     0.157 HD
HETATM   16  H2  UNL     1      21.695   2.226  52.741  1.00  0.00     0.157 HD
ENDBRANCH   1  14
BRANCH  12  17
HETATM   17  C15 UNL     1      25.416   5.110  50.013  1.00  0.00     0.134 C 
BRANCH  17  18
HETATM   18  C16 UNL     1      25.276   6.569  50.268  1.00  0.00     0.282 C 
BRANCH  18  19
HETATM   19  N5  UNL     1      25.681   7.403  49.151  1.00  0.00     0.093 N 
HETATM   20  C17 UNL     1      24.805   8.549  49.159  1.00  0.00     0.298 C 
HETATM   21  C18 UNL     1      25.498   9.827  48.773  1.00  0.00     0.198 C 
HETATM   22  O2  UNL     1      26.587  10.117  49.580  1.00  0.00    -0.388 OA
HETATM   23  C19 UNL     1      27.137   8.986  50.170  1.00  0.00     0.198 C 
HETATM   24  C20 UNL     1      27.043   7.833  49.202  1.00  0.00     0.298 C 
ENDBRANCH  18  19
ENDBRANCH  17  18
ENDBRANCH  12  17
BRANCH   8  25
HETATM   25  C7  UNL     1      21.929   0.358  52.075  1.00  0.00    -0.005 A 
HETATM   26  C8  UNL     1      21.560   0.824  50.835  1.00  0.00     0.014 A 
HETATM   27  C9  UNL     1      20.346   0.842  50.219  1.00  0.00     0.002 A 
HETATM   28  C10 UNL     1      19.315   0.313  50.939  1.00  0.00     0.019 A 
HETATM   29  C11 UNL     1      19.525  -0.194  52.191  1.00  0.00     0.011 A 
HETATM   30 BR1  UNL     1      18.039  -0.917  53.140  1.00  0.00    -0.051 Br
HETATM   31  C12 UNL     1      20.783  -0.158  52.706  1.00  0.00     0.032 A 
ENDBRANCH   8  25
TORSDOF 5
ENDMDL
MODEL 5
REMARK VINA RESULT:      -7.9      3.595      7.298
REMARK  5 active torsions:
REMARK  status: ('A' for Active; 'I' for Inactive)
REMARK    1  A    between atoms: N1_1  and  C1_2 
REMARK    2  A    between atoms: C6_9  and  C7_10 
REMARK       I    between atoms: N4_19  and  C14_20 
REMARK    3  A    between atoms: C14_20  and  C15_22 
REMARK    4  A    between atoms: C15_22  and  C16_23 
REMARK    5  A    between atoms: C16_23  and  N5_24 
ROOT
HETATM    1  C1  UNL     1      23.580   3.386  51.922  1.00  0.00     0.121 A 
HETATM    2  C2  UNL     1      22.507   3.452  51.208  1.00  0.00     0.049 A 
HETATM    3  C3  UNL     1      21.434   2.607  50.768  1.00  0.00     0.000 A 
HETATM    4  C4  UNL     1      20.179   2.924  50.329  1.00  0.00     0.130 C 
HETATM    5  N2  UNL     1      19.735   4.297  50.267  1.00  0.00    -0.253 NA
HETATM    6  C5  UNL     1      20.294   5.435  50.130  1.00  0.00     0.233 C 
HETATM    7  N3  UNL     1      21.697   5.523  49.982  1.00  0.00    -0.240 NA
HETATM    8  C6  UNL     1      22.650   4.715  50.409  1.00  0.00     0.083 C 
HETATM    9  C13 UNL     1      21.355   1.169  51.116  1.00  0.00     0.049 A 
HETATM   10  P1  UNL     1      22.648   0.673  52.075  1.00  0.00     0.073 P 
HETATM   11  N4  UNL     1      23.789   2.044  52.428  1.00  0.00    -0.268 N 
HETATM   12  C14 UNL     1      24.950   1.775  53.256  1.00  0.00     0.231 C 
HETATM   13  O1  UNL     1      25.849   2.606  53.610  1.00  0.00    -0.273 OA
ENDROOT
BRANCH   1  14
HETATM   14  N1  UNL     1      24.452   4.471  52.184  1.00  0.00    -0.384 N 
HETATM   15  H1  UNL     1      25.269   4.719  51.587  1.00  0.00     0.157 HD
HETATM   16  H2  UNL     1      24.421   5.171  52.938  1.00  0.00     0.157 HD
ENDBRANCH   1  14
BRANCH  12  17
HETATM   17  C15 UNL     1      25.117   0.386  53.748  1.00  0.00     0.134 C 
BRANCH  17  18
HETATM   18  C16 UNL     1      26.253  -0.264  53.042  1.00  0.00     0.282 C 
BRANCH  18  19
HETATM   19  N5  UNL     1      27.289  -0.762  53.929  1.00  0.00     0.093 N 
HETATM   20  C17 UNL     1      28.246  -1.447  53.095  1.00  0.00     0.298 C 
HETATM   21  C18 UNL     1      29.668  -1.255  53.546  1.00  0.00     0.198 C 
HETATM   22  O2  UNL     1      30.040   0.078  53.616  1.00  0.00    -0.388 OA
HETATM   23  C19 UNL     1      28.957   0.930  53.801  1.00  0.00     0.198 C 
HETATM   24  C20 UNL     1      27.947   0.253  54.692  1.00  0.00     0.298 C 
ENDBRANCH  18  19
ENDBRANCH  17  18
ENDBRANCH  12  17
BRANCH   8  25
HETATM   25  C7  UNL     1      23.972   5.136  49.859  1.00  0.00    -0.005 A 
HETATM   26  C8  UNL     1      25.078   4.511  49.334  1.00  0.00     0.014 A 
HETATM   27  C9  UNL     1      26.285   5.013  48.954  1.00  0.00     0.002 A 
HETATM   28  C10 UNL     1      26.436   6.360  49.114  1.00  0.00     0.019 A 
HETATM   29  C11 UNL     1      25.421   7.122  49.623  1.00  0.00     0.011 A 
HETATM   30 BR1  UNL     1      25.701   8.996  49.818  1.00  0.00    -0.051 Br
HETATM   31  C12 UNL     1      24.258   6.508  49.969  1.00  0.00     0.032 A 
ENDBRANCH   8  25
TORSDOF 5
ENDMDL
MODEL 6
REMARK VINA RESULT:      -7.8      1.597      2.028
REMARK  5 active torsions:
REMARK  status: ('A' for Active; 'I' for Inactive)
REMARK    1  A    between atoms: N1_1  and  C1_2 
REMARK    2  A    between atoms: C6_9  and  C7_10 
REMARK       I    between atoms: N4_19  and  C14_20 
REMARK    3  A    between atoms: C14_20  and  C15_22 
REMARK    4  A    between atoms: C15_22  and  C16_23 
REMARK    5  A    between atoms: C16_23  and  N5_24 
ROOT
HETATM    1  C1  UNL     1      23.916   3.223  50.974  1.00  0.00     0.121 A 
HETATM    2  C2  UNL     1      22.877   2.834  51.632  1.00  0.00     0.049 A 
HETATM    3  C3  UNL     1      21.625   3.352  52.103  1.00  0.00     0.000 A 
HETATM    4  C4  UNL     1      20.473   2.705  52.456  1.00  0.00     0.130 C 
HETATM    5  N2  UNL     1      20.369   1.267  52.368  1.00  0.00    -0.253 NA
HETATM    6  C5  UNL     1      21.181   0.285  52.421  1.00  0.00     0.233 C 
HETATM    7  N3  UNL     1      22.562   0.516  52.620  1.00  0.00    -0.240 NA
HETATM    8  C6  UNL     1      23.302   1.565  52.312  1.00  0.00     0.083 C 
HETATM    9  C13 UNL     1      21.211   4.759  51.891  1.00  0.00     0.049 A 
HETATM   10  P1  UNL     1      22.367   5.642  51.039  1.00  0.00     0.073 P 
HETATM   11  N4  UNL     1      23.808   4.621  50.606  1.00  0.00    -0.268 N 
HETATM   12  C14 UNL     1      24.887   5.240  49.859  1.00  0.00     0.231 C 
HETATM   13  O1  UNL     1      25.965   4.684  49.466  1.00  0.00    -0.273 OA
ENDROOT
BRANCH   1  14
HETATM   14  N1  UNL     1      25.026   2.407  50.648  1.00  0.00    -0.384 N 
HETATM   15  H1  UNL     1      25.757   2.669  49.953  1.00  0.00     0.157 HD
HETATM   16  H2  UNL     1      25.303   1.491  51.028  1.00  0.00     0.157 HD
ENDBRANCH   1  14
BRANCH  12  17
HETATM   17  C15 UNL     1      24.726   6.671  49.508  1.00  0.00     0.134 C 
BRANCH  17  18
HETATM   18  C16 UNL     1      25.756   7.480  50.215  1.00  0.00     0.282 C 
BRANCH  18  19
HETATM   19  N5  UNL     1      26.364   8.509  49.390  1.00  0.00     0.093 N 
HETATM   20  C17 UNL     1      27.367   9.146  50.207  1.00  0.00     0.298 C 
HETATM   21  C18 UNL     1      28.602   9.528  49.437  1.00  0.00     0.198 C 
HETATM   22  O2  UNL     1      29.194   8.452  48.795  1.00  0.00    -0.388 OA
HETATM   23  C19 UNL     1      28.298   7.424  48.526  1.00  0.00     0.198 C 
HETATM   24  C20 UNL     1      26.956   8.021  48.184  1.00  0.00     0.298 C 
ENDBRANCH  18  19
ENDBRANCH  17  18
ENDBRANCH  12  17
BRANCH   8  25
HETATM   25  C7  UNL     1      24.676   1.413  52.876  1.00  0.00    -0.005 A 
HETATM   26  C8  UNL     1      25.593   2.226  53.498  1.00  0.00     0.014 A 
HETATM   27  C9  UNL     1      26.877   1.985  53.880  1.00  0.00     0.002 A 
HETATM   28  C10 UNL     1      27.344   0.732  53.610  1.00  0.00     0.019 A 
HETATM   29  C11 UNL     1      26.547  -0.194  52.996  1.00  0.00     0.011 A 
HETATM   30 BR1  UNL     1      27.264  -1.925  52.649  1.00  0.00    -0.051 Br
HETATM   31  C12 UNL     1      25.278   0.162  52.658  1.00  0.00     0.032 A 
ENDBRANCH   8  25
TORSDOF 5
ENDMDL
MODEL 7
REMARK VINA RESULT:      -7.5      3.738      5.896
REMARK  5 active torsions:
REMARK  status: ('A' for Active; 'I' for Inactive)
REMARK    1  A    between atoms: N1_1  and  C1_2 
REMARK    2  A    between atoms: C6_9  and  C7_10 
REMARK       I    between atoms: N4_19  and  C14_20 
REMARK    3  A    between atoms: C14_20  and  C15_22 
REMARK    4  A    between atoms: C15_22  and  C16_23 
REMARK    5  A    between atoms: C16_23  and  N5_24 
ROOT
HETATM    1  C1  UNL     1      22.169   2.213  52.509  1.00  0.00     0.121 A 
HETATM    2  C2  UNL     1      22.622   1.090  52.953  1.00  0.00     0.049 A 
HETATM    3  C3  UNL     1      23.868   0.391  53.090  1.00  0.00     0.000 A 
HETATM    4  C4  UNL     1      24.226  -0.630  53.925  1.00  0.00     0.130 C 
HETATM    5  N2  UNL     1      23.290  -1.172  54.883  1.00  0.00    -0.253 NA
HETATM    6  C5  UNL     1      22.021  -1.270  54.970  1.00  0.00     0.233 C 
HETATM    7  N3  UNL     1      21.199  -0.770  53.934  1.00  0.00    -0.240 NA
HETATM    8  C6  UNL     1      21.416   0.205  53.070  1.00  0.00     0.083 C 
HETATM    9  C13 UNL     1      25.156   0.953  52.617  1.00  0.00     0.049 A 
HETATM   10  P1  UNL     1      24.970   2.479  51.927  1.00  0.00     0.073 P 
HETATM   11  N4  UNL     1      23.236   3.024  51.956  1.00  0.00    -0.268 N 
HETATM   12  C14 UNL     1      22.918   4.329  51.405  1.00  0.00     0.231 C 
HETATM   13  O1  UNL     1      21.769   4.876  51.345  1.00  0.00    -0.273 OA
ENDROOT
BRANCH   1  14
HETATM   14  N1  UNL     1      20.813   2.616  52.545  1.00  0.00    -0.384 N 
HETATM   15  H1  UNL     1      20.249   2.686  53.419  1.00  0.00     0.157 HD
HETATM   16  H2  UNL     1      20.195   2.914  51.777  1.00  0.00     0.157 HD
ENDBRANCH   1  14
BRANCH  12  17
HETATM   17  C15 UNL     1      24.045   5.118  50.853  1.00  0.00     0.134 C 
BRANCH  17  18
HETATM   18  C16 UNL     1      23.824   6.564  51.121  1.00  0.00     0.282 C 
BRANCH  18  19
HETATM   19  N5  UNL     1      24.846   7.429  50.559  1.00  0.00     0.093 N 
HETATM   20  C17 UNL     1      25.756   6.571  49.839  1.00  0.00     0.298 C 
HETATM   21  C18 UNL     1      26.273   7.190  48.570  1.00  0.00     0.198 C 
HETATM   22  O2  UNL     1      25.263   7.567  47.699  1.00  0.00    -0.388 OA
HETATM   23  C19 UNL     1      24.059   7.814  48.346  1.00  0.00     0.198 C 
HETATM   24  C20 UNL     1      24.342   8.444  49.687  1.00  0.00     0.298 C 
ENDBRANCH  18  19
ENDBRANCH  17  18
ENDBRANCH  12  17
BRANCH   8  25
HETATM   25  C7  UNL     1      20.322   0.250  52.055  1.00  0.00    -0.005 A 
HETATM   26  C8  UNL     1      20.182   0.691  50.760  1.00  0.00     0.014 A 
HETATM   27  C9  UNL     1      19.081   0.769  49.964  1.00  0.00     0.002 A 
HETATM   28  C10 UNL     1      17.916   0.340  50.530  1.00  0.00     0.019 A 
HETATM   29  C11 UNL     1      17.895  -0.131  51.814  1.00  0.00     0.011 A 
HETATM   30 BR1  UNL     1      16.233  -0.713  52.541  1.00  0.00    -0.051 Br
HETATM   31  C12 UNL     1      19.059  -0.161  52.515  1.00  0.00     0.032 A 
ENDBRANCH   8  25
TORSDOF 5
ENDMDL
MODEL 8
REMARK VINA RESULT:      -7.4      3.513      7.338
REMARK  5 active torsions:
REMARK  status: ('A' for Active; 'I' for Inactive)
REMARK    1  A    between atoms: N1_1  and  C1_2 
REMARK    2  A    between atoms: C6_9  and  C7_10 
REMARK       I    between atoms: N4_19  and  C14_20 
REMARK    3  A    between atoms: C14_20  and  C15_22 
REMARK    4  A    between atoms: C15_22  and  C16_23 
REMARK    5  A    between atoms: C16_23  and  N5_24 
ROOT
HETATM    1  C1  UNL     1      22.807   4.523  51.228  1.00  0.00     0.121 A 
HETATM    2  C2  UNL     1      22.126   4.648  50.140  1.00  0.00     0.049 A 
HETATM    3  C3  UNL     1      21.515   3.829  49.132  1.00  0.00     0.000 A 
HETATM    4  C4  UNL     1      20.510   4.110  48.250  1.00  0.00     0.130 C 
HETATM    5  N2  UNL     1      19.866   5.403  48.241  1.00  0.00    -0.253 NA
HETATM    6  C5  UNL     1      20.193   6.592  48.564  1.00  0.00     0.233 C 
HETATM    7  N3  UNL     1      21.488   6.860  49.066  1.00  0.00    -0.240 NA
HETATM    8  C6  UNL     1      22.326   6.076  49.720  1.00  0.00     0.083 C 
HETATM    9  C13 UNL     1      21.591   2.349  49.152  1.00  0.00     0.049 A 
HETATM   10  P1  UNL     1      22.454   1.772  50.479  1.00  0.00     0.073 P 
HETATM   11  N4  UNL     1      23.055   3.127  51.531  1.00  0.00    -0.268 N 
HETATM   12  C14 UNL     1      23.809   2.787  52.723  1.00  0.00     0.231 C 
HETATM   13  O1  UNL     1      24.302   3.596  53.576  1.00  0.00    -0.273 OA
ENDROOT
BRANCH   1  14
HETATM   14  N1  UNL     1      23.262   5.596  52.032  1.00  0.00    -0.384 N 
HETATM   15  H1  UNL     1      23.999   6.271  51.740  1.00  0.00     0.157 HD
HETATM   16  H2  UNL     1      22.951   5.894  52.968  1.00  0.00     0.157 HD
ENDBRANCH   1  14
BRANCH  12  17
HETATM   17  C15 UNL     1      24.035   1.346  52.987  1.00  0.00     0.134 C 
BRANCH  17  18
HETATM   18  C16 UNL     1      25.310   0.913  52.353  1.00  0.00     0.282 C 
BRANCH  18  19
HETATM   19  N5  UNL     1      26.493   1.243  53.127  1.00  0.00     0.093 N 
HETATM   20  C17 UNL     1      26.280   0.704  54.448  1.00  0.00     0.298 C 
HETATM   21  C18 UNL     1      27.531   0.146  55.068  1.00  0.00     0.198 C 
HETATM   22  O2  UNL     1      28.127  -0.839  54.296  1.00  0.00    -0.388 OA
HETATM   23  C19 UNL     1      27.812  -0.729  52.947  1.00  0.00     0.198 C 
HETATM   24  C20 UNL     1      27.712   0.731  52.583  1.00  0.00     0.298 C 
ENDBRANCH  18  19
ENDBRANCH  17  18
ENDBRANCH  12  17
BRANCH   8  25
HETATM   25  C7  UNL     1      23.644   6.754  49.890  1.00  0.00    -0.005 A 
HETATM   26  C8  UNL     1      24.087   7.970  50.353  1.00  0.00     0.014 A 
HETATM   27  C9  UNL     1      25.334   8.517  50.360  1.00  0.00     0.002 A 
HETATM   28  C10 UNL     1      26.318   7.739  49.824  1.00  0.00     0.019 A 
HETATM   29  C11 UNL     1      26.034   6.498  49.324  1.00  0.00     0.011 A 
HETATM   30 BR1  UNL     1      27.458   5.466  48.591  1.00  0.00    -0.051 Br
HETATM   31  C12 UNL     1      24.749   6.057  49.370  1.00  0.00     0.032 A 
ENDBRANCH   8  25
TORSDOF 5
ENDMDL
MODEL 9
REMARK VINA RESULT:      -7.2      4.379      7.974
REMARK  5 active torsions:
REMARK  status: ('A' for Active; 'I' for Inactive)
REMARK    1  A    between atoms: N1_1  and  C1_2 
REMARK    2  A    between atoms: C6_9  and  C7_10 
REMARK       I    between atoms: N4_19  and  C14_20 
REMARK    3  A    between atoms: C14_20  and  C15_22 
REMARK    4  A    between atoms: C15_22  and  C16_23 
REMARK    5  A    between atoms: C16_23  and  N5_24 
ROOT
HETATM    1  C1  UNL     1      21.452   3.020  52.055  1.00  0.00     0.121 A 
HETATM    2  C2  UNL     1      20.247   2.740  51.689  1.00  0.00     0.049 A 
HETATM    3  C3  UNL     1      19.412   1.595  51.461  1.00  0.00     0.000 A 
HETATM    4  C4  UNL     1      18.050   1.481  51.441  1.00  0.00     0.130 C 
HETATM    5  N2  UNL     1      17.203   2.623  51.691  1.00  0.00    -0.253 NA
HETATM    6  C5  UNL     1      17.304   3.887  51.555  1.00  0.00     0.233 C 
HETATM    7  N3  UNL     1      18.490   4.451  51.031  1.00  0.00    -0.240 NA
HETATM    8  C6  UNL     1      19.732   4.001  51.059  1.00  0.00     0.083 C 
HETATM    9  C13 UNL     1      19.901   0.205  51.620  1.00  0.00     0.049 A 
HETATM   10  P1  UNL     1      21.515   0.147  52.100  1.00  0.00     0.073 P 
HETATM   11  N4  UNL     1      22.218   1.813  52.297  1.00  0.00    -0.268 N 
HETATM   12  C14 UNL     1      23.602   1.927  52.719  1.00  0.00     0.231 C 
HETATM   13  O1  UNL     1      24.257   3.003  52.914  1.00  0.00    -0.273 OA
ENDROOT
BRANCH   1  14
HETATM   14  N1  UNL     1      21.976   4.327  52.204  1.00  0.00    -0.384 N 
HETATM   15  H1  UNL     1      22.947   4.599  51.941  1.00  0.00     0.157 HD
HETATM   16  H2  UNL     1      21.518   5.183  52.547  1.00  0.00     0.157 HD
ENDBRANCH   1  14
BRANCH  12  17
HETATM   17  C15 UNL     1      24.339   0.663  52.953  1.00  0.00     0.134 C 
BRANCH  17  18
HETATM   18  C16 UNL     1      25.517   0.923  53.824  1.00  0.00     0.282 C 
BRANCH  18  19
HETATM   19  N5  UNL     1      26.794   0.750  53.154  1.00  0.00     0.093 N 
HETATM   20  C17 UNL     1      27.755   0.435  54.182  1.00  0.00     0.298 C 
HETATM   21  C18 UNL     1      28.781  -0.574  53.744  1.00  0.00     0.198 C 
HETATM   22  O2  UNL     1      28.220  -1.763  53.307  1.00  0.00    -0.388 OA
HETATM   23  C19 UNL     1      26.917  -1.607  52.847  1.00  0.00     0.198 C 
HETATM   24  C20 UNL     1      26.798  -0.273  52.155  1.00  0.00     0.298 C 
ENDBRANCH  18  19
ENDBRANCH  17  18
ENDBRANCH  12  17
BRANCH   8  25
HETATM   25  C7  UNL     1      20.614   4.863  50.220  1.00  0.00    -0.005 A 
HETATM   26  C8  UNL     1      21.180   6.112  50.324  1.00  0.00     0.014 A 
HETATM   27  C9  UNL     1      21.897   6.839  49.425  1.00  0.00     0.002 A 
HETATM   28  C10 UNL     1      22.098   6.243  48.215  1.00  0.00     0.019 A 
HETATM   29  C11 UNL     1      21.599   4.996  47.959  1.00  0.00     0.011 A 
HETATM   30 BR1  UNL     1      21.918   4.222  46.247  1.00  0.00    -0.051 Br
HETATM   31  C12 UNL     1      20.895   4.364  48.936  1.00  0.00     0.032 A 
ENDBRANCH   8  25
TORSDOF 5
ENDMDL
