MODEL 1
REMARK VINA RESULT:      -8.5      0.000      0.000
REMARK  5 active torsions:
REMARK  status: ('A' for Active; 'I' for Inactive)
REMARK    1  A    between atoms: C5_5  and  N1_6 
REMARK    2  A    between atoms: C7_8  and  N2_9 
REMARK    3  A    between atoms: N2_9  and  C8_10 
REMARK    4  A    between atoms: C11_14  and  C12_15 
REMARK    5  A    between atoms: C15_18  and  N4_19 
ROOT
HETATM    1  C8  UNL     1      25.323   1.346  52.616  1.00  0.00     0.727 A 
HETATM    2  N3  UNL     1      24.949   1.992  51.498  1.00  0.00    -0.075 NA
HETATM    3  C9  UNL     1      23.689   1.852  51.065  1.00  0.00     0.139 A 
HETATM    4  C10 UNL     1      22.738   1.082  51.693  1.00  0.00     0.053 A 
HETATM    5  C11 UNL     1      23.134   0.425  52.836  1.00  0.00     0.089 A 
HETATM    6  N5  UNL     1      24.400   0.593  53.232  1.00  0.00    -0.062 NA
ENDROOT
BRANCH   1   7
HETATM    7  N2  UNL     1      26.660   1.479  53.096  1.00  0.00    -0.188 N 
HETATM    8  H9  UNL     1      26.930   2.461  53.410  1.00  0.00     0.184 HD
BRANCH   7   9
HETATM    9  C7  UNL     1      27.689   0.527  53.229  1.00  0.00     0.057 A 
HETATM   10  C2  UNL     1      28.964   0.892  53.607  1.00  0.00    -0.035 A 
HETATM   11  C1  UNL     1      29.260   2.337  53.885  1.00  0.00     0.050 C 
HETATM   12  C3  UNL     1      29.984  -0.018  53.744  1.00  0.00     0.011 A 
HETATM   13  C4  UNL     1      29.774  -1.358  53.503  1.00  0.00     0.024 A 
HETATM   14  C5  UNL     1      28.521  -1.785  53.120  1.00  0.00     0.008 A 
HETATM   15  C6  UNL     1      27.547  -0.825  53.003  1.00  0.00     0.053 A 
BRANCH  14  16
HETATM   16  N1  UNL     1      28.293  -3.166  52.869  1.00  0.00    -0.303 NA
HETATM   17  H6  UNL     1      27.649  -3.636  52.170  1.00  0.00     0.124 HD
HETATM   18  H7  UNL     1      27.686  -3.677  52.211  1.00  0.00     0.124 HD
ENDBRANCH  14  16
ENDBRANCH   7   9
ENDBRANCH   1   7
BRANCH   5  19
HETATM   19  C12 UNL     1      22.203  -0.417  53.578  1.00  0.00     0.020 A 
HETATM   20  C13 UNL     1      20.935  -0.738  53.431  1.00  0.00     0.018 A 
HETATM   21  C14 UNL     1      21.056  -1.566  54.649  1.00  0.00     0.031 A 
HETATM   22  C15 UNL     1      22.330  -1.232  54.782  1.00  0.00     0.038 A 
BRANCH  22  23
HETATM   23  N4  UNL     1      23.296  -1.599  55.753  1.00  0.00    -0.398 N 
HETATM   24  H14 UNL     1      23.262  -2.579  56.126  1.00  0.00     0.156 HD
HETATM   25  H15 UNL     1      23.968  -0.835  56.010  1.00  0.00     0.156 HD
ENDBRANCH  22  23
ENDBRANCH   5  19
TORSDOF 5
ENDMDL
MODEL 2
REMARK VINA RESULT:      -8.3      2.610      5.083
REMARK  5 active torsions:
REMARK  status: ('A' for Active; 'I' for Inactive)
REMARK    1  A    between atoms: C5_5  and  N1_6 
REMARK    2  A    between atoms: C7_8  and  N2_9 
REMARK    3  A    between atoms: N2_9  and  C8_10 
REMARK    4  A    between atoms: C11_14  and  C12_15 
REMARK    5  A    between atoms: C15_18  and  N4_19 
ROOT
HETATM    1  C8  UNL     1      25.555   1.802  52.170  1.00  0.00     0.727 A 
HETATM    2  N3  UNL     1      24.299   1.425  51.874  1.00  0.00    -0.075 NA
HETATM    3  C9  UNL     1      23.677   2.010  50.842  1.00  0.00     0.139 A 
HETATM    4  C10 UNL     1      24.243   2.984  50.051  1.00  0.00     0.053 A 
HETATM    5  C11 UNL     1      25.529   3.361  50.365  1.00  0.00     0.089 A 
HETATM    6  N5  UNL     1      26.111   2.750  51.403  1.00  0.00    -0.062 NA
ENDROOT
BRANCH   1   7
HETATM    7  N2  UNL     1      26.237   1.193  53.266  1.00  0.00    -0.188 N 
HETATM    8  H9  UNL     1      25.809   1.383  54.224  1.00  0.00     0.184 HD
BRANCH   7   9
HETATM    9  C7  UNL     1      27.384   0.378  53.297  1.00  0.00     0.057 A 
HETATM   10  C2  UNL     1      28.637   0.905  53.531  1.00  0.00    -0.035 A 
HETATM   11  C1  UNL     1      28.779   2.382  53.760  1.00  0.00     0.050 C 
HETATM   12  C3  UNL     1      29.770   0.131  53.566  1.00  0.00     0.011 A 
HETATM   13  C4  UNL     1      29.704  -1.231  53.364  1.00  0.00     0.024 A 
HETATM   14  C5  UNL     1      28.481  -1.817  53.124  1.00  0.00     0.008 A 
HETATM   15  C6  UNL     1      27.388  -0.986  53.102  1.00  0.00     0.053 A 
BRANCH  14  16
HETATM   16  N1  UNL     1      28.401  -3.221  52.914  1.00  0.00    -0.303 NA
HETATM   17  H6  UNL     1      29.123  -3.897  52.532  1.00  0.00     0.124 HD
HETATM   18  H7  UNL     1      29.061  -3.923  52.549  1.00  0.00     0.124 HD
ENDBRANCH  14  16
ENDBRANCH   7   9
ENDBRANCH   1   7
BRANCH   5  19
HETATM   19  C12 UNL     1      26.221   4.384  49.590  1.00  0.00     0.020 A 
HETATM   20  C13 UNL     1      27.348   4.417  48.911  1.00  0.00     0.018 A 
HETATM   21  C14 UNL     1      27.050   5.828  48.585  1.00  0.00     0.031 A 
HETATM   22  C15 UNL     1      25.920   5.776  49.273  1.00  0.00     0.038 A 
BRANCH  22  23
HETATM   23  N4  UNL     1      24.926   6.758  49.513  1.00  0.00    -0.398 N 
HETATM   24  H14 UNL     1      24.853   7.552  48.832  1.00  0.00     0.156 HD
HETATM   25  H15 UNL     1      24.344   6.590  50.371  1.00  0.00     0.156 HD
ENDBRANCH  22  23
ENDBRANCH   5  19
TORSDOF 5
ENDMDL
MODEL 3
REMARK VINA RESULT:      -8.3      1.744      2.740
REMARK  5 active torsions:
REMARK  status: ('A' for Active; 'I' for Inactive)
REMARK    1  A    between atoms: C5_5  and  N1_6 
REMARK    2  A    between atoms: C7_8  and  N2_9 
REMARK    3  A    between atoms: N2_9  and  C8_10 
REMARK    4  A    between atoms: C11_14  and  C12_15 
REMARK    5  A    between atoms: C15_18  and  N4_19 
ROOT
HETATM    1  C8  UNL     1      24.137  -0.214  53.502  1.00  0.00     0.727 A 
HETATM    2  N3  UNL     1      24.152  -0.830  54.697  1.00  0.00    -0.075 NA
HETATM    3  C9  UNL     1      22.990  -1.229  55.229  1.00  0.00     0.139 A 
HETATM    4  C10 UNL     1      21.764  -1.050  54.630  1.00  0.00     0.053 A 
HETATM    5  C11 UNL     1      21.762  -0.418  53.408  1.00  0.00     0.089 A 
HETATM    6  N5  UNL     1      22.946  -0.037  52.913  1.00  0.00    -0.062 NA
ENDROOT
BRANCH   1   7
HETATM    7  N2  UNL     1      25.363   0.221  52.915  1.00  0.00    -0.188 N 
HETATM    8  H9  UNL     1      25.273   1.041  52.240  1.00  0.00     0.184 HD
BRANCH   7   9
HETATM    9  C7  UNL     1      26.679  -0.252  53.077  1.00  0.00     0.057 A 
HETATM   10  C2  UNL     1      27.725   0.606  53.349  1.00  0.00    -0.035 A 
HETATM   11  C1  UNL     1      27.451   2.076  53.475  1.00  0.00     0.050 C 
HETATM   12  C3  UNL     1      29.016   0.169  53.512  1.00  0.00     0.011 A 
HETATM   13  C4  UNL     1      29.330  -1.168  53.408  1.00  0.00     0.024 A 
HETATM   14  C5  UNL     1      28.329  -2.076  53.137  1.00  0.00     0.008 A 
HETATM   15  C6  UNL     1      27.060  -1.573  52.986  1.00  0.00     0.053 A 
BRANCH  14  16
HETATM   16  N1  UNL     1      28.641  -3.459  53.028  1.00  0.00    -0.303 NA
HETATM   17  H6  UNL     1      29.047  -4.125  53.744  1.00  0.00     0.124 HD
HETATM   18  H7  UNL     1      29.034  -4.151  53.682  1.00  0.00     0.124 HD
ENDBRANCH  14  16
ENDBRANCH   7   9
ENDBRANCH   1   7
BRANCH   5  19
HETATM   19  C12 UNL     1      20.517  -0.179  52.687  1.00  0.00     0.020 A 
HETATM   20  C13 UNL     1      20.203   0.466  51.584  1.00  0.00     0.018 A 
HETATM   21  C14 UNL     1      18.797   0.074  51.816  1.00  0.00     0.031 A 
HETATM   22  C15 UNL     1      19.132  -0.570  52.924  1.00  0.00     0.038 A 
BRANCH  22  23
HETATM   23  N4  UNL     1      18.348  -1.296  53.855  1.00  0.00    -0.398 N 
HETATM   24  H14 UNL     1      18.187  -0.864  54.797  1.00  0.00     0.156 HD
HETATM   25  H15 UNL     1      17.995  -2.220  53.502  1.00  0.00     0.156 HD
ENDBRANCH  22  23
ENDBRANCH   5  19
TORSDOF 5
ENDMDL
MODEL 4
REMARK VINA RESULT:      -8.2      1.774      3.413
REMARK  5 active torsions:
REMARK  status: ('A' for Active; 'I' for Inactive)
REMARK    1  A    between atoms: C5_5  and  N1_6 
REMARK    2  A    between atoms: C7_8  and  N2_9 
REMARK    3  A    between atoms: N2_9  and  C8_10 
REMARK    4  A    between atoms: C11_14  and  C12_15 
REMARK    5  A    between atoms: C15_18  and  N4_19 
ROOT
HETATM    1  C8  UNL     1      24.468  -0.370  53.509  1.00  0.00     0.727 A 
HETATM    2  N3  UNL     1      24.592  -0.883  54.746  1.00  0.00    -0.075 NA
HETATM    3  C9  UNL     1      23.483  -1.213  55.420  1.00  0.00     0.139 A 
HETATM    4  C10 UNL     1      22.207  -1.062  54.929  1.00  0.00     0.053 A 
HETATM    5  C11 UNL     1      22.093  -0.536  53.663  1.00  0.00     0.089 A 
HETATM    6  N5  UNL     1      23.226  -0.220  53.025  1.00  0.00    -0.062 NA
ENDROOT
BRANCH   1   7
HETATM    7  N2  UNL     1      25.635  -0.011  52.771  1.00  0.00    -0.188 N 
HETATM    8  H9  UNL     1      25.455   0.302  51.768  1.00  0.00     0.184 HD
BRANCH   7   9
HETATM    9  C7  UNL     1      26.992   0.003  53.146  1.00  0.00     0.057 A 
HETATM   10  C2  UNL     1      27.788  -1.116  53.011  1.00  0.00    -0.035 A 
HETATM   11  C1  UNL     1      27.193  -2.375  52.451  1.00  0.00     0.050 C 
HETATM   12  C3  UNL     1      29.114  -1.127  53.369  1.00  0.00     0.011 A 
HETATM   13  C4  UNL     1      29.716  -0.002  53.888  1.00  0.00     0.024 A 
HETATM   14  C5  UNL     1      28.973   1.147  54.048  1.00  0.00     0.008 A 
HETATM   15  C6  UNL     1      27.654   1.091  53.670  1.00  0.00     0.053 A 
BRANCH  14  16
HETATM   16  N1  UNL     1      29.585   2.314  54.583  1.00  0.00    -0.303 NA
HETATM   17  H6  UNL     1      30.012   3.149  54.088  1.00  0.00     0.124 HD
HETATM   18  H7  UNL     1      30.014   3.149  54.157  1.00  0.00     0.124 HD
ENDBRANCH  14  16
ENDBRANCH   7   9
ENDBRANCH   1   7
BRANCH   5  19
HETATM   19  C12 UNL     1      20.786  -0.334  53.048  1.00  0.00     0.020 A 
HETATM   20  C13 UNL     1      19.547  -0.560  53.429  1.00  0.00     0.018 A 
HETATM   21  C14 UNL     1      19.102  -0.019  52.127  1.00  0.00     0.031 A 
HETATM   22  C15 UNL     1      20.355   0.201  51.761  1.00  0.00     0.038 A 
BRANCH  22  23
HETATM   23  N4  UNL     1      20.898   0.742  50.568  1.00  0.00    -0.398 N 
HETATM   24  H14 UNL     1      20.294   0.733  49.711  1.00  0.00     0.156 HD
HETATM   25  H15 UNL     1      21.878   1.109  50.663  1.00  0.00     0.156 HD
ENDBRANCH  22  23
ENDBRANCH   5  19
TORSDOF 5
ENDMDL
MODEL 5
REMARK VINA RESULT:      -7.9      1.647      6.815
REMARK  5 active torsions:
REMARK  status: ('A' for Active; 'I' for Inactive)
REMARK    1  A    between atoms: C5_5  and  N1_6 
REMARK    2  A    between atoms: C7_8  and  N2_9 
REMARK    3  A    between atoms: N2_9  and  C8_10 
REMARK    4  A    between atoms: C11_14  and  C12_15 
REMARK    5  A    between atoms: C15_18  and  N4_19 
ROOT
HETATM    1  C8  UNL     1      24.717   0.070  53.175  1.00  0.00     0.727 A 
HETATM    2  N3  UNL     1      24.574   1.402  53.282  1.00  0.00    -0.075 NA
HETATM    3  C9  UNL     1      25.667   2.154  53.460  1.00  0.00     0.139 A 
HETATM    4  C10 UNL     1      26.945   1.652  53.542  1.00  0.00     0.053 A 
HETATM    5  C11 UNL     1      27.078   0.286  53.432  1.00  0.00     0.089 A 
HETATM    6  N5  UNL     1      25.960  -0.426  53.255  1.00  0.00    -0.062 NA
ENDROOT
BRANCH   1   7
HETATM    7  N2  UNL     1      23.566  -0.753  52.986  1.00  0.00    -0.188 N 
HETATM    8  H9  UNL     1      23.737  -1.799  53.095  1.00  0.00     0.184 HD
BRANCH   7   9
HETATM    9  C7  UNL     1      22.234  -0.414  52.680  1.00  0.00     0.057 A 
HETATM   10  C2  UNL     1      21.201  -0.693  53.550  1.00  0.00    -0.035 A 
HETATM   11  C1  UNL     1      21.505  -1.372  54.854  1.00  0.00     0.050 C 
HETATM   12  C3  UNL     1      19.895  -0.373  53.274  1.00  0.00     0.011 A 
HETATM   13  C4  UNL     1      19.553   0.251  52.095  1.00  0.00     0.024 A 
HETATM   14  C5  UNL     1      20.540   0.555  51.183  1.00  0.00     0.008 A 
HETATM   15  C6  UNL     1      21.825   0.209  51.521  1.00  0.00     0.053 A 
BRANCH  14  16
HETATM   16  N1  UNL     1      20.198   1.200  49.962  1.00  0.00    -0.303 NA
HETATM   17  H6  UNL     1      19.726   0.813  49.096  1.00  0.00     0.124 HD
HETATM   18  H7  UNL     1      19.745   0.880  49.094  1.00  0.00     0.124 HD
ENDBRANCH  14  16
ENDBRANCH   7   9
ENDBRANCH   1   7
BRANCH   5  19
HETATM   19  C12 UNL     1      28.389  -0.349  53.505  1.00  0.00     0.020 A 
HETATM   20  C13 UNL     1      29.610   0.087  53.729  1.00  0.00     0.018 A 
HETATM   21  C14 UNL     1      30.080  -1.306  53.580  1.00  0.00     0.031 A 
HETATM   22  C15 UNL     1      28.845  -1.727  53.357  1.00  0.00     0.038 A 
BRANCH  22  23
HETATM   23  N4  UNL     1      28.332  -3.022  53.095  1.00  0.00    -0.398 N 
HETATM   24  H14 UNL     1      27.510  -3.098  52.447  1.00  0.00     0.156 HD
HETATM   25  H15 UNL     1      28.838  -3.800  53.587  1.00  0.00     0.156 HD
ENDBRANCH  22  23
ENDBRANCH   5  19
TORSDOF 5
ENDMDL
MODEL 6
REMARK VINA RESULT:      -7.8      1.844      2.338
REMARK  5 active torsions:
REMARK  status: ('A' for Active; 'I' for Inactive)
REMARK    1  A    between atoms: C5_5  and  N1_6 
REMARK    2  A    between atoms: C7_8  and  N2_9 
REMARK    3  A    between atoms: N2_9  and  C8_10 
REMARK    4  A    between atoms: C11_14  and  C12_15 
REMARK    5  A    between atoms: C15_18  and  N4_19 
ROOT
HETATM    1  C8  UNL     1      25.628   1.828  52.176  1.00  0.00     0.727 A 
HETATM    2  N3  UNL     1      26.180   2.752  51.370  1.00  0.00    -0.075 NA
HETATM    3  C9  UNL     1      25.462   3.220  50.341  1.00  0.00     0.139 A 
HETATM    4  C10 UNL     1      24.180   2.817  50.048  1.00  0.00     0.053 A 
HETATM    5  C11 UNL     1      23.626   1.871  50.880  1.00  0.00     0.089 A 
HETATM    6  N5  UNL     1      24.379   1.431  51.895  1.00  0.00    -0.062 NA
ENDROOT
BRANCH   1   7
HETATM    7  N2  UNL     1      26.375   1.314  53.278  1.00  0.00    -0.188 N 
HETATM    8  H9  UNL     1      26.045   1.642  54.238  1.00  0.00     0.184 HD
BRANCH   7   9
HETATM    9  C7  UNL     1      27.478   0.440  53.314  1.00  0.00     0.057 A 
HETATM   10  C2  UNL     1      28.755   0.900  53.557  1.00  0.00    -0.035 A 
HETATM   11  C1  UNL     1      28.973   2.367  53.790  1.00  0.00     0.050 C 
HETATM   12  C3  UNL     1      29.846   0.068  53.598  1.00  0.00     0.011 A 
HETATM   13  C4  UNL     1      29.710  -1.287  53.392  1.00  0.00     0.024 A 
HETATM   14  C5  UNL     1      28.460  -1.809  53.143  1.00  0.00     0.008 A 
HETATM   15  C6  UNL     1      27.411  -0.922  53.117  1.00  0.00     0.053 A 
BRANCH  14  16
HETATM   16  N1  UNL     1      28.307  -3.207  52.930  1.00  0.00    -0.303 NA
HETATM   17  H6  UNL     1      28.442  -4.018  53.598  1.00  0.00     0.124 HD
HETATM   18  H7  UNL     1      28.424  -4.034  53.534  1.00  0.00     0.124 HD
ENDBRANCH  14  16
ENDBRANCH   7   9
ENDBRANCH   1   7
BRANCH   5  19
HETATM   19  C12 UNL     1      22.273   1.375  50.658  1.00  0.00     0.020 A 
HETATM   20  C13 UNL     1      21.379   1.540  49.707  1.00  0.00     0.018 A 
HETATM   21  C14 UNL     1      20.478   0.650  50.471  1.00  0.00     0.031 A 
HETATM   22  C15 UNL     1      21.390   0.496  51.418  1.00  0.00     0.038 A 
BRANCH  22  23
HETATM   23  N4  UNL     1      21.369  -0.251  52.623  1.00  0.00    -0.398 N 
HETATM   24  H14 UNL     1      21.025   0.231  53.488  1.00  0.00     0.156 HD
HETATM   25  H15 UNL     1      21.708  -1.240  52.528  1.00  0.00     0.156 HD
ENDBRANCH  22  23
ENDBRANCH   5  19
TORSDOF 5
ENDMDL
MODEL 7
REMARK VINA RESULT:      -7.8      1.478      6.187
REMARK  5 active torsions:
REMARK  status: ('A' for Active; 'I' for Inactive)
REMARK    1  A    between atoms: C5_5  and  N1_6 
REMARK    2  A    between atoms: C7_8  and  N2_9 
REMARK    3  A    between atoms: N2_9  and  C8_10 
REMARK    4  A    between atoms: C11_14  and  C12_15 
REMARK    5  A    between atoms: C15_18  and  N4_19 
ROOT
HETATM    1  C8  UNL     1      24.334   1.471  51.646  1.00  0.00     0.727 A 
HETATM    2  N3  UNL     1      24.595   2.591  50.950  1.00  0.00    -0.075 NA
HETATM    3  C9  UNL     1      25.854   3.046  50.910  1.00  0.00     0.139 A 
HETATM    4  C10 UNL     1      26.915   2.438  51.541  1.00  0.00     0.053 A 
HETATM    5  C11 UNL     1      26.635   1.293  52.251  1.00  0.00     0.089 A 
HETATM    6  N5  UNL     1      25.364   0.875  52.264  1.00  0.00    -0.062 NA
ENDROOT
BRANCH   1   7
HETATM    7  N2  UNL     1      23.000   0.968  51.703  1.00  0.00    -0.188 N 
HETATM    8  H9  UNL     1      22.386   1.224  50.871  1.00  0.00     0.184 HD
BRANCH   7   9
HETATM    9  C7  UNL     1      22.354   0.183  52.678  1.00  0.00     0.057 A 
HETATM   10  C2  UNL     1      20.999  -0.068  52.619  1.00  0.00    -0.035 A 
HETATM   11  C1  UNL     1      20.196   0.508  51.489  1.00  0.00     0.050 C 
HETATM   12  C3  UNL     1      20.347  -0.830  53.557  1.00  0.00     0.011 A 
HETATM   13  C4  UNL     1      21.030  -1.386  54.617  1.00  0.00     0.024 A 
HETATM   14  C5  UNL     1      22.385  -1.170  54.732  1.00  0.00     0.008 A 
HETATM   15  C6  UNL     1      22.976  -0.400  53.760  1.00  0.00     0.053 A 
BRANCH  14  16
HETATM   16  N1  UNL     1      23.100  -1.739  55.821  1.00  0.00    -0.303 NA
HETATM   17  H6  UNL     1      22.743  -2.162  56.725  1.00  0.00     0.124 HD
HETATM   18  H7  UNL     1      22.812  -2.160  56.717  1.00  0.00     0.124 HD
ENDBRANCH  14  16
ENDBRANCH   7   9
ENDBRANCH   1   7
BRANCH   5  19
HETATM   19  C12 UNL     1      27.687   0.571  52.957  1.00  0.00     0.020 A 
HETATM   20  C13 UNL     1      28.009  -0.699  53.076  1.00  0.00     0.018 A 
HETATM   21  C14 UNL     1      29.133  -0.281  53.941  1.00  0.00     0.031 A 
HETATM   22  C15 UNL     1      28.793   0.993  53.810  1.00  0.00     0.038 A 
BRANCH  22  23
HETATM   23  N4  UNL     1      29.370   2.173  54.344  1.00  0.00    -0.398 N 
HETATM   24  H14 UNL     1      29.020   2.506  55.275  1.00  0.00     0.156 HD
HETATM   25  H15 UNL     1      30.110   2.609  53.740  1.00  0.00     0.156 HD
ENDBRANCH  22  23
ENDBRANCH   5  19
TORSDOF 5
ENDMDL
MODEL 8
REMARK VINA RESULT:      -7.7      1.697      2.608
REMARK  5 active torsions:
REMARK  status: ('A' for Active; 'I' for Inactive)
REMARK    1  A    between atoms: C5_5  and  N1_6 
REMARK    2  A    between atoms: C7_8  and  N2_9 
REMARK    3  A    between atoms: N2_9  and  C8_10 
REMARK    4  A    between atoms: C11_14  and  C12_15 
REMARK    5  A    between atoms: C15_18  and  N4_19 
ROOT
HETATM    1  C8  UNL     1      24.784   1.476  51.978  1.00  0.00     0.727 A 
HETATM    2  N3  UNL     1      24.269   2.668  51.628  1.00  0.00    -0.075 NA
HETATM    3  C9  UNL     1      22.979   2.914  51.893  1.00  0.00     0.139 A 
HETATM    4  C10 UNL     1      22.133   2.020  52.507  1.00  0.00     0.053 A 
HETATM    5  C11 UNL     1      22.672   0.804  52.860  1.00  0.00     0.089 A 
HETATM    6  N5  UNL     1      23.964   0.601  52.577  1.00  0.00    -0.062 NA
ENDROOT
BRANCH   1   7
HETATM    7  N2  UNL     1      26.155   1.191  51.706  1.00  0.00    -0.188 N 
HETATM    8  H9  UNL     1      26.434   1.256  50.679  1.00  0.00     0.184 HD
BRANCH   7   9
HETATM    9  C7  UNL     1      27.210   0.837  52.569  1.00  0.00     0.057 A 
HETATM   10  C2  UNL     1      27.522  -0.483  52.823  1.00  0.00    -0.035 A 
HETATM   11  C1  UNL     1      26.718  -1.565  52.162  1.00  0.00     0.050 C 
HETATM   12  C3  UNL     1      28.546  -0.853  53.659  1.00  0.00     0.011 A 
HETATM   13  C4  UNL     1      29.319   0.094  54.294  1.00  0.00     0.024 A 
HETATM   14  C5  UNL     1      29.056   1.430  54.082  1.00  0.00     0.008 A 
HETATM   15  C6  UNL     1      28.019   1.732  53.233  1.00  0.00     0.053 A 
BRANCH  14  16
HETATM   16  N1  UNL     1      29.848   2.417  54.732  1.00  0.00    -0.303 NA
HETATM   17  H6  UNL     1      30.898   2.470  54.865  1.00  0.00     0.124 HD
HETATM   18  H7  UNL     1      30.860   2.522  54.892  1.00  0.00     0.124 HD
ENDBRANCH  14  16
ENDBRANCH   7   9
ENDBRANCH   1   7
BRANCH   5  19
HETATM   19  C12 UNL     1      21.861  -0.215  53.516  1.00  0.00     0.020 A 
HETATM   20  C13 UNL     1      22.112  -1.168  54.388  1.00  0.00     0.018 A 
HETATM   21  C14 UNL     1      20.680  -1.530  54.328  1.00  0.00     0.031 A 
HETATM   22  C15 UNL     1      20.446  -0.566  53.451  1.00  0.00     0.038 A 
BRANCH  22  23
HETATM   23  N4  UNL     1      19.252  -0.163  52.802  1.00  0.00    -0.398 N 
HETATM   24  H14 UNL     1      18.352  -0.274  53.328  1.00  0.00     0.156 HD
HETATM   25  H15 UNL     1      19.389   0.219  51.833  1.00  0.00     0.156 HD
ENDBRANCH  22  23
ENDBRANCH   5  19
TORSDOF 5
ENDMDL
MODEL 9
REMARK VINA RESULT:      -7.7      2.428      6.404
REMARK  5 active torsions:
REMARK  status: ('A' for Active; 'I' for Inactive)
REMARK    1  A    between atoms: C5_5  and  N1_6 
REMARK    2  A    between atoms: C7_8  and  N2_9 
REMARK    3  A    between atoms: N2_9  and  C8_10 
REMARK    4  A    between atoms: C11_14  and  C12_15 
REMARK    5  A    between atoms: C15_18  and  N4_19 
ROOT
HETATM    1  C8  UNL     1      25.105   1.101  51.968  1.00  0.00     0.727 A 
HETATM    2  N3  UNL     1      24.140   0.664  52.797  1.00  0.00    -0.075 NA
HETATM    3  C9  UNL     1      24.480  -0.138  53.813  1.00  0.00     0.139 A 
HETATM    4  C10 UNL     1      25.766  -0.553  54.073  1.00  0.00     0.053 A 
HETATM    5  C11 UNL     1      26.744  -0.100  53.217  1.00  0.00     0.089 A 
HETATM    6  N5  UNL     1      26.360   0.700  52.216  1.00  0.00    -0.062 NA
ENDROOT
BRANCH   1   7
HETATM    7  N2  UNL     1      24.767   1.957  50.877  1.00  0.00    -0.188 N 
HETATM    8  H9  UNL     1      24.613   1.461  49.946  1.00  0.00     0.184 HD
BRANCH   7   9
HETATM    9  C7  UNL     1      24.599   3.354  50.822  1.00  0.00     0.057 A 
HETATM   10  C2  UNL     1      25.497   4.163  50.157  1.00  0.00    -0.035 A 
HETATM   11  C1  UNL     1      26.680   3.537  49.476  1.00  0.00     0.050 C 
HETATM   12  C3  UNL     1      25.354   5.526  50.089  1.00  0.00     0.011 A 
HETATM   13  C4  UNL     1      24.290   6.158  50.694  1.00  0.00     0.024 A 
HETATM   14  C5  UNL     1      23.358   5.405  51.375  1.00  0.00     0.008 A 
HETATM   15  C6  UNL     1      23.560   4.047  51.404  1.00  0.00     0.053 A 
BRANCH  14  16
HETATM   16  N1  UNL     1      22.255   6.046  52.003  1.00  0.00    -0.303 NA
HETATM   17  H6  UNL     1      21.216   5.859  51.913  1.00  0.00     0.124 HD
HETATM   18  H7  UNL     1      21.234   5.911  51.955  1.00  0.00     0.124 HD
ENDBRANCH  14  16
ENDBRANCH   7   9
ENDBRANCH   1   7
BRANCH   5  19
HETATM   19  C12 UNL     1      28.139  -0.481  53.403  1.00  0.00     0.020 A 
HETATM   20  C13 UNL     1      29.245   0.182  53.670  1.00  0.00     0.018 A 
HETATM   21  C14 UNL     1      29.967  -1.108  53.630  1.00  0.00     0.031 A 
HETATM   22  C15 UNL     1      28.844  -1.757  53.361  1.00  0.00     0.038 A 
BRANCH  22  23
HETATM   23  N4  UNL     1      28.591  -3.136  53.147  1.00  0.00    -0.398 N 
HETATM   24  H14 UNL     1      27.882  -3.392  52.418  1.00  0.00     0.156 HD
HETATM   25  H15 UNL     1      29.154  -3.782  53.754  1.00  0.00     0.156 HD
ENDBRANCH  22  23
ENDBRANCH   5  19
TORSDOF 5
ENDMDL
