MODEL 1
REMARK VINA RESULT:      -9.7      0.000      0.000
REMARK  2 active torsions:
REMARK  status: ('A' for Active; 'I' for Inactive)
REMARK    1  A    between atoms: O1_1  and  C1_2 
REMARK    2  A    between atoms: C4_5  and  C5_6 
ROOT
HETATM    1  C5  UNL     1      23.706   2.133  52.572  1.00  0.00     0.048 C 
HETATM    2  C6  UNL     1      23.794   3.575  52.963  1.00  0.00     0.020 C 
HETATM    3  C7  UNL     1      22.997   4.565  52.227  1.00  0.00     0.062 C 
HETATM    4  C8  UNL     1      21.574   4.270  51.981  1.00  0.00     0.051 C 
HETATM    5  N1  UNL     1      20.630   3.525  52.440  1.00  0.00    -0.178 NA
HETATM    6  N2  UNL     1      19.321   3.552  51.850  1.00  0.00    -0.255 N 
HETATM    7  C9  UNL     1      19.382   3.379  50.409  1.00  0.00     0.182 A 
HETATM    8  N3  UNL     1      20.268   2.652  50.109  1.00  0.00    -0.227 NA
HETATM    9  C10 UNL     1      20.826   2.132  48.958  1.00  0.00     0.057 A 
HETATM   10  C11 UNL     1      20.041   2.691  47.978  1.00  0.00     0.075 A 
HETATM   11  S1  UNL     1      18.716   3.800  48.724  1.00  0.00    -0.088 SA
HETATM   12  C12 UNL     1      18.639   5.414  48.366  1.00  0.00     0.015 C 
HETATM   13  C13 UNL     1      19.208   6.240  49.274  1.00  0.00     0.002 C 
HETATM   14  C14 UNL     1      20.421   5.850  50.006  1.00  0.00     0.045 C 
HETATM   15  C15 UNL     1      21.158   5.206  50.884  1.00  0.00     0.011 C 
HETATM   16  C16 UNL     1      21.831   1.404  49.888  1.00  0.00     0.035 A 
HETATM   17  C17 UNL     1      21.139   0.444  50.595  1.00  0.00     0.020 A 
HETATM   18  C18 UNL     1      22.173   0.880  51.363  1.00  0.00     0.040 A 
HETATM   19  C19 UNL     1      23.199   1.766  51.282  1.00  0.00    -0.066 A 
HETATM   20  C20 UNL     1      23.821   2.682  50.507  1.00  0.00     0.001 A 
HETATM   21  C21 UNL     1      22.816   2.350  49.621  1.00  0.00    -0.009 A 
HETATM   22  H9  UNL     1      18.447   3.680  52.394  1.00  0.00     0.191 HD
ENDROOT
BRANCH   1  23
HETATM   23  C4  UNL     1      24.836   1.376  53.051  1.00  0.00    -0.050 A 
HETATM   24  C3  UNL     1      24.941   0.012  53.103  1.00  0.00     0.010 A 
HETATM   25  C2  UNL     1      26.002  -0.757  53.552  1.00  0.00     0.037 A 
HETATM   26  C1  UNL     1      27.090  -0.029  54.006  1.00  0.00     0.065 A 
HETATM   27  C23 UNL     1      27.078   1.350  53.992  1.00  0.00     0.037 A 
HETATM   28  C22 UNL     1      25.967   2.053  53.522  1.00  0.00     0.010 A 
BRANCH  26  29
HETATM   29  O1  UNL     1      28.174  -0.768  54.465  1.00  0.00    -0.361 OA
HETATM   30  H1  UNL     1      28.477  -1.629  54.031  1.00  0.00     0.217 HD
ENDBRANCH  26  29
ENDBRANCH   1  23
TORSDOF 2
ENDMDL
MODEL 2
REMARK VINA RESULT:      -9.6      1.679      3.121
REMARK  2 active torsions:
REMARK  status: ('A' for Active; 'I' for Inactive)
REMARK    1  A    between atoms: O1_1  and  C1_2 
REMARK    2  A    between atoms: C4_5  and  C5_6 
ROOT
HETATM    1  C5  UNL     1      25.085   1.263  52.269  1.00  0.00     0.048 C 
HETATM    2  C6  UNL     1      24.131   0.401  53.035  1.00  0.00     0.020 C 
HETATM    3  C7  UNL     1      22.711   0.774  53.083  1.00  0.00     0.062 C 
HETATM    4  C8  UNL     1      22.044   1.138  51.819  1.00  0.00     0.051 C 
HETATM    5  N1  UNL     1      22.189   0.983  50.549  1.00  0.00    -0.178 NA
HETATM    6  N2  UNL     1      21.250   1.558  49.628  1.00  0.00    -0.255 N 
HETATM    7  C9  UNL     1      21.037   2.969  49.895  1.00  0.00     0.182 A 
HETATM    8  N3  UNL     1      22.033   3.479  50.286  1.00  0.00    -0.227 NA
HETATM    9  C10 UNL     1      22.453   4.725  50.706  1.00  0.00     0.057 A 
HETATM   10  C11 UNL     1      21.307   5.474  50.582  1.00  0.00     0.075 A 
HETATM   11  S1  UNL     1      19.881   4.425  49.945  1.00  0.00    -0.088 SA
HETATM   12  C12 UNL     1      18.500   4.213  50.832  1.00  0.00     0.015 C 
HETATM   13  C13 UNL     1      18.436   3.066  51.546  1.00  0.00     0.002 C 
HETATM   14  C14 UNL     1      19.636   2.482  52.162  1.00  0.00     0.045 C 
HETATM   15  C15 UNL     1      20.792   1.860  52.224  1.00  0.00     0.011 C 
HETATM   16  C16 UNL     1      23.844   4.076  50.929  1.00  0.00     0.035 A 
HETATM   17  C17 UNL     1      24.366   3.755  49.695  1.00  0.00     0.020 A 
HETATM   18  C18 UNL     1      24.836   2.860  50.605  1.00  0.00     0.040 A 
HETATM   19  C19 UNL     1      24.731   2.611  51.936  1.00  0.00    -0.066 A 
HETATM   20  C20 UNL     1      24.183   3.013  53.104  1.00  0.00     0.001 A 
HETATM   21  C21 UNL     1      23.619   3.982  52.299  1.00  0.00    -0.009 A 
HETATM   22  H9  UNL     1      20.787   1.022  48.869  1.00  0.00     0.191 HD
ENDROOT
BRANCH   1  23
HETATM   23  C4  UNL     1      26.452   1.044  52.674  1.00  0.00    -0.050 A 
HETATM   24  C3  UNL     1      27.351   2.002  53.060  1.00  0.00     0.010 A 
HETATM   25  C2  UNL     1      28.668   1.840  53.457  1.00  0.00     0.037 A 
HETATM   26  C1  UNL     1      29.114   0.528  53.456  1.00  0.00     0.065 A 
HETATM   27  C23 UNL     1      28.280  -0.505  53.083  1.00  0.00     0.037 A 
HETATM   28  C22 UNL     1      26.962  -0.259  52.695  1.00  0.00     0.010 A 
BRANCH  26  29
HETATM   29  O1  UNL     1      30.431   0.329  53.849  1.00  0.00    -0.361 OA
HETATM   30  H1  UNL     1      30.833   0.760  54.670  1.00  0.00     0.217 HD
ENDBRANCH  26  29
ENDBRANCH   1  23
TORSDOF 2
ENDMDL
MODEL 3
REMARK VINA RESULT:      -9.3      1.721      2.079
REMARK  2 active torsions:
REMARK  status: ('A' for Active; 'I' for Inactive)
REMARK    1  A    between atoms: O1_1  and  C1_2 
REMARK    2  A    between atoms: C4_5  and  C5_6 
ROOT
HETATM    1  C5  UNL     1      23.865   2.309  51.916  1.00  0.00     0.048 C 
HETATM    2  C6  UNL     1      23.870   3.402  52.939  1.00  0.00     0.020 C 
HETATM    3  C7  UNL     1      23.441   4.751  52.545  1.00  0.00     0.062 C 
HETATM    4  C8  UNL     1      22.192   4.887  51.774  1.00  0.00     0.051 C 
HETATM    5  N1  UNL     1      21.113   4.231  51.524  1.00  0.00    -0.178 NA
HETATM    6  N2  UNL     1      20.110   4.773  50.650  1.00  0.00    -0.255 N 
HETATM    7  C9  UNL     1      20.683   5.211  49.389  1.00  0.00     0.182 A 
HETATM    8  N3  UNL     1      21.583   4.510  49.069  1.00  0.00    -0.227 NA
HETATM    9  C10 UNL     1      22.496   4.417  48.038  1.00  0.00     0.057 A 
HETATM   10  C11 UNL     1      22.147   5.484  47.245  1.00  0.00     0.075 A 
HETATM   11  S1  UNL     1      20.694   6.426  47.981  1.00  0.00    -0.088 SA
HETATM   12  C12 UNL     1      20.826   8.019  48.410  1.00  0.00     0.015 C 
HETATM   13  C13 UNL     1      21.063   8.252  49.722  1.00  0.00     0.002 C 
HETATM   14  C14 UNL     1      21.908   7.349  50.516  1.00  0.00     0.045 C 
HETATM   15  C15 UNL     1      22.246   6.260  51.170  1.00  0.00     0.011 C 
HETATM   16  C16 UNL     1      23.061   3.176  48.777  1.00  0.00     0.035 A 
HETATM   17  C17 UNL     1      22.117   2.175  48.710  1.00  0.00     0.020 A 
HETATM   18  C18 UNL     1      22.820   2.024  49.865  1.00  0.00     0.040 A 
HETATM   19  C19 UNL     1      23.845   2.630  50.519  1.00  0.00    -0.066 A 
HETATM   20  C20 UNL     1      24.746   3.636  50.487  1.00  0.00     0.001 A 
HETATM   21  C21 UNL     1      24.118   3.921  49.292  1.00  0.00    -0.009 A 
HETATM   22  H9  UNL     1      19.105   4.839  50.899  1.00  0.00     0.191 HD
ENDROOT
BRANCH   1  23
HETATM   23  C4  UNL     1      24.708   1.205  52.305  1.00  0.00    -0.050 A 
HETATM   24  C3  UNL     1      24.414   0.243  53.233  1.00  0.00     0.010 A 
HETATM   25  C2  UNL     1      25.189  -0.832  53.637  1.00  0.00     0.037 A 
HETATM   26  C1  UNL     1      26.419  -0.927  53.006  1.00  0.00     0.065 A 
HETATM   27  C23 UNL     1      26.802  -0.004  52.057  1.00  0.00     0.037 A 
HETATM   28  C22 UNL     1      25.962   1.054  51.703  1.00  0.00     0.010 A 
BRANCH  26  29
HETATM   29  O1  UNL     1      27.222  -1.994  53.387  1.00  0.00    -0.361 OA
HETATM   30  H1  UNL     1      28.067  -2.252  52.896  1.00  0.00     0.217 HD
ENDBRANCH  26  29
ENDBRANCH   1  23
TORSDOF 2
ENDMDL
MODEL 4
REMARK VINA RESULT:      -9.2      3.415      5.044
REMARK  2 active torsions:
REMARK  status: ('A' for Active; 'I' for Inactive)
REMARK    1  A    between atoms: O1_1  and  C1_2 
REMARK    2  A    between atoms: C4_5  and  C5_6 
ROOT
HETATM    1  C5  UNL     1      21.995   1.590  52.263  1.00  0.00     0.048 C 
HETATM    2  C6  UNL     1      23.414   1.156  52.463  1.00  0.00     0.020 C 
HETATM    3  C7  UNL     1      24.479   1.819  51.698  1.00  0.00     0.062 C 
HETATM    4  C8  UNL     1      24.481   3.293  51.644  1.00  0.00     0.051 C 
HETATM    5  N1  UNL     1      24.010   4.302  52.289  1.00  0.00    -0.178 NA
HETATM    6  N2  UNL     1      24.268   5.643  51.842  1.00  0.00    -0.255 N 
HETATM    7  C9  UNL     1      23.946   5.807  50.435  1.00  0.00     0.182 A 
HETATM    8  N3  UNL     1      23.016   5.137  50.135  1.00  0.00    -0.227 NA
HETATM    9  C10 UNL     1      22.276   4.854  49.004  1.00  0.00     0.057 A 
HETATM   10  C11 UNL     1      22.895   5.627  48.052  1.00  0.00     0.075 A 
HETATM   11  S1  UNL     1      24.336   6.585  48.791  1.00  0.00    -0.088 SA
HETATM   12  C12 UNL     1      25.885   6.373  48.248  1.00  0.00     0.015 C 
HETATM   13  C13 UNL     1      26.650   5.532  48.981  1.00  0.00     0.002 C 
HETATM   14  C14 UNL     1      26.076   4.342  49.623  1.00  0.00     0.045 C 
HETATM   15  C15 UNL     1      25.374   3.645  50.490  1.00  0.00     0.011 C 
HETATM   16  C16 UNL     1      21.439   3.909  49.904  1.00  0.00     0.035 A 
HETATM   17  C17 UNL     1      20.729   4.686  50.793  1.00  0.00     0.020 A 
HETATM   18  C18 UNL     1      20.999   3.493  51.388  1.00  0.00     0.040 A 
HETATM   19  C19 UNL     1      21.625   2.325  51.090  1.00  0.00    -0.066 A 
HETATM   20  C20 UNL     1      22.302   1.634  50.146  1.00  0.00     0.001 A 
HETATM   21  C21 UNL     1      22.114   2.793  49.419  1.00  0.00    -0.009 A 
HETATM   22  H9  UNL     1      24.637   6.393  52.456  1.00  0.00     0.191 HD
ENDROOT
BRANCH   1  23
HETATM   23  C4  UNL     1      21.059   0.588  52.709  1.00  0.00    -0.050 A 
HETATM   24  C3  UNL     1      19.755   0.457  52.313  1.00  0.00     0.010 A 
HETATM   25  C2  UNL     1      18.822  -0.486  52.712  1.00  0.00     0.037 A 
HETATM   26  C1  UNL     1      19.290  -1.408  53.634  1.00  0.00     0.065 A 
HETATM   27  C23 UNL     1      20.590  -1.356  54.092  1.00  0.00     0.037 A 
HETATM   28  C22 UNL     1      21.472  -0.373  53.640  1.00  0.00     0.010 A 
BRANCH  26  29
HETATM   29  O1  UNL     1      18.380  -2.369  54.057  1.00  0.00    -0.361 OA
HETATM   30  H1  UNL     1      17.566  -2.150  54.614  1.00  0.00     0.217 HD
ENDBRANCH  26  29
ENDBRANCH   1  23
TORSDOF 2
ENDMDL
MODEL 5
REMARK VINA RESULT:      -9.1      2.816      3.621
REMARK  2 active torsions:
REMARK  status: ('A' for Active; 'I' for Inactive)
REMARK    1  A    between atoms: O1_1  and  C1_2 
REMARK    2  A    between atoms: C4_5  and  C5_6 
ROOT
HETATM    1  C5  UNL     1      25.081   3.143  51.361  1.00  0.00     0.048 C 
HETATM    2  C6  UNL     1      26.076   3.645  50.362  1.00  0.00     0.020 C 
HETATM    3  C7  UNL     1      25.678   4.707  49.428  1.00  0.00     0.062 C 
HETATM    4  C8  UNL     1      24.979   5.886  49.971  1.00  0.00     0.051 C 
HETATM    5  N1  UNL     1      24.808   6.500  51.089  1.00  0.00    -0.178 NA
HETATM    6  N2  UNL     1      23.983   7.673  51.163  1.00  0.00    -0.255 N 
HETATM    7  C9  UNL     1      22.681   7.448  50.561  1.00  0.00     0.182 A 
HETATM    8  N3  UNL     1      22.324   6.331  50.734  1.00  0.00    -0.227 NA
HETATM    9  C10 UNL     1      21.243   5.536  50.410  1.00  0.00     0.057 A 
HETATM   10  C11 UNL     1      20.448   6.403  49.699  1.00  0.00     0.075 A 
HETATM   11  S1  UNL     1      21.247   8.102  49.572  1.00  0.00    -0.088 SA
HETATM   12  C12 UNL     1      21.631   8.769  48.107  1.00  0.00     0.015 C 
HETATM   13  C13 UNL     1      22.921   8.628  47.722  1.00  0.00     0.002 C 
HETATM   14  C14 UNL     1      23.685   7.414  48.044  1.00  0.00     0.045 C 
HETATM   15  C15 UNL     1      24.342   6.550  48.786  1.00  0.00     0.011 C 
HETATM   16  C16 UNL     1      21.976   4.397  51.166  1.00  0.00     0.035 A 
HETATM   17  C17 UNL     1      21.987   4.715  52.506  1.00  0.00     0.020 A 
HETATM   18  C18 UNL     1      23.102   3.986  52.229  1.00  0.00     0.040 A 
HETATM   19  C19 UNL     1      23.681   3.377  51.162  1.00  0.00    -0.066 A 
HETATM   20  C20 UNL     1      23.573   3.102  49.844  1.00  0.00     0.001 A 
HETATM   21  C21 UNL     1      22.410   3.835  49.969  1.00  0.00    -0.009 A 
HETATM   22  H9  UNL     1      24.289   8.566  51.595  1.00  0.00     0.191 HD
ENDROOT
BRANCH   1  23
HETATM   23  C4  UNL     1      25.444   1.846  51.877  1.00  0.00    -0.050 A 
HETATM   24  C3  UNL     1      24.642   1.001  52.596  1.00  0.00     0.010 A 
HETATM   25  C2  UNL     1      24.945  -0.249  53.110  1.00  0.00     0.037 A 
HETATM   26  C1  UNL     1      26.235  -0.682  52.850  1.00  0.00     0.065 A 
HETATM   27  C23 UNL     1      27.116   0.100  52.132  1.00  0.00     0.037 A 
HETATM   28  C22 UNL     1      26.732   1.352  51.647  1.00  0.00     0.010 A 
BRANCH  26  29
HETATM   29  O1  UNL     1      26.574  -1.933  53.350  1.00  0.00    -0.361 OA
HETATM   30  H1  UNL     1      26.286  -2.798  52.915  1.00  0.00     0.217 HD
ENDBRANCH  26  29
ENDBRANCH   1  23
TORSDOF 2
ENDMDL
MODEL 6
REMARK VINA RESULT:      -8.9      2.556      3.867
REMARK  2 active torsions:
REMARK  status: ('A' for Active; 'I' for Inactive)
REMARK    1  A    between atoms: O1_1  and  C1_2 
REMARK    2  A    between atoms: C4_5  and  C5_6 
ROOT
HETATM    1  C5  UNL     1      22.014   0.844  51.376  1.00  0.00     0.048 C 
HETATM    2  C6  UNL     1      20.681   0.440  50.829  1.00  0.00     0.020 C 
HETATM    3  C7  UNL     1      19.996   1.332  49.883  1.00  0.00     0.062 C 
HETATM    4  C8  UNL     1      20.775   1.885  48.760  1.00  0.00     0.051 C 
HETATM    5  N1  UNL     1      21.853   1.648  48.098  1.00  0.00    -0.178 NA
HETATM    6  N2  UNL     1      22.260   2.512  47.026  1.00  0.00    -0.255 N 
HETATM    7  C9  UNL     1      22.275   3.904  47.439  1.00  0.00     0.182 A 
HETATM    8  N3  UNL     1      22.594   4.003  48.576  1.00  0.00    -0.227 NA
HETATM    9  C10 UNL     1      22.771   5.004  49.511  1.00  0.00     0.057 A 
HETATM   10  C11 UNL     1      22.460   6.132  48.789  1.00  0.00     0.075 A 
HETATM   11  S1  UNL     1      21.987   5.694  47.021  1.00  0.00    -0.088 SA
HETATM   12  C12 UNL     1      20.492   6.057  46.412  1.00  0.00     0.015 C 
HETATM   13  C13 UNL     1      19.595   5.044  46.427  1.00  0.00     0.002 C 
HETATM   14  C14 UNL     1      19.571   4.063  47.521  1.00  0.00     0.045 C 
HETATM   15  C15 UNL     1      19.969   3.045  48.253  1.00  0.00     0.011 C 
HETATM   16  C16 UNL     1      23.152   3.877  50.505  1.00  0.00     0.035 A 
HETATM   17  C17 UNL     1      24.356   3.342  50.101  1.00  0.00     0.020 A 
HETATM   18  C18 UNL     1      23.637   2.364  50.713  1.00  0.00     0.040 A 
HETATM   19  C19 UNL     1      22.431   2.214  51.320  1.00  0.00    -0.066 A 
HETATM   20  C20 UNL     1      21.287   2.832  51.690  1.00  0.00     0.001 A 
HETATM   21  C21 UNL     1      21.890   3.918  51.090  1.00  0.00    -0.009 A 
HETATM   22  H9  UNL     1      22.512   2.174  46.078  1.00  0.00     0.191 HD
ENDROOT
BRANCH   1  23
HETATM   23  C4  UNL     1      22.338   0.129  52.586  1.00  0.00    -0.050 A 
HETATM   24  C3  UNL     1      23.584  -0.031  53.130  1.00  0.00     0.010 A 
HETATM   25  C2  UNL     1      23.942  -0.705  54.285  1.00  0.00     0.037 A 
HETATM   26  C1  UNL     1      22.884  -1.289  54.964  1.00  0.00     0.065 A 
HETATM   27  C23 UNL     1      21.593  -1.181  54.493  1.00  0.00     0.037 A 
HETATM   28  C22 UNL     1      21.313  -0.482  53.318  1.00  0.00     0.010 A 
BRANCH  26  29
HETATM   29  O1  UNL     1      23.207  -1.974  56.129  1.00  0.00    -0.361 OA
HETATM   30  H1  UNL     1      23.745  -2.830  56.134  1.00  0.00     0.217 HD
ENDBRANCH  26  29
ENDBRANCH   1  23
TORSDOF 2
ENDMDL
MODEL 7
REMARK VINA RESULT:      -8.8      3.466      5.315
REMARK  2 active torsions:
REMARK  status: ('A' for Active; 'I' for Inactive)
REMARK    1  A    between atoms: O1_1  and  C1_2 
REMARK    2  A    between atoms: C4_5  and  C5_6 
ROOT
HETATM    1  C5  UNL     1      24.233   4.621  49.480  1.00  0.00     0.048 C 
HETATM    2  C6  UNL     1      23.297   4.330  48.350  1.00  0.00     0.020 C 
HETATM    3  C7  UNL     1      22.244   3.322  48.535  1.00  0.00     0.062 C 
HETATM    4  C8  UNL     1      21.432   3.382  49.765  1.00  0.00     0.051 C 
HETATM    5  N1  UNL     1      21.103   4.217  50.687  1.00  0.00    -0.178 NA
HETATM    6  N2  UNL     1      20.248   3.815  51.769  1.00  0.00    -0.255 N 
HETATM    7  C9  UNL     1      20.726   2.599  52.402  1.00  0.00     0.182 A 
HETATM    8  N3  UNL     1      21.910   2.556  52.395  1.00  0.00    -0.227 NA
HETATM    9  C10 UNL     1      22.910   1.698  52.806  1.00  0.00     0.057 A 
HETATM   10  C11 UNL     1      22.194   0.660  53.354  1.00  0.00     0.075 A 
HETATM   11  S1  UNL     1      20.343   0.980  53.235  1.00  0.00    -0.088 SA
HETATM   12  C12 UNL     1      19.343  -0.039  52.397  1.00  0.00     0.015 C 
HETATM   13  C13 UNL     1      19.037   0.350  51.138  1.00  0.00     0.002 C 
HETATM   14  C14 UNL     1      20.019   1.048  50.295  1.00  0.00     0.045 C 
HETATM   15  C15 UNL     1      20.776   2.036  49.873  1.00  0.00     0.011 C 
HETATM   16  C16 UNL     1      23.908   2.741  52.239  1.00  0.00     0.035 A 
HETATM   17  C17 UNL     1      23.845   3.865  53.034  1.00  0.00     0.020 A 
HETATM   18  C18 UNL     1      24.163   4.252  51.769  1.00  0.00     0.040 A 
HETATM   19  C19 UNL     1      24.379   3.684  50.555  1.00  0.00    -0.066 A 
HETATM   20  C20 UNL     1      24.432   2.525  49.862  1.00  0.00     0.001 A 
HETATM   21  C21 UNL     1      24.097   1.985  51.086  1.00  0.00    -0.009 A 
HETATM   22  H9  UNL     1      19.398   4.337  52.055  1.00  0.00     0.191 HD
ENDROOT
BRANCH   1  23
HETATM   23  C4  UNL     1      25.442   5.262  49.025  1.00  0.00    -0.050 A 
HETATM   24  C3  UNL     1      26.697   4.713  49.002  1.00  0.00     0.010 A 
HETATM   25  C2  UNL     1      27.882   5.288  48.574  1.00  0.00     0.037 A 
HETATM   26  C1  UNL     1      27.761   6.589  48.115  1.00  0.00     0.065 A 
HETATM   27  C23 UNL     1      26.537   7.225  48.100  1.00  0.00     0.037 A 
HETATM   28  C22 UNL     1      25.385   6.576  48.548  1.00  0.00     0.010 A 
BRANCH  26  29
HETATM   29  O1  UNL     1      28.931   7.197  47.678  1.00  0.00    -0.361 OA
HETATM   30  H1  UNL     1      29.352   7.986  48.148  1.00  0.00     0.217 HD
ENDBRANCH  26  29
ENDBRANCH   1  23
TORSDOF 2
ENDMDL
MODEL 8
REMARK VINA RESULT:      -8.8      3.533      5.428
REMARK  2 active torsions:
REMARK  status: ('A' for Active; 'I' for Inactive)
REMARK    1  A    between atoms: O1_1  and  C1_2 
REMARK    2  A    between atoms: C4_5  and  C5_6 
ROOT
HETATM    1  C5  UNL     1      21.395   1.542  51.136  1.00  0.00     0.048 C 
HETATM    2  C6  UNL     1      21.027   1.587  49.686  1.00  0.00     0.020 C 
HETATM    3  C7  UNL     1      21.453   2.737  48.876  1.00  0.00     0.062 C 
HETATM    4  C8  UNL     1      22.856   3.180  48.980  1.00  0.00     0.051 C 
HETATM    5  N1  UNL     1      24.004   2.732  49.348  1.00  0.00    -0.178 NA
HETATM    6  N2  UNL     1      25.171   3.567  49.289  1.00  0.00    -0.255 N 
HETATM    7  C9  UNL     1      24.946   4.844  49.944  1.00  0.00     0.182 A 
HETATM    8  N3  UNL     1      24.223   4.718  50.875  1.00  0.00    -0.227 NA
HETATM    9  C10 UNL     1      23.644   5.517  51.841  1.00  0.00     0.057 A 
HETATM   10  C11 UNL     1      24.125   6.762  51.515  1.00  0.00     0.075 A 
HETATM   11  S1  UNL     1      25.244   6.679  50.004  1.00  0.00    -0.088 SA
HETATM   12  C12 UNL     1      24.886   7.509  48.617  1.00  0.00     0.015 C 
HETATM   13  C13 UNL     1      24.275   6.789  47.648  1.00  0.00     0.002 C 
HETATM   14  C14 UNL     1      23.307   5.733  47.978  1.00  0.00     0.045 C 
HETATM   15  C15 UNL     1      22.876   4.568  48.409  1.00  0.00     0.011 C 
HETATM   16  C16 UNL     1      22.984   4.221  52.380  1.00  0.00     0.035 A 
HETATM   17  C17 UNL     1      23.977   3.425  52.908  1.00  0.00     0.020 A 
HETATM   18  C18 UNL     1      22.990   2.619  52.430  1.00  0.00     0.040 A 
HETATM   19  C19 UNL     1      21.784   2.740  51.818  1.00  0.00    -0.066 A 
HETATM   20  C20 UNL     1      20.859   3.602  51.341  1.00  0.00     0.001 A 
HETATM   21  C21 UNL     1      21.775   4.542  51.769  1.00  0.00    -0.009 A 
HETATM   22  H9  UNL     1      26.059   3.284  48.833  1.00  0.00     0.191 HD
ENDROOT
BRANCH   1  23
HETATM   23  C4  UNL     1      20.557   0.630  51.875  1.00  0.00    -0.050 A 
HETATM   24  C3  UNL     1      19.253   0.317  51.600  1.00  0.00     0.010 A 
HETATM   25  C2  UNL     1      18.411  -0.550  52.278  1.00  0.00     0.037 A 
HETATM   26  C1  UNL     1      18.985  -1.171  53.375  1.00  0.00     0.065 A 
HETATM   27  C23 UNL     1      20.294  -0.919  53.729  1.00  0.00     0.037 A 
HETATM   28  C22 UNL     1      21.079  -0.030  52.993  1.00  0.00     0.010 A 
BRANCH  26  29
HETATM   29  O1  UNL     1      18.170  -2.048  54.079  1.00  0.00    -0.361 OA
HETATM   30  H1  UNL     1      18.292  -3.051  54.060  1.00  0.00     0.217 HD
ENDBRANCH  26  29
ENDBRANCH   1  23
TORSDOF 2
ENDMDL
MODEL 9
REMARK VINA RESULT:      -8.7      9.675     10.568
REMARK  2 active torsions:
REMARK  status: ('A' for Active; 'I' for Inactive)
REMARK    1  A    between atoms: O1_1  and  C1_2 
REMARK    2  A    between atoms: C4_5  and  C5_6 
ROOT
HETATM    1  C5  UNL     1      31.894   7.118  47.493  1.00  0.00     0.048 C 
HETATM    2  C6  UNL     1      32.574   8.450  47.555  1.00  0.00     0.020 C 
HETATM    3  C7  UNL     1      31.756   9.670  47.573  1.00  0.00     0.062 C 
HETATM    4  C8  UNL     1      30.611   9.726  48.500  1.00  0.00     0.051 C 
HETATM    5  N1  UNL     1      30.186   9.159  49.574  1.00  0.00    -0.178 NA
HETATM    6  N2  UNL     1      28.931   9.543  50.159  1.00  0.00    -0.255 N 
HETATM    7  C9  UNL     1      27.860   9.528  49.179  1.00  0.00     0.182 A 
HETATM    8  N3  UNL     1      28.025   8.663  48.386  1.00  0.00    -0.227 NA
HETATM    9  C10 UNL     1      27.400   8.170  47.258  1.00  0.00     0.057 A 
HETATM   10  C11 UNL     1      26.309   8.997  47.146  1.00  0.00     0.075 A 
HETATM   11  S1  UNL     1      26.287  10.277  48.526  1.00  0.00    -0.088 SA
HETATM   12  C12 UNL     1      26.347  11.899  48.200  1.00  0.00     0.015 C 
HETATM   13  C13 UNL     1      27.570  12.469  48.300  1.00  0.00     0.002 C 
HETATM   14  C14 UNL     1      28.786  11.739  47.914  1.00  0.00     0.045 C 
HETATM   15  C15 UNL     1      29.752  10.851  48.001  1.00  0.00     0.011 C 
HETATM   16  C16 UNL     1      28.554   7.136  47.188  1.00  0.00     0.035 A 
HETATM   17  C17 UNL     1      28.422   6.277  48.258  1.00  0.00     0.020 A 
HETATM   18  C18 UNL     1      29.743   6.382  47.953  1.00  0.00     0.040 A 
HETATM   19  C19 UNL     1      30.533   7.024  47.054  1.00  0.00    -0.066 A 
HETATM   20  C20 UNL     1      30.560   7.864  45.996  1.00  0.00     0.001 A 
HETATM   21  C21 UNL     1      29.194   7.866  46.191  1.00  0.00    -0.009 A 
HETATM   22  H9  UNL     1      28.816   9.796  51.159  1.00  0.00     0.191 HD
ENDROOT
BRANCH   1  23
HETATM   23  C4  UNL     1      32.785   6.080  47.035  1.00  0.00    -0.050 A 
HETATM   24  C3  UNL     1      32.710   5.408  45.844  1.00  0.00     0.010 A 
HETATM   25  C2  UNL     1      33.540   4.409  45.363  1.00  0.00     0.037 A 
HETATM   26  C1  UNL     1      34.576   4.059  46.215  1.00  0.00     0.065 A 
HETATM   27  C23 UNL     1      34.732   4.681  47.435  1.00  0.00     0.037 A 
HETATM   28  C22 UNL     1      33.851   5.682  47.849  1.00  0.00     0.010 A 
BRANCH  26  29
HETATM   29  O1  UNL     1      35.428   3.059  45.764  1.00  0.00    -0.361 OA
HETATM   30  H1  UNL     1      35.227   2.074  45.866  1.00  0.00     0.217 HD
ENDBRANCH  26  29
ENDBRANCH   1  23
TORSDOF 2
ENDMDL
