MODEL 1
REMARK VINA RESULT:      -8.7      0.000      0.000
REMARK  6 active torsions:
REMARK  status: ('A' for Active; 'I' for Inactive)
REMARK    1  A    between atoms: C1_2  and  C2_3 
REMARK       I    between atoms: C1_2  and  N1_8 
REMARK    2  A    between atoms: C3_4  and  C4_5 
REMARK    3  A    between atoms: C4_5  and  C5_6 
REMARK    4  A    between atoms: N1_8  and  C6_9 
REMARK    5  A    between atoms: C11_16  and  N4_17 
REMARK    6  A    between atoms: N4_17  and  C12_18 
ROOT
HETATM    1  C6  UNL     1      24.317  -0.265  53.600  1.00  0.00     0.036 A 
HETATM    2  C7  UNL     1      24.939  -0.637  54.772  1.00  0.00     0.032 A 
HETATM    3  C8  UNL     1      26.185  -0.109  55.032  1.00  0.00     0.035 A 
HETATM    4  C9  UNL     1      26.771   0.758  54.138  1.00  0.00     0.072 A 
HETATM    5  N2  UNL     1      27.997   1.232  54.468  1.00  0.00    -0.241 NA
HETATM    6  C10 UNL     1      28.658   2.084  53.666  1.00  0.00     0.236 A 
HETATM    7  N3  UNL     1      28.044   2.436  52.534  1.00  0.00    -0.224 NA
HETATM    8  C11 UNL     1      26.842   2.028  52.120  1.00  0.00     0.142 A 
HETATM    9  C18 UNL     1      26.200   1.157  52.966  1.00  0.00     0.041 A 
HETATM   10  C19 UNL     1      24.958   0.608  52.747  1.00  0.00     0.047 A 
ENDROOT
BRANCH   1  11
HETATM   11  N1  UNL     1      23.030  -0.798  53.311  1.00  0.00    -0.324 N 
HETATM   12  C1  UNL     1      21.851  -0.634  54.089  1.00  0.00     0.245 C 
HETATM   13  O1  UNL     1      21.641  -0.019  55.168  1.00  0.00    -0.268 OA
HETATM   14  H7  UNL     1      22.963  -1.359  52.441  1.00  0.00     0.169 HD
BRANCH  12  15
HETATM   15  C2  UNL     1      20.606  -1.265  53.624  1.00  0.00     0.070 C 
HETATM   16  C3  UNL     1      19.786  -0.359  53.085  1.00  0.00    -0.019 C 
BRANCH  16  17
HETATM   17  C4  UNL     1      18.440  -0.599  52.505  1.00  0.00     0.058 C 
BRANCH  17  18
HETATM   18  C5  UNL     1      17.639  -1.497  53.449  1.00  0.00     0.225 C 
HETATM   19  F1  UNL     1      17.755  -2.808  53.068  1.00  0.00    -0.255 F 
ENDBRANCH  17  18
ENDBRANCH  16  17
ENDBRANCH  12  15
ENDBRANCH   1  11
BRANCH   8  20
HETATM   20  N4  UNL     1      26.196   2.404  50.918  1.00  0.00    -0.340 N 
HETATM   21  H11 UNL     1      25.645   1.739  50.367  1.00  0.00     0.167 HD
BRANCH  20  22
HETATM   22  C12 UNL     1      26.157   3.656  50.257  1.00  0.00     0.035 A 
HETATM   23  C13 UNL     1      27.014   4.085  49.262  1.00  0.00     0.029 A 
HETATM   24  C14 UNL     1      26.926   5.312  48.656  1.00  0.00     0.004 A 
HETATM   25  C15 UNL     1      25.952   6.215  49.011  1.00  0.00     0.019 A 
HETATM   26  C16 UNL     1      25.073   5.830  50.000  1.00  0.00     0.013 A 
HETATM   27 BR1  UNL     1      23.740   7.113  50.459  1.00  0.00    -0.051 Br
HETATM   28  C17 UNL     1      25.196   4.588  50.582  1.00  0.00     0.048 A 
ENDBRANCH  20  22
ENDBRANCH   8  20
TORSDOF 6
ENDMDL
MODEL 2
REMARK VINA RESULT:      -8.6      3.332      6.289
REMARK  6 active torsions:
REMARK  status: ('A' for Active; 'I' for Inactive)
REMARK    1  A    between atoms: C1_2  and  C2_3 
REMARK       I    between atoms: C1_2  and  N1_8 
REMARK    2  A    between atoms: C3_4  and  C4_5 
REMARK    3  A    between atoms: C4_5  and  C5_6 
REMARK    4  A    between atoms: N1_8  and  C6_9 
REMARK    5  A    between atoms: C11_16  and  N4_17 
REMARK    6  A    between atoms: N4_17  and  C12_18 
ROOT
HETATM    1  C6  UNL     1      24.105  -0.624  54.176  1.00  0.00     0.036 A 
HETATM    2  C7  UNL     1      23.253  -1.213  55.085  1.00  0.00     0.032 A 
HETATM    3  C8  UNL     1      21.899  -1.129  54.842  1.00  0.00     0.035 A 
HETATM    4  C9  UNL     1      21.434  -0.477  53.724  1.00  0.00     0.072 A 
HETATM    5  N2  UNL     1      20.090  -0.439  53.558  1.00  0.00    -0.241 NA
HETATM    6  C10 UNL     1      19.530   0.172  52.500  1.00  0.00     0.236 A 
HETATM    7  N3  UNL     1      20.367   0.738  51.627  1.00  0.00    -0.224 NA
HETATM    8  C11 UNL     1      21.701   0.756  51.699  1.00  0.00     0.142 A 
HETATM    9  C18 UNL     1      22.232   0.122  52.795  1.00  0.00     0.041 A 
HETATM   10  C19 UNL     1      23.575   0.015  53.075  1.00  0.00     0.047 A 
ENDROOT
BRANCH   1  11
HETATM   11  N1  UNL     1      25.507  -0.698  54.407  1.00  0.00    -0.324 N 
HETATM   12  C1  UNL     1      26.395   0.398  54.581  1.00  0.00     0.245 C 
HETATM   13  O1  UNL     1      26.197   1.642  54.577  1.00  0.00    -0.268 OA
HETATM   14  H7  UNL     1      25.903  -1.656  54.451  1.00  0.00     0.169 HD
BRANCH  12  15
HETATM   15  C2  UNL     1      27.821   0.120  54.812  1.00  0.00     0.070 C 
HETATM   16  C3  UNL     1      28.476   0.001  53.654  1.00  0.00    -0.019 C 
BRANCH  16  17
HETATM   17  C4  UNL     1      29.923  -0.279  53.466  1.00  0.00     0.058 C 
BRANCH  17  18
HETATM   18  C5  UNL     1      30.200  -1.744  53.807  1.00  0.00     0.225 C 
HETATM   19  F1  UNL     1      29.391  -2.564  53.064  1.00  0.00    -0.255 F 
ENDBRANCH  17  18
ENDBRANCH  16  17
ENDBRANCH  12  15
ENDBRANCH   1  11
BRANCH   8  20
HETATM   20  N4  UNL     1      22.583   1.358  50.770  1.00  0.00    -0.340 N 
HETATM   21  H11 UNL     1      22.921   0.859  49.941  1.00  0.00     0.167 HD
BRANCH  20  22
HETATM   22  C12 UNL     1      23.152   2.655  50.761  1.00  0.00     0.035 A 
HETATM   23  C13 UNL     1      22.603   3.796  51.311  1.00  0.00     0.029 A 
HETATM   24  C14 UNL     1      23.204   5.029  51.271  1.00  0.00     0.004 A 
HETATM   25  C15 UNL     1      24.424   5.207  50.663  1.00  0.00     0.019 A 
HETATM   26  C16 UNL     1      25.011   4.096  50.099  1.00  0.00     0.013 A 
HETATM   27 BR1  UNL     1      26.701   4.392  49.269  1.00  0.00    -0.051 Br
HETATM   28  C17 UNL     1      24.373   2.876  50.163  1.00  0.00     0.048 A 
ENDBRANCH  20  22
ENDBRANCH   8  20
TORSDOF 6
ENDMDL
MODEL 3
REMARK VINA RESULT:      -8.2      1.704      2.294
REMARK  6 active torsions:
REMARK  status: ('A' for Active; 'I' for Inactive)
REMARK    1  A    between atoms: C1_2  and  C2_3 
REMARK       I    between atoms: C1_2  and  N1_8 
REMARK    2  A    between atoms: C3_4  and  C4_5 
REMARK    3  A    between atoms: C4_5  and  C5_6 
REMARK    4  A    between atoms: N1_8  and  C6_9 
REMARK    5  A    between atoms: C11_16  and  N4_17 
REMARK    6  A    between atoms: N4_17  and  C12_18 
ROOT
HETATM    1  C6  UNL     1      22.751  -0.810  53.973  1.00  0.00     0.036 A 
HETATM    2  C7  UNL     1      23.089  -1.292  55.219  1.00  0.00     0.032 A 
HETATM    3  C8  UNL     1      24.394  -1.138  55.633  1.00  0.00     0.035 A 
HETATM    4  C9  UNL     1      25.313  -0.522  54.815  1.00  0.00     0.072 A 
HETATM    5  N2  UNL     1      26.574  -0.410  55.296  1.00  0.00    -0.241 NA
HETATM    6  C10 UNL     1      27.549   0.175  54.580  1.00  0.00     0.236 A 
HETATM    7  N3  UNL     1      27.208   0.638  53.375  1.00  0.00    -0.224 NA
HETATM    8  C11 UNL     1      25.999   0.577  52.812  1.00  0.00     0.142 A 
HETATM    9  C18 UNL     1      25.032  -0.029  53.576  1.00  0.00     0.041 A 
HETATM   10  C19 UNL     1      23.719  -0.203  53.202  1.00  0.00     0.047 A 
ENDROOT
BRANCH   1  11
HETATM   11  N1  UNL     1      21.409  -0.959  53.524  1.00  0.00    -0.324 N 
HETATM   12  C1  UNL     1      20.481   0.087  53.265  1.00  0.00     0.245 C 
HETATM   13  O1  UNL     1      20.587   1.339  53.357  1.00  0.00    -0.268 OA
HETATM   14  H7  UNL     1      21.092  -1.936  53.376  1.00  0.00     0.169 HD
BRANCH  12  15
HETATM   15  C2  UNL     1      19.130  -0.267  52.804  1.00  0.00     0.070 C 
HETATM   16  C3  UNL     1      18.727  -1.418  53.351  1.00  0.00    -0.019 C 
BRANCH  16  17
HETATM   17  C4  UNL     1      17.429  -2.107  53.136  1.00  0.00     0.058 C 
BRANCH  17  18
HETATM   18  C5  UNL     1      16.435  -1.125  52.516  1.00  0.00     0.225 C 
HETATM   19  F1  UNL     1      16.362  -1.318  51.160  1.00  0.00    -0.255 F 
ENDBRANCH  17  18
ENDBRANCH  16  17
ENDBRANCH  12  15
ENDBRANCH   1  11
BRANCH   8  20
HETATM   20  N4  UNL     1      25.642   1.069  51.534  1.00  0.00    -0.340 N 
HETATM   21  H11 UNL     1      25.424   0.443  50.752  1.00  0.00     0.167 HD
BRANCH  20  22
HETATM   22  C12 UNL     1      25.513   2.402  51.072  1.00  0.00     0.035 A 
HETATM   23  C13 UNL     1      24.480   3.273  51.358  1.00  0.00     0.029 A 
HETATM   24  C14 UNL     1      24.410   4.557  50.881  1.00  0.00     0.004 A 
HETATM   25  C15 UNL     1      25.391   5.069  50.066  1.00  0.00     0.019 A 
HETATM   26  C16 UNL     1      26.443   4.236  49.752  1.00  0.00     0.013 A 
HETATM   27 BR1  UNL     1      27.779   4.989  48.621  1.00  0.00    -0.051 Br
HETATM   28  C17 UNL     1      26.475   2.953  50.254  1.00  0.00     0.048 A 
ENDBRANCH  20  22
ENDBRANCH   8  20
TORSDOF 6
ENDMDL
MODEL 4
REMARK VINA RESULT:      -8.2      4.688      8.187
REMARK  6 active torsions:
REMARK  status: ('A' for Active; 'I' for Inactive)
REMARK    1  A    between atoms: C1_2  and  C2_3 
REMARK       I    between atoms: C1_2  and  N1_8 
REMARK    2  A    between atoms: C3_4  and  C4_5 
REMARK    3  A    between atoms: C4_5  and  C5_6 
REMARK    4  A    between atoms: N1_8  and  C6_9 
REMARK    5  A    between atoms: C11_16  and  N4_17 
REMARK    6  A    between atoms: N4_17  and  C12_18 
ROOT
HETATM    1  C6  UNL     1      23.953   2.979  50.452  1.00  0.00     0.036 A 
HETATM    2  C7  UNL     1      22.853   2.508  49.769  1.00  0.00     0.032 A 
HETATM    3  C8  UNL     1      22.175   1.436  50.306  1.00  0.00     0.035 A 
HETATM    4  C9  UNL     1      22.599   0.868  51.485  1.00  0.00     0.072 A 
HETATM    5  N2  UNL     1      21.879  -0.183  51.946  1.00  0.00    -0.241 NA
HETATM    6  C10 UNL     1      22.206  -0.811  53.088  1.00  0.00     0.236 A 
HETATM    7  N3  UNL     1      23.274  -0.345  53.740  1.00  0.00    -0.224 NA
HETATM    8  C11 UNL     1      24.047   0.680  53.372  1.00  0.00     0.142 A 
HETATM    9  C18 UNL     1      23.679   1.293  52.199  1.00  0.00     0.041 A 
HETATM   10  C19 UNL     1      24.326   2.365  51.629  1.00  0.00     0.047 A 
ENDROOT
BRANCH   1  11
HETATM   11  N1  UNL     1      24.668   4.086  49.915  1.00  0.00    -0.324 N 
HETATM   12  C1  UNL     1      26.034   4.102  49.522  1.00  0.00     0.245 C 
HETATM   13  O1  UNL     1      26.919   3.206  49.542  1.00  0.00    -0.268 OA
HETATM   14  H7  UNL     1      24.121   4.961  49.806  1.00  0.00     0.169 HD
BRANCH  12  15
HETATM   15  C2  UNL     1      26.599   5.350  48.985  1.00  0.00     0.070 C 
HETATM   16  C3  UNL     1      27.846   5.157  48.546  1.00  0.00    -0.019 C 
BRANCH  16  17
HETATM   17  C4  UNL     1      28.749   6.168  47.938  1.00  0.00     0.058 C 
BRANCH  17  18
HETATM   18  C5  UNL     1      30.192   5.860  48.340  1.00  0.00     0.225 C 
HETATM   19  F1  UNL     1      30.730   6.921  49.020  1.00  0.00    -0.255 F 
ENDBRANCH  17  18
ENDBRANCH  16  17
ENDBRANCH  12  15
ENDBRANCH   1  11
BRANCH   8  20
HETATM   20  N4  UNL     1      25.178   1.170  54.067  1.00  0.00    -0.340 N 
HETATM   21  H11 UNL     1      25.090   1.785  54.882  1.00  0.00     0.167 HD
BRANCH  20  22
HETATM   22  C12 UNL     1      26.558   0.952  53.832  1.00  0.00     0.035 A 
HETATM   23  C13 UNL     1      27.538   1.922  53.748  1.00  0.00     0.029 A 
HETATM   24  C14 UNL     1      28.863   1.650  53.518  1.00  0.00     0.004 A 
HETATM   25  C15 UNL     1      29.308   0.360  53.354  1.00  0.00     0.019 A 
HETATM   26  C16 UNL     1      28.365  -0.642  53.430  1.00  0.00     0.013 A 
HETATM   27 BR1  UNL     1      29.027  -2.414  53.197  1.00  0.00    -0.051 Br
HETATM   28  C17 UNL     1      27.045  -0.325  53.663  1.00  0.00     0.048 A 
ENDBRANCH  20  22
ENDBRANCH   8  20
TORSDOF 6
ENDMDL
MODEL 5
REMARK VINA RESULT:      -8.1      5.113      7.764
REMARK  6 active torsions:
REMARK  status: ('A' for Active; 'I' for Inactive)
REMARK    1  A    between atoms: C1_2  and  C2_3 
REMARK       I    between atoms: C1_2  and  N1_8 
REMARK    2  A    between atoms: C3_4  and  C4_5 
REMARK    3  A    between atoms: C4_5  and  C5_6 
REMARK    4  A    between atoms: N1_8  and  C6_9 
REMARK    5  A    between atoms: C11_16  and  N4_17 
REMARK    6  A    between atoms: N4_17  and  C12_18 
ROOT
HETATM    1  C6  UNL     1      26.306   4.207  49.425  1.00  0.00     0.036 A 
HETATM    2  C7  UNL     1      25.322   5.172  49.444  1.00  0.00     0.032 A 
HETATM    3  C8  UNL     1      25.632   6.413  48.933  1.00  0.00     0.035 A 
HETATM    4  C9  UNL     1      26.886   6.661  48.425  1.00  0.00     0.072 A 
HETATM    5  N2  UNL     1      27.110   7.907  47.941  1.00  0.00    -0.241 NA
HETATM    6  C10 UNL     1      28.300   8.255  47.423  1.00  0.00     0.236 A 
HETATM    7  N3  UNL     1      29.244   7.311  47.411  1.00  0.00    -0.224 NA
HETATM    8  C11 UNL     1      29.125   6.059  47.860  1.00  0.00     0.142 A 
HETATM    9  C18 UNL     1      27.894   5.744  48.383  1.00  0.00     0.041 A 
HETATM   10  C19 UNL     1      27.543   4.520  48.902  1.00  0.00     0.047 A 
ENDROOT
BRANCH   1  11
HETATM   11  N1  UNL     1      26.008   2.918  49.948  1.00  0.00    -0.324 N 
HETATM   12  C1  UNL     1      26.630   2.292  51.063  1.00  0.00     0.245 C 
HETATM   13  O1  UNL     1      27.549   2.679  51.833  1.00  0.00    -0.268 OA
HETATM   14  H7  UNL     1      25.258   2.398  49.455  1.00  0.00     0.169 HD
BRANCH  12  15
HETATM   15  C2  UNL     1      26.183   0.947  51.456  1.00  0.00     0.070 C 
HETATM   16  C3  UNL     1      26.670   0.615  52.655  1.00  0.00    -0.019 C 
BRANCH  16  17
HETATM   17  C4  UNL     1      26.448  -0.655  53.393  1.00  0.00     0.058 C 
BRANCH  17  18
HETATM   18  C5  UNL     1      27.311  -1.754  52.774  1.00  0.00     0.225 C 
HETATM   19  F1  UNL     1      26.580  -2.473  51.864  1.00  0.00    -0.255 F 
ENDBRANCH  17  18
ENDBRANCH  16  17
ENDBRANCH  12  15
ENDBRANCH   1  11
BRANCH   8  20
HETATM   20  N4  UNL     1      30.129   5.062  47.845  1.00  0.00    -0.340 N 
HETATM   21  H11 UNL     1      29.905   4.068  47.740  1.00  0.00     0.167 HD
BRANCH  20  22
HETATM   22  C12 UNL     1      31.536   5.182  47.958  1.00  0.00     0.035 A 
HETATM   23  C13 UNL     1      32.221   5.998  48.836  1.00  0.00     0.029 A 
HETATM   24  C14 UNL     1      33.590   6.072  48.900  1.00  0.00     0.004 A 
HETATM   25  C15 UNL     1      34.384   5.316  48.070  1.00  0.00     0.019 A 
HETATM   26  C16 UNL     1      33.744   4.486  47.177  1.00  0.00     0.013 A 
HETATM   27 BR1  UNL     1      34.884   3.457  46.048  1.00  0.00    -0.051 Br
HETATM   28  C17 UNL     1      32.367   4.442  47.146  1.00  0.00     0.048 A 
ENDBRANCH  20  22
ENDBRANCH   8  20
TORSDOF 6
ENDMDL
MODEL 6
REMARK VINA RESULT:      -7.9      5.880     10.112
REMARK  6 active torsions:
REMARK  status: ('A' for Active; 'I' for Inactive)
REMARK    1  A    between atoms: C1_2  and  C2_3 
REMARK       I    between atoms: C1_2  and  N1_8 
REMARK    2  A    between atoms: C3_4  and  C4_5 
REMARK    3  A    between atoms: C4_5  and  C5_6 
REMARK    4  A    between atoms: N1_8  and  C6_9 
REMARK    5  A    between atoms: C11_16  and  N4_17 
REMARK    6  A    between atoms: N4_17  and  C12_18 
ROOT
HETATM    1  C6  UNL     1      28.523   5.577  48.174  1.00  0.00     0.036 A 
HETATM    2  C7  UNL     1      28.104   6.854  47.868  1.00  0.00     0.032 A 
HETATM    3  C8  UNL     1      26.825   7.213  48.234  1.00  0.00     0.035 A 
HETATM    4  C9  UNL     1      26.010   6.314  48.881  1.00  0.00     0.072 A 
HETATM    5  N2  UNL     1      24.768   6.745  49.207  1.00  0.00    -0.241 NA
HETATM    6  C10 UNL     1      23.892   5.948  49.841  1.00  0.00     0.236 A 
HETATM    7  N3  UNL     1      24.311   4.713  50.131  1.00  0.00    -0.224 NA
HETATM    8  C11 UNL     1      25.510   4.194  49.855  1.00  0.00     0.142 A 
HETATM    9  C18 UNL     1      26.375   5.041  49.206  1.00  0.00     0.041 A 
HETATM   10  C19 UNL     1      27.658   4.724  48.824  1.00  0.00     0.047 A 
ENDROOT
BRANCH   1  11
HETATM   11  N1  UNL     1      29.840   5.184  47.805  1.00  0.00    -0.324 N 
HETATM   12  C1  UNL     1      31.055   5.651  48.377  1.00  0.00     0.245 C 
HETATM   13  O1  UNL     1      31.280   6.480  49.299  1.00  0.00    -0.268 OA
HETATM   14  H7  UNL     1      29.901   4.485  47.040  1.00  0.00     0.169 HD
BRANCH  12  15
HETATM   15  C2  UNL     1      32.327   5.124  47.859  1.00  0.00     0.070 C 
HETATM   16  C3  UNL     1      32.195   3.848  47.483  1.00  0.00    -0.019 C 
BRANCH  16  17
HETATM   17  C4  UNL     1      33.246   2.968  46.912  1.00  0.00     0.058 C 
BRANCH  17  18
HETATM   18  C5  UNL     1      34.586   3.288  47.577  1.00  0.00     0.225 C 
HETATM   19  F1  UNL     1      35.502   3.674  46.634  1.00  0.00    -0.255 F 
ENDBRANCH  17  18
ENDBRANCH  16  17
ENDBRANCH  12  15
ENDBRANCH   1  11
BRANCH   8  20
HETATM   20  N4  UNL     1      25.949   2.885  50.165  1.00  0.00    -0.340 N 
HETATM   21  H11 UNL     1      26.327   2.255  49.450  1.00  0.00     0.167 HD
BRANCH  20  22
HETATM   22  C12 UNL     1      25.971   2.199  51.404  1.00  0.00     0.035 A 
HETATM   23  C13 UNL     1      27.014   2.174  52.309  1.00  0.00     0.029 A 
HETATM   24  C14 UNL     1      26.977   1.489  53.497  1.00  0.00     0.004 A 
HETATM   25  C15 UNL     1      25.868   0.768  53.870  1.00  0.00     0.019 A 
HETATM   26  C16 UNL     1      24.802   0.764  52.999  1.00  0.00     0.013 A 
HETATM   27 BR1  UNL     1      23.287  -0.248  53.558  1.00  0.00    -0.051 Br
HETATM   28  C17 UNL     1      24.880   1.466  51.816  1.00  0.00     0.048 A 
ENDBRANCH  20  22
ENDBRANCH   8  20
TORSDOF 6
ENDMDL
MODEL 7
REMARK VINA RESULT:      -7.8      4.027      7.851
REMARK  6 active torsions:
REMARK  status: ('A' for Active; 'I' for Inactive)
REMARK    1  A    between atoms: C1_2  and  C2_3 
REMARK       I    between atoms: C1_2  and  N1_8 
REMARK    2  A    between atoms: C3_4  and  C4_5 
REMARK    3  A    between atoms: C4_5  and  C5_6 
REMARK    4  A    between atoms: N1_8  and  C6_9 
REMARK    5  A    between atoms: C11_16  and  N4_17 
REMARK    6  A    between atoms: N4_17  and  C12_18 
ROOT
HETATM    1  C6  UNL     1      24.943   3.482  50.569  1.00  0.00     0.036 A 
HETATM    2  C7  UNL     1      25.179   4.708  49.985  1.00  0.00     0.032 A 
HETATM    3  C8  UNL     1      24.337   5.108  48.972  1.00  0.00     0.035 A 
HETATM    4  C9  UNL     1      23.300   4.297  48.570  1.00  0.00     0.072 A 
HETATM    5  N2  UNL     1      22.518   4.764  47.567  1.00  0.00    -0.241 NA
HETATM    6  C10 UNL     1      21.479   4.052  47.099  1.00  0.00     0.236 A 
HETATM    7  N3  UNL     1      21.261   2.866  47.673  1.00  0.00    -0.224 NA
HETATM    8  C11 UNL     1      21.970   2.319  48.663  1.00  0.00     0.142 A 
HETATM    9  C18 UNL     1      23.023   3.077  49.112  1.00  0.00     0.041 A 
HETATM   10  C19 UNL     1      23.887   2.717  50.121  1.00  0.00     0.047 A 
ENDROOT
BRANCH   1  11
HETATM   11  N1  UNL     1      25.801   3.048  51.618  1.00  0.00    -0.324 N 
HETATM   12  C1  UNL     1      25.409   2.388  52.815  1.00  0.00     0.245 C 
HETATM   13  O1  UNL     1      24.277   2.036  53.242  1.00  0.00    -0.268 OA
HETATM   14  H7  UNL     1      26.811   3.239  51.478  1.00  0.00     0.169 HD
BRANCH  12  15
HETATM   15  C2  UNL     1      26.448   2.015  53.787  1.00  0.00     0.070 C 
HETATM   16  C3  UNL     1      27.667   2.230  53.286  1.00  0.00    -0.019 C 
BRANCH  16  17
HETATM   17  C4  UNL     1      28.970   1.979  53.955  1.00  0.00     0.058 C 
BRANCH  17  18
HETATM   18  C5  UNL     1      29.291   0.486  53.886  1.00  0.00     0.225 C 
HETATM   19  F1  UNL     1      28.914  -0.133  55.049  1.00  0.00    -0.255 F 
ENDBRANCH  17  18
ENDBRANCH  16  17
ENDBRANCH  12  15
ENDBRANCH   1  11
BRANCH   8  20
HETATM   20  N4  UNL     1      21.735   1.061  49.268  1.00  0.00    -0.340 N 
HETATM   21  H11 UNL     1      22.193   0.206  48.939  1.00  0.00     0.167 HD
BRANCH  20  22
HETATM   22  C12 UNL     1      20.899   0.715  50.358  1.00  0.00     0.035 A 
HETATM   23  C13 UNL     1      19.518   0.712  50.364  1.00  0.00     0.029 A 
HETATM   24  C14 UNL     1      18.759   0.366  51.454  1.00  0.00     0.004 A 
HETATM   25  C15 UNL     1      19.345  -0.011  52.639  1.00  0.00     0.019 A 
HETATM   26  C16 UNL     1      20.722  -0.023  52.681  1.00  0.00     0.013 A 
HETATM   27 BR1  UNL     1      21.490  -0.552  54.343  1.00  0.00    -0.051 Br
HETATM   28  C17 UNL     1      21.445   0.332  51.563  1.00  0.00     0.048 A 
ENDBRANCH  20  22
ENDBRANCH   8  20
TORSDOF 6
ENDMDL
MODEL 8
REMARK VINA RESULT:      -7.6      2.759      3.228
REMARK  6 active torsions:
REMARK  status: ('A' for Active; 'I' for Inactive)
REMARK    1  A    between atoms: C1_2  and  C2_3 
REMARK       I    between atoms: C1_2  and  N1_8 
REMARK    2  A    between atoms: C3_4  and  C4_5 
REMARK    3  A    between atoms: C4_5  and  C5_6 
REMARK    4  A    between atoms: N1_8  and  C6_9 
REMARK    5  A    between atoms: C11_16  and  N4_17 
REMARK    6  A    between atoms: N4_17  and  C12_18 
ROOT
HETATM    1  C6  UNL     1      22.602  -0.978  54.224  1.00  0.00     0.036 A 
HETATM    2  C7  UNL     1      23.108  -1.534  55.379  1.00  0.00     0.032 A 
HETATM    3  C8  UNL     1      24.432  -1.301  55.676  1.00  0.00     0.035 A 
HETATM    4  C9  UNL     1      25.207  -0.536  54.835  1.00  0.00     0.072 A 
HETATM    5  N2  UNL     1      26.500  -0.354  55.198  1.00  0.00    -0.241 NA
HETATM    6  C10 UNL     1      27.344   0.375  54.449  1.00  0.00     0.236 A 
HETATM    7  N3  UNL     1      26.841   0.908  53.333  1.00  0.00    -0.224 NA
HETATM    8  C11 UNL     1      25.587   0.790  52.888  1.00  0.00     0.142 A 
HETATM    9  C18 UNL     1      24.758   0.036  53.682  1.00  0.00     0.041 A 
HETATM   10  C19 UNL     1      23.431  -0.221  53.423  1.00  0.00     0.047 A 
ENDROOT
BRANCH   1  11
HETATM   11  N1  UNL     1      21.236  -1.206  53.897  1.00  0.00    -0.324 N 
HETATM   12  C1  UNL     1      20.290  -0.230  53.479  1.00  0.00     0.245 C 
HETATM   13  O1  UNL     1      20.397   1.012  53.299  1.00  0.00    -0.268 OA
HETATM   14  H7  UNL     1      20.915  -2.190  53.977  1.00  0.00     0.169 HD
BRANCH  12  15
HETATM   15  C2  UNL     1      18.915  -0.661  53.184  1.00  0.00     0.070 C 
HETATM   16  C3  UNL     1      18.525  -0.220  51.985  1.00  0.00    -0.019 C 
BRANCH  16  17
HETATM   17  C4  UNL     1      17.210  -0.443  51.331  1.00  0.00     0.058 C 
BRANCH  17  18
HETATM   18  C5  UNL     1      16.355   0.815  51.478  1.00  0.00     0.225 C 
HETATM   19  F1  UNL     1      17.151   1.901  51.738  1.00  0.00    -0.255 F 
ENDBRANCH  17  18
ENDBRANCH  16  17
ENDBRANCH  12  15
ENDBRANCH   1  11
BRANCH   8  20
HETATM   20  N4  UNL     1      25.060   1.357  51.704  1.00  0.00    -0.340 N 
HETATM   21  H11 UNL     1      25.510   1.229  50.792  1.00  0.00     0.167 HD
BRANCH  20  22
HETATM   22  C12 UNL     1      23.905   2.154  51.510  1.00  0.00     0.035 A 
HETATM   23  C13 UNL     1      23.630   3.362  52.120  1.00  0.00     0.029 A 
HETATM   24  C14 UNL     1      22.490   4.091  51.892  1.00  0.00     0.004 A 
HETATM   25  C15 UNL     1      21.527   3.651  51.015  1.00  0.00     0.019 A 
HETATM   26  C16 UNL     1      21.758   2.450  50.382  1.00  0.00     0.013 A 
HETATM   27 BR1  UNL     1      20.395   1.881  49.177  1.00  0.00    -0.051 Br
HETATM   28  C17 UNL     1      22.916   1.750  50.640  1.00  0.00     0.048 A 
ENDBRANCH  20  22
ENDBRANCH   8  20
TORSDOF 6
ENDMDL
MODEL 9
REMARK VINA RESULT:      -7.6      4.453      6.958
REMARK  6 active torsions:
REMARK  status: ('A' for Active; 'I' for Inactive)
REMARK    1  A    between atoms: C1_2  and  C2_3 
REMARK       I    between atoms: C1_2  and  N1_8 
REMARK    2  A    between atoms: C3_4  and  C4_5 
REMARK    3  A    between atoms: C4_5  and  C5_6 
REMARK    4  A    between atoms: N1_8  and  C6_9 
REMARK    5  A    between atoms: C11_16  and  N4_17 
REMARK    6  A    between atoms: N4_17  and  C12_18 
ROOT
HETATM    1  C6  UNL     1      25.797   3.823  49.837  1.00  0.00     0.036 A 
HETATM    2  C7  UNL     1      24.643   4.575  49.780  1.00  0.00     0.032 A 
HETATM    3  C8  UNL     1      24.708   5.801  49.157  1.00  0.00     0.035 A 
HETATM    4  C9  UNL     1      25.893   6.243  48.616  1.00  0.00     0.072 A 
HETATM    5  N2  UNL     1      25.872   7.460  48.021  1.00  0.00    -0.241 NA
HETATM    6  C10 UNL     1      26.975   7.987  47.461  1.00  0.00     0.236 A 
HETATM    7  N3  UNL     1      28.085   7.248  47.524  1.00  0.00    -0.224 NA
HETATM    8  C11 UNL     1      28.210   6.043  48.084  1.00  0.00     0.142 A 
HETATM    9  C18 UNL     1      27.061   5.542  48.646  1.00  0.00     0.041 A 
HETATM   10  C19 UNL     1      26.953   4.323  49.276  1.00  0.00     0.047 A 
ENDROOT
BRANCH   1  11
HETATM   11  N1  UNL     1      25.754   2.553  50.477  1.00  0.00    -0.324 N 
HETATM   12  C1  UNL     1      26.673   2.059  51.443  1.00  0.00     0.245 C 
HETATM   13  O1  UNL     1      27.701   2.574  51.957  1.00  0.00    -0.268 OA
HETATM   14  H7  UNL     1      24.965   1.939  50.199  1.00  0.00     0.169 HD
BRANCH  12  15
HETATM   15  C2  UNL     1      26.460   0.712  51.994  1.00  0.00     0.070 C 
HETATM   16  C3  UNL     1      25.310   0.651  52.671  1.00  0.00    -0.019 C 
BRANCH  16  17
HETATM   17  C4  UNL     1      24.743  -0.529  53.373  1.00  0.00     0.058 C 
BRANCH  17  18
HETATM   18  C5  UNL     1      23.235  -0.338  53.540  1.00  0.00     0.225 C 
HETATM   19  F1  UNL     1      22.832  -0.805  54.764  1.00  0.00    -0.255 F 
ENDBRANCH  17  18
ENDBRANCH  16  17
ENDBRANCH  12  15
ENDBRANCH   1  11
BRANCH   8  20
HETATM   20  N4  UNL     1      29.390   5.265  48.148  1.00  0.00    -0.340 N 
HETATM   21  H11 UNL     1      29.366   4.240  48.149  1.00  0.00     0.167 HD
BRANCH  20  22
HETATM   22  C12 UNL     1      30.747   5.667  48.217  1.00  0.00     0.035 A 
HETATM   23  C13 UNL     1      31.263   6.677  49.005  1.00  0.00     0.029 A 
HETATM   24  C14 UNL     1      32.591   7.023  49.029  1.00  0.00     0.004 A 
HETATM   25  C15 UNL     1      33.513   6.366  48.250  1.00  0.00     0.019 A 
HETATM   26  C16 UNL     1      33.044   5.350  47.446  1.00  0.00     0.013 A 
HETATM   27 BR1  UNL     1      34.357   4.468  46.384  1.00  0.00    -0.051 Br
HETATM   28  C17 UNL     1      31.702   5.035  47.452  1.00  0.00     0.048 A 
ENDBRANCH  20  22
ENDBRANCH   8  20
TORSDOF 6
ENDMDL
