MODEL 1
REMARK VINA RESULT:      -8.2      0.000      0.000
REMARK  6 active torsions:
REMARK  status: ('A' for Active; 'I' for Inactive)
REMARK    1  A    between atoms: C3_3  and  C4_4 
REMARK    2  A    between atoms: C7_7  and  C8_8 
REMARK    3  A    between atoms: C8_8  and  N1_9 
REMARK    4  A    between atoms: N1_9  and  C9_10 
REMARK    5  A    between atoms: C16_22  and  O4_23 
REMARK    6  A    between atoms: O4_23  and  C17_24 
ROOT
HETATM    1  C1  UNL     1      31.658   7.239  45.612  1.00  0.00     0.017 C 
HETATM    2  C2  UNL     1      30.863   7.523  46.452  1.00  0.00    -0.089 C 
HETATM    3  C3  UNL     1      29.894   7.847  47.473  1.00  0.00     0.075 C 
ENDROOT
BRANCH   3   4
HETATM    4  C4  UNL     1      29.129   6.863  47.904  1.00  0.00    -0.028 A 
HETATM    5  C5  UNL     1      29.467   5.485  48.154  1.00  0.00     0.012 A 
HETATM    6  C6  UNL     1      28.401   4.821  48.582  1.00  0.00     0.010 A 
HETATM    7  C7  UNL     1      27.278   5.778  48.630  1.00  0.00    -0.040 A 
HETATM    8  C20 UNL     1      27.713   6.960  48.233  1.00  0.00     0.021 A 
BRANCH   7   9
HETATM    9  C8  UNL     1      25.988   5.224  49.090  1.00  0.00     0.160 C 
BRANCH   9  10
HETATM   10  N1  UNL     1      26.117   4.384  50.274  1.00  0.00    -0.370 N 
HETATM   11  H7  UNL     1      26.980   4.650  50.836  1.00  0.00     0.161 HD
BRANCH  10  12
HETATM   12  C9  UNL     1      25.173   3.364  50.572  1.00  0.00     0.139 A 
HETATM   13  N2  UNL     1      24.059   3.397  49.833  1.00  0.00    -0.224 NA
HETATM   14  C10 UNL     1      23.049   2.546  49.949  1.00  0.00     0.235 A 
HETATM   15  N3  UNL     1      23.183   1.613  50.873  1.00  0.00    -0.241 NA
HETATM   16  C11 UNL     1      24.243   1.487  51.662  1.00  0.00     0.075 A 
HETATM   17  C12 UNL     1      25.279   2.378  51.525  1.00  0.00     0.060 A 
HETATM   18  C19 UNL     1      24.156   0.470  52.517  1.00  0.00     0.068 C 
HETATM   19  C13 UNL     1      26.421   2.445  52.185  1.00  0.00     0.152 C 
HETATM   20  O1  UNL     1      27.011   1.750  53.180  1.00  0.00    -0.360 OA
HETATM   21  C14 UNL     1      28.210   0.996  53.166  1.00  0.00     0.203 C 
HETATM   22  C15 UNL     1      28.019   0.077  54.408  1.00  0.00     0.236 C 
HETATM   23  O2  UNL     1      26.830  -0.674  54.144  1.00  0.00    -0.236 OA
HETATM   24  O3  UNL     1      25.796   0.154  54.263  1.00  0.00    -0.204 OA
HETATM   25  C16 UNL     1      24.674  -0.380  53.610  1.00  0.00     0.322 C 
BRANCH  25  26
HETATM   26  O4  UNL     1      23.734  -0.552  54.616  1.00  0.00    -0.355 OA
BRANCH  26  27
HETATM   27  C17 UNL     1      22.428  -0.498  54.184  1.00  0.00     0.167 C 
HETATM   28  C18 UNL     1      21.731  -1.811  54.407  1.00  0.00     0.033 C 
ENDBRANCH  26  27
ENDBRANCH  25  26
ENDBRANCH  10  12
ENDBRANCH   9  10
ENDBRANCH   7   9
ENDBRANCH   3   4
TORSDOF 6
ENDMDL
MODEL 2
REMARK VINA RESULT:      -7.9      2.603      4.008
REMARK  6 active torsions:
REMARK  status: ('A' for Active; 'I' for Inactive)
REMARK    1  A    between atoms: C3_3  and  C4_4 
REMARK    2  A    between atoms: C7_7  and  C8_8 
REMARK    3  A    between atoms: C8_8  and  N1_9 
REMARK    4  A    between atoms: N1_9  and  C9_10 
REMARK    5  A    between atoms: C16_22  and  O4_23 
REMARK    6  A    between atoms: O4_23  and  C17_24 
ROOT
HETATM    1  C1  UNL     1      30.245   7.800  48.021  1.00  0.00     0.017 C 
HETATM    2  C2  UNL     1      29.079   7.704  47.801  1.00  0.00    -0.089 C 
HETATM    3  C3  UNL     1      27.663   7.572  47.547  1.00  0.00     0.075 C 
ENDROOT
BRANCH   3   4
HETATM    4  C4  UNL     1      27.039   6.578  48.149  1.00  0.00    -0.028 A 
HETATM    5  C5  UNL     1      25.660   6.474  48.553  1.00  0.00     0.012 A 
HETATM    6  C6  UNL     1      25.438   5.301  49.131  1.00  0.00     0.010 A 
HETATM    7  C7  UNL     1      26.714   4.561  49.128  1.00  0.00    -0.040 A 
HETATM    8  C20 UNL     1      27.637   5.313  48.556  1.00  0.00     0.021 A 
BRANCH   7   9
HETATM    9  C8  UNL     1      26.671   3.213  49.732  1.00  0.00     0.160 C 
BRANCH   9  10
HETATM   10  N1  UNL     1      26.490   3.240  51.177  1.00  0.00    -0.370 N 
HETATM   11  H7  UNL     1      26.950   4.101  51.601  1.00  0.00     0.161 HD
BRANCH  10  12
HETATM   12  C9  UNL     1      25.782   2.215  51.861  1.00  0.00     0.139 A 
HETATM   13  N2  UNL     1      26.551   1.253  52.381  1.00  0.00    -0.224 NA
HETATM   14  C10 UNL     1      26.098   0.203  53.051  1.00  0.00     0.235 A 
HETATM   15  N3  UNL     1      24.789   0.129  53.195  1.00  0.00    -0.241 NA
HETATM   16  C11 UNL     1      23.932   1.026  52.720  1.00  0.00     0.075 A 
HETATM   17  C12 UNL     1      24.421   2.108  52.031  1.00  0.00     0.060 A 
HETATM   18  C19 UNL     1      22.659   0.744  52.990  1.00  0.00     0.068 C 
HETATM   19  C13 UNL     1      23.770   3.116  51.479  1.00  0.00     0.152 C 
HETATM   20  O1  UNL     1      22.479   3.489  51.358  1.00  0.00    -0.360 OA
HETATM   21  C14 UNL     1      21.820   4.637  51.861  1.00  0.00     0.203 C 
HETATM   22  C15 UNL     1      20.330   4.189  51.822  1.00  0.00     0.236 C 
HETATM   23  O2  UNL     1      20.259   3.034  52.664  1.00  0.00    -0.236 OA
HETATM   24  O3  UNL     1      20.856   2.033  52.024  1.00  0.00    -0.204 OA
HETATM   25  C16 UNL     1      21.207   1.022  52.934  1.00  0.00     0.322 C 
BRANCH  25  26
HETATM   26  O4  UNL     1      20.488  -0.088  52.517  1.00  0.00    -0.355 OA
BRANCH  26  27
HETATM   27  C17 UNL     1      19.954  -0.834  53.544  1.00  0.00     0.167 C 
HETATM   28  C18 UNL     1      18.504  -1.140  53.291  1.00  0.00     0.033 C 
ENDBRANCH  26  27
ENDBRANCH  25  26
ENDBRANCH  10  12
ENDBRANCH   9  10
ENDBRANCH   7   9
ENDBRANCH   3   4
TORSDOF 6
ENDMDL
MODEL 3
REMARK VINA RESULT:      -7.6      4.326      6.045
REMARK  6 active torsions:
REMARK  status: ('A' for Active; 'I' for Inactive)
REMARK    1  A    between atoms: C3_3  and  C4_4 
REMARK    2  A    between atoms: C7_7  and  C8_8 
REMARK    3  A    between atoms: C8_8  and  N1_9 
REMARK    4  A    between atoms: N1_9  and  C9_10 
REMARK    5  A    between atoms: C16_22  and  O4_23 
REMARK    6  A    between atoms: O4_23  and  C17_24 
ROOT
HETATM    1  C1  UNL     1      29.435  -0.861  53.915  1.00  0.00     0.017 C 
HETATM    2  C2  UNL     1      28.445  -0.773  53.260  1.00  0.00    -0.089 C 
HETATM    3  C3  UNL     1      27.241  -0.646  52.471  1.00  0.00     0.075 C 
ENDROOT
BRANCH   3   4
HETATM    4  C4  UNL     1      26.600   0.504  52.542  1.00  0.00    -0.028 A 
HETATM    5  C5  UNL     1      26.365   1.351  53.683  1.00  0.00     0.012 A 
HETATM    6  C6  UNL     1      25.673   2.424  53.324  1.00  0.00     0.010 A 
HETATM    7  C7  UNL     1      25.417   2.317  51.874  1.00  0.00    -0.040 A 
HETATM    8  C20 UNL     1      25.960   1.198  51.432  1.00  0.00     0.021 A 
BRANCH   7   9
HETATM    9  C8  UNL     1      24.654   3.432  51.278  1.00  0.00     0.160 C 
BRANCH   9  10
HETATM   10  N1  UNL     1      23.423   3.731  51.997  1.00  0.00    -0.370 N 
HETATM   11  H7  UNL     1      23.596   4.445  52.767  1.00  0.00     0.161 HD
BRANCH  10  12
HETATM   12  C9  UNL     1      22.190   3.111  51.657  1.00  0.00     0.139 A 
HETATM   13  N2  UNL     1      21.519   3.704  50.664  1.00  0.00    -0.224 NA
HETATM   14  C10 UNL     1      20.348   3.296  50.193  1.00  0.00     0.235 A 
HETATM   15  N3  UNL     1      19.834   2.226  50.770  1.00  0.00    -0.241 NA
HETATM   16  C11 UNL     1      20.412   1.560  51.763  1.00  0.00     0.075 A 
HETATM   17  C12 UNL     1      21.625   1.997  52.234  1.00  0.00     0.060 A 
HETATM   18  C19 UNL     1      19.708   0.511  52.183  1.00  0.00     0.068 C 
HETATM   19  C13 UNL     1      22.381   1.499  53.196  1.00  0.00     0.152 C 
HETATM   20  O1  UNL     1      22.305   0.457  54.051  1.00  0.00    -0.360 OA
HETATM   21  C14 UNL     1      23.142  -0.678  54.165  1.00  0.00     0.203 C 
HETATM   22  C15 UNL     1      22.223  -1.672  54.934  1.00  0.00     0.236 C 
HETATM   23  O2  UNL     1      21.075  -1.850  54.099  1.00  0.00    -0.236 OA
HETATM   24  O3  UNL     1      20.361  -0.729  54.153  1.00  0.00    -0.204 OA
HETATM   25  C16 UNL     1      19.487  -0.662  53.056  1.00  0.00     0.322 C 
BRANCH  25  26
HETATM   26  O4  UNL     1      18.220  -0.650  53.620  1.00  0.00    -0.355 OA
BRANCH  26  27
HETATM   27  C17 UNL     1      17.302  -1.442  52.967  1.00  0.00     0.167 C 
HETATM   28  C18 UNL     1      17.388  -2.867  53.437  1.00  0.00     0.033 C 
ENDBRANCH  26  27
ENDBRANCH  25  26
ENDBRANCH  10  12
ENDBRANCH   9  10
ENDBRANCH   7   9
ENDBRANCH   3   4
TORSDOF 6
ENDMDL
MODEL 4
REMARK VINA RESULT:      -7.3      3.389      7.366
REMARK  6 active torsions:
REMARK  status: ('A' for Active; 'I' for Inactive)
REMARK    1  A    between atoms: C3_3  and  C4_4 
REMARK    2  A    between atoms: C7_7  and  C8_8 
REMARK    3  A    between atoms: C8_8  and  N1_9 
REMARK    4  A    between atoms: N1_9  and  C9_10 
REMARK    5  A    between atoms: C16_22  and  O4_23 
REMARK    6  A    between atoms: O4_23  and  C17_24 
ROOT
HETATM    1  C1  UNL     1      28.935  -2.658  53.084  1.00  0.00     0.017 C 
HETATM    2  C2  UNL     1      28.826  -1.482  53.226  1.00  0.00    -0.089 C 
HETATM    3  C3  UNL     1      28.673  -0.056  53.400  1.00  0.00     0.075 C 
ENDROOT
BRANCH   3   4
HETATM    4  C4  UNL     1      27.440   0.408  53.468  1.00  0.00    -0.028 A 
HETATM    5  C5  UNL     1      26.978   1.726  53.819  1.00  0.00     0.012 A 
HETATM    6  C6  UNL     1      25.653   1.778  53.764  1.00  0.00     0.010 A 
HETATM    7  C7  UNL     1      25.178   0.441  53.359  1.00  0.00    -0.040 A 
HETATM    8  C20 UNL     1      26.225  -0.346  53.190  1.00  0.00     0.021 A 
BRANCH   7   9
HETATM    9  C8  UNL     1      23.713   0.295  53.237  1.00  0.00     0.160 C 
BRANCH   9  10
HETATM   10  N1  UNL     1      23.198   0.749  51.952  1.00  0.00    -0.370 N 
HETATM   11  H7  UNL     1      23.266  -0.022  51.222  1.00  0.00     0.161 HD
BRANCH  10  12
HETATM   12  C9  UNL     1      22.688   2.064  51.774  1.00  0.00     0.139 A 
HETATM   13  N2  UNL     1      21.528   2.303  52.393  1.00  0.00    -0.224 NA
HETATM   14  C10 UNL     1      20.874   3.456  52.354  1.00  0.00     0.235 A 
HETATM   15  N3  UNL     1      21.436   4.416  51.643  1.00  0.00    -0.241 NA
HETATM   16  C11 UNL     1      22.584   4.288  50.988  1.00  0.00     0.075 A 
HETATM   17  C12 UNL     1      23.246   3.086  51.042  1.00  0.00     0.060 A 
HETATM   18  C19 UNL     1      22.956   5.390  50.341  1.00  0.00     0.068 C 
HETATM   19  C13 UNL     1      24.389   2.732  50.484  1.00  0.00     0.152 C 
HETATM   20  O1  UNL     1      25.311   3.324  49.697  1.00  0.00    -0.360 OA
HETATM   21  C14 UNL     1      26.673   3.609  49.960  1.00  0.00     0.203 C 
HETATM   22  C15 UNL     1      26.974   4.715  48.907  1.00  0.00     0.236 C 
HETATM   23  O2  UNL     1      26.065   5.780  49.205  1.00  0.00    -0.236 OA
HETATM   24  O3  UNL     1      24.849   5.385  48.838  1.00  0.00    -0.204 OA
HETATM   25  C16 UNL     1      23.875   6.166  49.481  1.00  0.00     0.322 C 
BRANCH  25  26
HETATM   26  O4  UNL     1      23.200   6.801  48.449  1.00  0.00    -0.355 OA
BRANCH  26  27
HETATM   27  C17 UNL     1      22.876   5.977  47.395  1.00  0.00     0.167 C 
HETATM   28  C18 UNL     1      22.301   6.765  46.251  1.00  0.00     0.033 C 
ENDBRANCH  26  27
ENDBRANCH  25  26
ENDBRANCH  10  12
ENDBRANCH   9  10
ENDBRANCH   7   9
ENDBRANCH   3   4
TORSDOF 6
ENDMDL
MODEL 5
REMARK VINA RESULT:      -7.3      3.342      5.259
REMARK  6 active torsions:
REMARK  status: ('A' for Active; 'I' for Inactive)
REMARK    1  A    between atoms: C3_3  and  C4_4 
REMARK    2  A    between atoms: C7_7  and  C8_8 
REMARK    3  A    between atoms: C8_8  and  N1_9 
REMARK    4  A    between atoms: N1_9  and  C9_10 
REMARK    5  A    between atoms: C16_22  and  O4_23 
REMARK    6  A    between atoms: O4_23  and  C17_24 
ROOT
HETATM    1  C1  UNL     1      23.584   7.464  45.891  1.00  0.00     0.017 C 
HETATM    2  C2  UNL     1      22.781   6.587  45.830  1.00  0.00    -0.089 C 
HETATM    3  C3  UNL     1      21.814   5.516  45.772  1.00  0.00     0.075 C 
ENDROOT
BRANCH   3   4
HETATM    4  C4  UNL     1      21.902   4.583  46.701  1.00  0.00    -0.028 A 
HETATM    5  C5  UNL     1      22.027   3.156  46.555  1.00  0.00     0.012 A 
HETATM    6  C6  UNL     1      22.085   2.575  47.746  1.00  0.00     0.010 A 
HETATM    7  C7  UNL     1      21.996   3.643  48.760  1.00  0.00    -0.040 A 
HETATM    8  C20 UNL     1      21.890   4.805  48.141  1.00  0.00     0.021 A 
BRANCH   7   9
HETATM    9  C8  UNL     1      22.048   3.193  50.166  1.00  0.00     0.160 C 
BRANCH   9  10
HETATM   10  N1  UNL     1      22.871   2.006  50.357  1.00  0.00    -0.370 N 
HETATM   11  H7  UNL     1      22.373   1.136  50.002  1.00  0.00     0.161 HD
BRANCH  10  12
HETATM   12  C9  UNL     1      24.162   2.080  50.947  1.00  0.00     0.139 A 
HETATM   13  N2  UNL     1      24.976   2.991  50.404  1.00  0.00    -0.224 NA
HETATM   14  C10 UNL     1      26.222   3.221  50.795  1.00  0.00     0.235 A 
HETATM   15  N3  UNL     1      26.661   2.479  51.794  1.00  0.00    -0.241 NA
HETATM   16  C11 UNL     1      25.940   1.546  52.407  1.00  0.00     0.075 A 
HETATM   17  C12 UNL     1      24.652   1.325  51.987  1.00  0.00     0.060 A 
HETATM   18  C19 UNL     1      26.592   0.926  53.388  1.00  0.00     0.068 C 
HETATM   19  C13 UNL     1      23.757   0.466  52.442  1.00  0.00     0.152 C 
HETATM   20  O1  UNL     1      23.716  -0.473  53.411  1.00  0.00    -0.360 OA
HETATM   21  C14 UNL     1      22.905  -0.538  54.570  1.00  0.00     0.203 C 
HETATM   22  C15 UNL     1      23.707  -1.532  55.460  1.00  0.00     0.236 C 
HETATM   23  O2  UNL     1      24.987  -0.920  55.652  1.00  0.00    -0.236 OA
HETATM   24  O3  UNL     1      25.647  -1.001  54.500  1.00  0.00    -0.204 OA
HETATM   25  C16 UNL     1      26.695  -0.066  54.480  1.00  0.00     0.322 C 
BRANCH  25  26
HETATM   26  O4  UNL     1      27.845  -0.833  54.369  1.00  0.00    -0.355 OA
BRANCH  26  27
HETATM   27  C17 UNL     1      28.883  -0.206  53.717  1.00  0.00     0.167 C 
HETATM   28  C18 UNL     1      30.113  -1.070  53.703  1.00  0.00     0.033 C 
ENDBRANCH  26  27
ENDBRANCH  25  26
ENDBRANCH  10  12
ENDBRANCH   9  10
ENDBRANCH   7   9
ENDBRANCH   3   4
TORSDOF 6
ENDMDL
MODEL 6
REMARK VINA RESULT:      -7.3      7.416     10.112
REMARK  6 active torsions:
REMARK  status: ('A' for Active; 'I' for Inactive)
REMARK    1  A    between atoms: C3_3  and  C4_4 
REMARK    2  A    between atoms: C7_7  and  C8_8 
REMARK    3  A    between atoms: C8_8  and  N1_9 
REMARK    4  A    between atoms: N1_9  and  C9_10 
REMARK    5  A    between atoms: C16_22  and  O4_23 
REMARK    6  A    between atoms: O4_23  and  C17_24 
ROOT
HETATM    1  C1  UNL     1      33.238   3.634  40.941  1.00  0.00     0.017 C 
HETATM    2  C2  UNL     1      33.502   4.362  41.844  1.00  0.00    -0.089 C 
HETATM    3  C3  UNL     1      33.825   5.230  42.954  1.00  0.00     0.075 C 
ENDROOT
BRANCH   3   4
HETATM    4  C4  UNL     1      33.928   4.666  44.142  1.00  0.00    -0.028 A 
HETATM    5  C5  UNL     1      35.065   4.032  44.757  1.00  0.00     0.012 A 
HETATM    6  C6  UNL     1      34.747   3.591  45.967  1.00  0.00     0.010 A 
HETATM    7  C7  UNL     1      33.331   3.934  46.200  1.00  0.00    -0.040 A 
HETATM    8  C20 UNL     1      32.866   4.557  45.133  1.00  0.00     0.021 A 
BRANCH   7   9
HETATM    9  C8  UNL     1      32.784   3.525  47.510  1.00  0.00     0.160 C 
BRANCH   9  10
HETATM   10  N1  UNL     1      33.299   4.318  48.618  1.00  0.00    -0.370 N 
HETATM   11  H7  UNL     1      33.523   3.701  49.455  1.00  0.00     0.161 HD
BRANCH  10  12
HETATM   12  C9  UNL     1      33.453   5.728  48.519  1.00  0.00     0.139 A 
HETATM   13  N2  UNL     1      34.717   6.146  48.390  1.00  0.00    -0.224 NA
HETATM   14  C10 UNL     1      35.087   7.415  48.289  1.00  0.00     0.235 A 
HETATM   15  N3  UNL     1      34.114   8.305  48.323  1.00  0.00    -0.241 NA
HETATM   16  C11 UNL     1      32.826   8.003  48.447  1.00  0.00     0.075 A 
HETATM   17  C12 UNL     1      32.464   6.683  48.549  1.00  0.00     0.060 A 
HETATM   18  C19 UNL     1      32.026   9.067  48.455  1.00  0.00     0.068 C 
HETATM   19  C13 UNL     1      31.262   6.149  48.673  1.00  0.00     0.152 C 
HETATM   20  O1  UNL     1      29.997   6.612  48.751  1.00  0.00    -0.360 OA
HETATM   21  C14 UNL     1      28.907   6.410  47.870  1.00  0.00     0.203 C 
HETATM   22  C15 UNL     1      27.971   7.594  48.248  1.00  0.00     0.236 C 
HETATM   23  O2  UNL     1      28.737   8.777  47.999  1.00  0.00    -0.236 OA
HETATM   24  O3  UNL     1      29.668   8.860  48.945  1.00  0.00    -0.204 OA
HETATM   25  C16 UNL     1      30.700   9.717  48.531  1.00  0.00     0.322 C 
BRANCH  25  26
HETATM   26  O4  UNL     1      30.687  10.751  49.456  1.00  0.00    -0.355 OA
BRANCH  26  27
HETATM   27  C17 UNL     1      30.588  12.007  48.900  1.00  0.00     0.167 C 
HETATM   28  C18 UNL     1      29.175  12.516  48.966  1.00  0.00     0.033 C 
ENDBRANCH  26  27
ENDBRANCH  25  26
ENDBRANCH  10  12
ENDBRANCH   9  10
ENDBRANCH   7   9
ENDBRANCH   3   4
TORSDOF 6
ENDMDL
MODEL 7
REMARK VINA RESULT:      -7.3      5.198      8.212
REMARK  6 active torsions:
REMARK  status: ('A' for Active; 'I' for Inactive)
REMARK    1  A    between atoms: C3_3  and  C4_4 
REMARK    2  A    between atoms: C7_7  and  C8_8 
REMARK    3  A    between atoms: C8_8  and  N1_9 
REMARK    4  A    between atoms: N1_9  and  C9_10 
REMARK    5  A    between atoms: C16_22  and  O4_23 
REMARK    6  A    between atoms: O4_23  and  C17_24 
ROOT
HETATM    1  C1  UNL     1      26.033   1.612  51.592  1.00  0.00     0.017 C 
HETATM    2  C2  UNL     1      26.086   0.678  52.328  1.00  0.00    -0.089 C 
HETATM    3  C3  UNL     1      26.132  -0.454  53.225  1.00  0.00     0.075 C 
ENDROOT
BRANCH   3   4
HETATM    4  C4  UNL     1      25.046  -0.698  53.933  1.00  0.00    -0.028 A 
HETATM    5  C5  UNL     1      24.923  -1.086  55.314  1.00  0.00     0.012 A 
HETATM    6  C6  UNL     1      23.645  -1.233  55.638  1.00  0.00     0.010 A 
HETATM    7  C7  UNL     1      22.849  -0.935  54.432  1.00  0.00    -0.040 A 
HETATM    8  C20 UNL     1      23.674  -0.626  53.448  1.00  0.00     0.021 A 
BRANCH   7   9
HETATM    9  C8  UNL     1      21.385  -1.041  54.593  1.00  0.00     0.160 C 
BRANCH   9  10
HETATM   10  N1  UNL     1      20.683   0.192  54.265  1.00  0.00    -0.370 N 
HETATM   11  H7  UNL     1      20.769   0.901  55.054  1.00  0.00     0.161 HD
BRANCH  10  12
HETATM   12  C9  UNL     1      19.994   0.354  53.032  1.00  0.00     0.139 A 
HETATM   13  N2  UNL     1      18.961  -0.476  52.853  1.00  0.00    -0.224 NA
HETATM   14  C10 UNL     1      18.189  -0.501  51.776  1.00  0.00     0.235 A 
HETATM   15  N3  UNL     1      18.488   0.368  50.829  1.00  0.00    -0.241 NA
HETATM   16  C11 UNL     1      19.490   1.237  50.900  1.00  0.00     0.075 A 
HETATM   17  C12 UNL     1      20.278   1.247  52.025  1.00  0.00     0.060 A 
HETATM   18  C19 UNL     1      19.600   2.015  49.826  1.00  0.00     0.068 C 
HETATM   19  C13 UNL     1      21.312   2.015  52.318  1.00  0.00     0.152 C 
HETATM   20  O1  UNL     1      21.984   3.015  51.710  1.00  0.00    -0.360 OA
HETATM   21  C14 UNL     1      22.135   4.367  52.100  1.00  0.00     0.203 C 
HETATM   22  C15 UNL     1      22.539   5.041  50.756  1.00  0.00     0.236 C 
HETATM   23  O2  UNL     1      21.449   4.788  49.863  1.00  0.00    -0.236 OA
HETATM   24  O3  UNL     1      21.486   3.499  49.538  1.00  0.00    -0.204 OA
HETATM   25  C16 UNL     1      20.238   3.093  49.039  1.00  0.00     0.322 C 
BRANCH  25  26
HETATM   26  O4  UNL     1      20.497   2.692  47.737  1.00  0.00    -0.355 OA
BRANCH  26  27
HETATM   27  C17 UNL     1      21.798   2.892  47.332  1.00  0.00     0.167 C 
HETATM   28  C18 UNL     1      21.851   3.693  46.061  1.00  0.00     0.033 C 
ENDBRANCH  26  27
ENDBRANCH  25  26
ENDBRANCH  10  12
ENDBRANCH   9  10
ENDBRANCH   7   9
ENDBRANCH   3   4
TORSDOF 6
ENDMDL
MODEL 8
REMARK VINA RESULT:      -7.2      5.698      7.668
REMARK  6 active torsions:
REMARK  status: ('A' for Active; 'I' for Inactive)
REMARK    1  A    between atoms: C3_3  and  C4_4 
REMARK    2  A    between atoms: C7_7  and  C8_8 
REMARK    3  A    between atoms: C8_8  and  N1_9 
REMARK    4  A    between atoms: N1_9  and  C9_10 
REMARK    5  A    between atoms: C16_22  and  O4_23 
REMARK    6  A    between atoms: O4_23  and  C17_24 
ROOT
HETATM    1  C1  UNL     1      29.965  -1.359  53.763  1.00  0.00     0.017 C 
HETATM    2  C2  UNL     1      29.445  -0.288  53.766  1.00  0.00    -0.089 C 
HETATM    3  C3  UNL     1      28.797   1.003  53.763  1.00  0.00     0.075 C 
ENDROOT
BRANCH   3   4
HETATM    4  C4  UNL     1      27.574   1.055  53.272  1.00  0.00    -0.028 A 
HETATM    5  C5  UNL     1      26.989   0.301  52.193  1.00  0.00     0.012 A 
HETATM    6  C6  UNL     1      25.724   0.659  52.015  1.00  0.00     0.010 A 
HETATM    7  C7  UNL     1      25.419   1.705  53.010  1.00  0.00    -0.040 A 
HETATM    8  C20 UNL     1      26.501   1.927  53.734  1.00  0.00     0.021 A 
BRANCH   7   9
HETATM    9  C8  UNL     1      24.042   2.237  52.975  1.00  0.00     0.160 C 
BRANCH   9  10
HETATM   10  N1  UNL     1      23.174   1.515  52.054  1.00  0.00    -0.370 N 
HETATM   11  H7  UNL     1      23.583   1.508  51.072  1.00  0.00     0.161 HD
BRANCH  10  12
HETATM   12  C9  UNL     1      21.955   0.924  52.484  1.00  0.00     0.139 A 
HETATM   13  N2  UNL     1      22.026   0.280  53.654  1.00  0.00    -0.224 NA
HETATM   14  C10 UNL     1      21.012  -0.346  54.235  1.00  0.00     0.235 A 
HETATM   15  N3  UNL     1      19.864  -0.314  53.586  1.00  0.00    -0.241 NA
HETATM   16  C11 UNL     1      19.680   0.294  52.420  1.00  0.00     0.075 A 
HETATM   17  C12 UNL     1      20.742   0.938  51.835  1.00  0.00     0.060 A 
HETATM   18  C19 UNL     1      18.436   0.195  51.956  1.00  0.00     0.068 C 
HETATM   19  C13 UNL     1      20.796   1.607  50.697  1.00  0.00     0.152 C 
HETATM   20  O1  UNL     1      19.928   1.917  49.711  1.00  0.00    -0.360 OA
HETATM   21  C14 UNL     1      19.464   3.185  49.283  1.00  0.00     0.203 C 
HETATM   22  C15 UNL     1      18.160   2.804  48.524  1.00  0.00     0.236 C 
HETATM   23  O2  UNL     1      17.333   2.153  49.494  1.00  0.00    -0.236 OA
HETATM   24  O3  UNL     1      17.861   0.957  49.734  1.00  0.00    -0.204 OA
HETATM   25  C16 UNL     1      17.379   0.454  50.954  1.00  0.00     0.322 C 
BRANCH  25  26
HETATM   26  O4  UNL     1      16.703  -0.707  50.610  1.00  0.00    -0.355 OA
BRANCH  26  27
HETATM   27  C17 UNL     1      15.446  -0.814  51.162  1.00  0.00     0.167 C 
HETATM   28  C18 UNL     1      15.409  -1.883  52.218  1.00  0.00     0.033 C 
ENDBRANCH  26  27
ENDBRANCH  25  26
ENDBRANCH  10  12
ENDBRANCH   9  10
ENDBRANCH   7   9
ENDBRANCH   3   4
TORSDOF 6
ENDMDL
MODEL 9
REMARK VINA RESULT:      -7.1      3.990      8.741
REMARK  6 active torsions:
REMARK  status: ('A' for Active; 'I' for Inactive)
REMARK    1  A    between atoms: C3_3  and  C4_4 
REMARK    2  A    between atoms: C7_7  and  C8_8 
REMARK    3  A    between atoms: C8_8  and  N1_9 
REMARK    4  A    between atoms: N1_9  and  C9_10 
REMARK    5  A    between atoms: C16_22  and  O4_23 
REMARK    6  A    between atoms: O4_23  and  C17_24 
ROOT
HETATM    1  C1  UNL     1      27.202  -1.263  52.780  1.00  0.00     0.017 C 
HETATM    2  C2  UNL     1      26.312  -0.475  52.830  1.00  0.00    -0.089 C 
HETATM    3  C3  UNL     1      25.237   0.490  52.874  1.00  0.00     0.075 C 
ENDROOT
BRANCH   3   4
HETATM    4  C4  UNL     1      25.210   1.396  51.916  1.00  0.00    -0.028 A 
HETATM    5  C5  UNL     1      26.303   2.069  51.263  1.00  0.00     0.012 A 
HETATM    6  C6  UNL     1      25.843   2.913  50.349  1.00  0.00     0.010 A 
HETATM    7  C7  UNL     1      24.370   2.822  50.369  1.00  0.00    -0.040 A 
HETATM    8  C20 UNL     1      24.014   1.939  51.283  1.00  0.00     0.021 A 
BRANCH   7   9
HETATM    9  C8  UNL     1      23.665   3.694  49.407  1.00  0.00     0.160 C 
BRANCH   9  10
HETATM   10  N1  UNL     1      24.522   4.721  48.831  1.00  0.00    -0.370 N 
HETATM   11  H7  UNL     1      24.949   4.389  47.914  1.00  0.00     0.161 HD
BRANCH  10  12
HETATM   12  C9  UNL     1      24.716   5.977  49.468  1.00  0.00     0.139 A 
HETATM   13  N2  UNL     1      23.695   6.382  50.230  1.00  0.00    -0.224 NA
HETATM   14  C10 UNL     1      23.662   7.522  50.906  1.00  0.00     0.235 A 
HETATM   15  N3  UNL     1      24.730   8.290  50.797  1.00  0.00    -0.241 NA
HETATM   16  C11 UNL     1      25.798   7.988  50.068  1.00  0.00     0.075 A 
HETATM   17  C12 UNL     1      25.813   6.802  49.376  1.00  0.00     0.060 A 
HETATM   18  C19 UNL     1      26.753   8.914  50.111  1.00  0.00     0.068 C 
HETATM   19  C13 UNL     1      26.754   6.293  48.602  1.00  0.00     0.152 C 
HETATM   20  O1  UNL     1      27.982   6.672  48.189  1.00  0.00    -0.360 OA
HETATM   21  C14 UNL     1      29.240   6.066  48.425  1.00  0.00     0.203 C 
HETATM   22  C15 UNL     1      30.216   7.244  48.141  1.00  0.00     0.236 C 
HETATM   23  O2  UNL     1      29.854   8.269  49.073  1.00  0.00    -0.236 OA
HETATM   24  O3  UNL     1      28.693   8.782  48.675  1.00  0.00    -0.204 OA
HETATM   25  C16 UNL     1      28.077   9.459  49.740  1.00  0.00     0.322 C 
BRANCH  25  26
HETATM   26  O4  UNL     1      27.988  10.775  49.311  1.00  0.00    -0.355 OA
BRANCH  26  27
HETATM   27  C17 UNL     1      28.955  11.140  48.401  1.00  0.00     0.167 C 
HETATM   28  C18 UNL     1      29.680  12.378  48.851  1.00  0.00     0.033 C 
ENDBRANCH  26  27
ENDBRANCH  25  26
ENDBRANCH  10  12
ENDBRANCH   9  10
ENDBRANCH   7   9
ENDBRANCH   3   4
TORSDOF 6
ENDMDL
