MODEL 1
REMARK VINA RESULT:      -8.9      0.000      0.000
REMARK  4 active torsions:
REMARK  status: ('A' for Active; 'I' for Inactive)
REMARK    1  A    between atoms: O1_2  and  C2_3 
REMARK    2  A    between atoms: C2_3  and  C3_4 
REMARK    3  A    between atoms: C7_10  and  C8_11 
REMARK    4  A    between atoms: C19_26  and  O4_27 
ROOT
HETATM    1  C3  UNL     1      28.262   0.815  54.201  1.00  0.00     0.206 C 
HETATM    2  O2  UNL     1      28.568   1.086  52.913  1.00  0.00    -0.270 OA
HETATM    3  N1  UNL     1      27.846   2.064  52.319  1.00  0.00    -0.264 N 
HETATM    4  C4  UNL     1      26.502   2.106  51.831  1.00  0.00     0.088 A 
HETATM    5  C5  UNL     1      26.385   3.109  50.921  1.00  0.00     0.050 A 
HETATM    6  C6  UNL     1      25.166   3.336  50.316  1.00  0.00     0.025 A 
HETATM    7  C7  UNL     1      25.152   4.378  49.418  1.00  0.00     0.081 A 
HETATM    8  N2  UNL     1      23.967   4.629  48.817  1.00  0.00    -0.240 NA
HETATM    9  C14 UNL     1      22.859   3.926  49.058  1.00  0.00     0.234 A 
HETATM   10  N3  UNL     1      22.909   2.900  49.952  1.00  0.00    -0.241 NA
HETATM   11  C15 UNL     1      24.046   2.585  50.591  1.00  0.00     0.073 A 
HETATM   12  C16 UNL     1      24.176   1.569  51.516  1.00  0.00     0.071 A 
HETATM   13  C17 UNL     1      25.382   1.320  52.137  1.00  0.00     0.099 A 
HETATM   14  O3  UNL     1      25.154   0.238  52.997  1.00  0.00    -0.346 OA
HETATM   15  C18 UNL     1      26.025  -0.345  53.982  1.00  0.00     0.210 C 
HETATM   16  C19 UNL     1      26.845   0.729  54.609  1.00  0.00     0.176 C 
HETATM   17  H7  UNL     1      28.288   3.005  52.147  1.00  0.00     0.194 HD
ENDROOT
BRANCH   7  18
HETATM   18  C8  UNL     1      26.220   5.272  49.006  1.00  0.00    -0.005 A 
HETATM   19  C9  UNL     1      27.498   5.005  48.575  1.00  0.00     0.014 A 
HETATM   20  C10 UNL     1      28.376   6.013  48.249  1.00  0.00     0.002 A 
HETATM   21  C11 UNL     1      28.034   7.345  48.334  1.00  0.00     0.018 A 
HETATM   22  C12 UNL     1      26.762   7.663  48.761  1.00  0.00     0.007 A 
HETATM   23  I1  UNL     1      26.207   9.679  48.902  1.00  0.00    -0.045 I 
HETATM   24  C13 UNL     1      25.910   6.635  49.079  1.00  0.00     0.032 A 
ENDBRANCH   7  18
BRANCH   1  25
HETATM   25  C2  UNL     1      29.011  -0.464  54.575  1.00  0.00     0.204 C 
BRANCH  25  26
HETATM   26  O1  UNL     1      29.652  -1.009  53.477  1.00  0.00    -0.393 OA
HETATM   27  C1  UNL     1      29.148  -2.289  53.247  1.00  0.00     0.201 C 
ENDBRANCH  25  26
ENDBRANCH   1  25
BRANCH  16  28
HETATM   28  O4  UNL     1      26.248   1.998  54.578  1.00  0.00    -0.391 OA
HETATM   29  H18 UNL     1      26.765   2.606  53.993  1.00  0.00     0.210 HD
ENDBRANCH  16  28
TORSDOF 4
ENDMDL
MODEL 2
REMARK VINA RESULT:      -8.5      1.808      2.773
REMARK  4 active torsions:
REMARK  status: ('A' for Active; 'I' for Inactive)
REMARK    1  A    between atoms: O1_2  and  C2_3 
REMARK    2  A    between atoms: C2_3  and  C3_4 
REMARK    3  A    between atoms: C7_10  and  C8_11 
REMARK    4  A    between atoms: C19_26  and  O4_27 
ROOT
HETATM    1  C3  UNL     1      26.083   1.071  52.855  1.00  0.00     0.206 C 
HETATM    2  O2  UNL     1      26.758   1.245  51.698  1.00  0.00    -0.270 OA
HETATM    3  N1  UNL     1      26.795   2.505  51.209  1.00  0.00    -0.264 N 
HETATM    4  C4  UNL     1      25.811   3.316  50.559  1.00  0.00     0.088 A 
HETATM    5  C5  UNL     1      26.432   4.296  49.851  1.00  0.00     0.050 A 
HETATM    6  C6  UNL     1      25.672   5.202  49.140  1.00  0.00     0.025 A 
HETATM    7  C7  UNL     1      26.395   6.158  48.465  1.00  0.00     0.081 A 
HETATM    8  N2  UNL     1      25.675   7.066  47.768  1.00  0.00    -0.240 NA
HETATM    9  C14 UNL     1      24.342   7.061  47.715  1.00  0.00     0.234 A 
HETATM   10  N3  UNL     1      23.657   6.099  48.394  1.00  0.00    -0.241 NA
HETATM   11  C15 UNL     1      24.297   5.161  49.111  1.00  0.00     0.073 A 
HETATM   12  C16 UNL     1      23.677   4.161  49.832  1.00  0.00     0.071 A 
HETATM   13  C17 UNL     1      24.411   3.242  50.553  1.00  0.00     0.099 A 
HETATM   14  O3  UNL     1      23.475   2.388  51.151  1.00  0.00    -0.346 OA
HETATM   15  C18 UNL     1      23.680   1.341  52.115  1.00  0.00     0.210 C 
HETATM   16  C19 UNL     1      24.777   1.735  53.042  1.00  0.00     0.176 C 
HETATM   17  H7  UNL     1      27.685   3.066  51.282  1.00  0.00     0.194 HD
ENDROOT
BRANCH   7  18
HETATM   18  C8  UNL     1      27.831   6.359  48.382  1.00  0.00    -0.005 A 
HETATM   19  C9  UNL     1      28.851   5.465  48.150  1.00  0.00     0.014 A 
HETATM   20  C10 UNL     1      30.168   5.861  48.133  1.00  0.00     0.002 A 
HETATM   21  C11 UNL     1      30.549   7.168  48.346  1.00  0.00     0.018 A 
HETATM   22  C12 UNL     1      29.561   8.101  48.583  1.00  0.00     0.007 A 
HETATM   23  I1  UNL     1      30.103  10.099  48.912  1.00  0.00    -0.045 I 
HETATM   24  C13 UNL     1      28.257   7.675  48.593  1.00  0.00     0.032 A 
ENDBRANCH   7  18
BRANCH   1  25
HETATM   25  C2  UNL     1      25.960  -0.436  53.077  1.00  0.00     0.204 C 
BRANCH  25  26
HETATM   26  O1  UNL     1      26.393  -0.793  54.342  1.00  0.00    -0.393 OA
HETATM   27  C1  UNL     1      27.550  -0.076  54.644  1.00  0.00     0.201 C 
ENDBRANCH  25  26
ENDBRANCH   1  25
BRANCH  16  28
HETATM   28  O4  UNL     1      24.945   3.122  53.174  1.00  0.00    -0.391 OA
HETATM   29  H18 UNL     1      25.698   3.431  52.609  1.00  0.00     0.210 HD
ENDBRANCH  16  28
TORSDOF 4
ENDMDL
MODEL 3
REMARK VINA RESULT:      -8.2      4.380      8.267
REMARK  4 active torsions:
REMARK  status: ('A' for Active; 'I' for Inactive)
REMARK    1  A    between atoms: O1_2  and  C2_3 
REMARK    2  A    between atoms: C2_3  and  C3_4 
REMARK    3  A    between atoms: C7_10  and  C8_11 
REMARK    4  A    between atoms: C19_26  and  O4_27 
ROOT
HETATM    1  C3  UNL     1      22.361   6.653  50.878  1.00  0.00     0.206 C 
HETATM    2  O2  UNL     1      21.869   5.420  50.630  1.00  0.00    -0.270 OA
HETATM    3  N1  UNL     1      22.384   4.410  51.369  1.00  0.00    -0.264 N 
HETATM    4  C4  UNL     1      23.643   3.731  51.328  1.00  0.00     0.088 A 
HETATM    5  C5  UNL     1      23.520   2.519  51.929  1.00  0.00     0.050 A 
HETATM    6  C6  UNL     1      24.617   1.687  52.005  1.00  0.00     0.025 A 
HETATM    7  C7  UNL     1      24.390   0.487  52.639  1.00  0.00     0.081 A 
HETATM    8  N2  UNL     1      25.452  -0.344  52.737  1.00  0.00    -0.240 NA
HETATM    9  C14 UNL     1      26.661  -0.050  52.256  1.00  0.00     0.234 A 
HETATM   10  N3  UNL     1      26.851   1.146  51.633  1.00  0.00    -0.241 NA
HETATM   11  C15 UNL     1      25.849   2.029  51.494  1.00  0.00     0.073 A 
HETATM   12  C16 UNL     1      25.962   3.261  50.885  1.00  0.00     0.071 A 
HETATM   13  C17 UNL     1      24.882   4.114  50.795  1.00  0.00     0.099 A 
HETATM   14  O3  UNL     1      25.348   5.255  50.129  1.00  0.00    -0.346 OA
HETATM   15  C18 UNL     1      24.684   6.507  49.888  1.00  0.00     0.210 C 
HETATM   16  C19 UNL     1      23.816   6.834  51.054  1.00  0.00     0.176 C 
HETATM   17  H7  UNL     1      21.809   3.988  52.145  1.00  0.00     0.194 HD
ENDROOT
BRANCH   7  18
HETATM   18  C8  UNL     1      23.176  -0.040  53.235  1.00  0.00    -0.005 A 
HETATM   19  C9  UNL     1      22.983  -0.774  54.382  1.00  0.00     0.014 A 
HETATM   20  C10 UNL     1      21.732  -1.201  54.765  1.00  0.00     0.002 A 
HETATM   21  C11 UNL     1      20.600  -0.924  54.029  1.00  0.00     0.018 A 
HETATM   22  C12 UNL     1      20.743  -0.190  52.870  1.00  0.00     0.007 A 
HETATM   23  I1  UNL     1      19.044   0.250  51.725  1.00  0.00    -0.045 I 
HETATM   24  C13 UNL     1      22.004   0.221  52.516  1.00  0.00     0.032 A 
ENDBRANCH   7  18
BRANCH   1  25
HETATM   25  C2  UNL     1      21.832   7.572  49.777  1.00  0.00     0.204 C 
BRANCH  25  26
HETATM   26  O1  UNL     1      20.707   8.260  50.197  1.00  0.00    -0.393 OA
HETATM   27  C1  UNL     1      19.684   8.068  49.269  1.00  0.00     0.201 C 
ENDBRANCH  25  26
ENDBRANCH   1  25
BRANCH  16  28
HETATM   28  O4  UNL     1      24.240   6.260  52.262  1.00  0.00    -0.391 OA
HETATM   29  H18 UNL     1      25.090   5.771  52.129  1.00  0.00     0.210 HD
ENDBRANCH  16  28
TORSDOF 4
ENDMDL
MODEL 4
REMARK VINA RESULT:      -7.9      4.471      6.860
REMARK  4 active torsions:
REMARK  status: ('A' for Active; 'I' for Inactive)
REMARK    1  A    between atoms: O1_2  and  C2_3 
REMARK    2  A    between atoms: C2_3  and  C3_4 
REMARK    3  A    between atoms: C7_10  and  C8_11 
REMARK    4  A    between atoms: C19_26  and  O4_27 
ROOT
HETATM    1  C3  UNL     1      27.111  -0.241  53.764  1.00  0.00     0.206 C 
HETATM    2  O2  UNL     1      25.985  -0.173  54.507  1.00  0.00    -0.270 OA
HETATM    3  N1  UNL     1      24.821  -0.075  53.823  1.00  0.00    -0.264 N 
HETATM    4  C4  UNL     1      24.212   1.005  53.109  1.00  0.00     0.088 A 
HETATM    5  C5  UNL     1      22.877   0.776  53.000  1.00  0.00     0.050 A 
HETATM    6  C6  UNL     1      22.084   1.694  52.344  1.00  0.00     0.025 A 
HETATM    7  C7  UNL     1      20.749   1.366  52.282  1.00  0.00     0.081 A 
HETATM    8  N2  UNL     1      19.950   2.243  51.635  1.00  0.00    -0.240 NA
HETATM    9  C14 UNL     1      20.398   3.371  51.079  1.00  0.00     0.234 A 
HETATM   10  N3  UNL     1      21.725   3.666  51.159  1.00  0.00    -0.241 NA
HETATM   11  C15 UNL     1      22.586   2.848  51.785  1.00  0.00     0.073 A 
HETATM   12  C16 UNL     1      23.942   3.070  51.901  1.00  0.00     0.071 A 
HETATM   13  C17 UNL     1      24.760   2.169  52.552  1.00  0.00     0.099 A 
HETATM   14  O3  UNL     1      26.053   2.704  52.483  1.00  0.00    -0.346 OA
HETATM   15  C18 UNL     1      27.305   2.119  52.876  1.00  0.00     0.210 C 
HETATM   16  C19 UNL     1      27.270   0.655  52.601  1.00  0.00     0.176 C 
HETATM   17  H7  UNL     1      24.184  -0.912  53.759  1.00  0.00     0.194 HD
ENDROOT
BRANCH   7  18
HETATM   18  C8  UNL     1      20.047   0.207  52.804  1.00  0.00    -0.005 A 
HETATM   19  C9  UNL     1      20.462  -0.783  53.664  1.00  0.00     0.014 A 
HETATM   20  C10 UNL     1      19.635  -1.823  54.021  1.00  0.00     0.002 A 
HETATM   21  C11 UNL     1      18.348  -1.939  53.545  1.00  0.00     0.018 A 
HETATM   22  C12 UNL     1      17.886  -0.971  52.679  1.00  0.00     0.007 A 
HETATM   23  I1  UNL     1      15.933  -1.116  51.933  1.00  0.00    -0.045 I 
HETATM   24  C13 UNL     1      18.735   0.054  52.342  1.00  0.00     0.032 A 
ENDBRANCH   7  18
BRANCH   1  25
HETATM   25  C2  UNL     1      28.289  -0.092  54.727  1.00  0.00     0.204 C 
BRANCH  25  26
HETATM   26  O1  UNL     1      29.485   0.019  54.041  1.00  0.00    -0.393 OA
HETATM   27  C1  UNL     1      29.996  -1.257  53.809  1.00  0.00     0.201 C 
ENDBRANCH  25  26
ENDBRANCH   1  25
BRANCH  16  28
HETATM   28  O4  UNL     1      26.391   0.286  51.572  1.00  0.00    -0.391 OA
HETATM   29  H18 UNL     1      25.462   0.531  51.812  1.00  0.00     0.210 HD
ENDBRANCH  16  28
TORSDOF 4
ENDMDL
MODEL 5
REMARK VINA RESULT:      -7.5      4.965      6.953
REMARK  4 active torsions:
REMARK  status: ('A' for Active; 'I' for Inactive)
REMARK    1  A    between atoms: O1_2  and  C2_3 
REMARK    2  A    between atoms: C2_3  and  C3_4 
REMARK    3  A    between atoms: C7_10  and  C8_11 
REMARK    4  A    between atoms: C19_26  and  O4_27 
ROOT
HETATM    1  C3  UNL     1      29.778   5.915  47.924  1.00  0.00     0.206 C 
HETATM    2  O2  UNL     1      29.052   5.143  48.762  1.00  0.00    -0.270 OA
HETATM    3  N1  UNL     1      27.708   5.223  48.636  1.00  0.00    -0.264 N 
HETATM    4  C4  UNL     1      26.763   6.228  49.016  1.00  0.00     0.088 A 
HETATM    5  C5  UNL     1      25.527   5.670  49.112  1.00  0.00     0.050 A 
HETATM    6  C6  UNL     1      24.454   6.460  49.467  1.00  0.00     0.025 A 
HETATM    7  C7  UNL     1      23.247   5.802  49.528  1.00  0.00     0.081 A 
HETATM    8  N2  UNL     1      22.176   6.555  49.865  1.00  0.00    -0.240 NA
HETATM    9  C14 UNL     1      22.250   7.861  50.129  1.00  0.00     0.234 A 
HETATM   10  N3  UNL     1      23.461   8.481  50.060  1.00  0.00    -0.241 NA
HETATM   11  C15 UNL     1      24.574   7.805  49.734  1.00  0.00     0.073 A 
HETATM   12  C16 UNL     1      25.833   8.361  49.634  1.00  0.00     0.071 A 
HETATM   13  C17 UNL     1      26.925   7.595  49.280  1.00  0.00     0.099 A 
HETATM   14  O3  UNL     1      28.021   8.468  49.277  1.00  0.00    -0.346 OA
HETATM   15  C18 UNL     1      29.373   8.233  48.850  1.00  0.00     0.210 C 
HETATM   16  C19 UNL     1      29.365   7.311  47.680  1.00  0.00     0.176 C 
HETATM   17  H7  UNL     1      27.180   4.431  48.182  1.00  0.00     0.194 HD
ENDROOT
BRANCH   7  18
HETATM   18  C8  UNL     1      22.930   4.407  49.282  1.00  0.00    -0.005 A 
HETATM   19  C9  UNL     1      22.669   3.739  48.108  1.00  0.00     0.014 A 
HETATM   20  C10 UNL     1      22.363   2.398  48.093  1.00  0.00     0.002 A 
HETATM   21  C11 UNL     1      22.298   1.643  49.244  1.00  0.00     0.018 A 
HETATM   22  C12 UNL     1      22.552   2.268  50.446  1.00  0.00     0.007 A 
HETATM   23  I1  UNL     1      22.462   1.151  52.217  1.00  0.00    -0.045 I 
HETATM   24  C13 UNL     1      22.854   3.607  50.427  1.00  0.00     0.032 A 
ENDBRANCH   7  18
BRANCH   1  25
HETATM   25  C2  UNL     1      31.227   5.856  48.408  1.00  0.00     0.204 C 
BRANCH  25  26
HETATM   26  O1  UNL     1      31.699   4.555  48.418  1.00  0.00    -0.393 OA
HETATM   27  C1  UNL     1      32.033   4.183  47.116  1.00  0.00     0.201 C 
ENDBRANCH  25  26
ENDBRANCH   1  25
BRANCH  16  28
HETATM   28  O4  UNL     1      28.181   7.349  46.928  1.00  0.00    -0.391 OA
HETATM   29  H18 UNL     1      27.486   6.788  47.356  1.00  0.00     0.210 HD
ENDBRANCH  16  28
TORSDOF 4
ENDMDL
MODEL 6
REMARK VINA RESULT:      -7.5      3.063      4.738
REMARK  4 active torsions:
REMARK  status: ('A' for Active; 'I' for Inactive)
REMARK    1  A    between atoms: O1_2  and  C2_3 
REMARK    2  A    between atoms: C2_3  and  C3_4 
REMARK    3  A    between atoms: C7_10  and  C8_11 
REMARK    4  A    between atoms: C19_26  and  O4_27 
ROOT
HETATM    1  C3  UNL     1      24.213   3.258  52.592  1.00  0.00     0.206 C 
HETATM    2  O2  UNL     1      24.989   3.012  51.514  1.00  0.00    -0.270 OA
HETATM    3  N1  UNL     1      25.548   4.091  50.920  1.00  0.00    -0.264 N 
HETATM    4  C4  UNL     1      25.007   5.119  50.084  1.00  0.00     0.088 A 
HETATM    5  C5  UNL     1      26.011   5.693  49.370  1.00  0.00     0.050 A 
HETATM    6  C6  UNL     1      25.718   6.715  48.492  1.00  0.00     0.025 A 
HETATM    7  C7  UNL     1      26.803   7.233  47.824  1.00  0.00     0.081 A 
HETATM    8  N2  UNL     1      26.546   8.244  46.964  1.00  0.00    -0.240 NA
HETATM    9  C14 UNL     1      25.323   8.734  46.752  1.00  0.00     0.234 A 
HETATM   10  N3  UNL     1      24.270   8.197  47.429  1.00  0.00    -0.241 NA
HETATM   11  C15 UNL     1      24.440   7.191  48.300  1.00  0.00     0.073 A 
HETATM   12  C16 UNL     1      23.429   6.601  49.030  1.00  0.00     0.071 A 
HETATM   13  C17 UNL     1      23.692   5.576  49.916  1.00  0.00     0.099 A 
HETATM   14  O3  UNL     1      22.456   5.222  50.472  1.00  0.00    -0.346 OA
HETATM   15  C18 UNL     1      22.166   4.311  51.546  1.00  0.00     0.210 C 
HETATM   16  C19 UNL     1      23.256   4.382  52.558  1.00  0.00     0.176 C 
HETATM   17  H7  UNL     1      26.577   4.281  51.048  1.00  0.00     0.194 HD
ENDROOT
BRANCH   7  18
HETATM   18  C8  UNL     1      28.207   6.867  47.897  1.00  0.00    -0.005 A 
HETATM   19  C9  UNL     1      28.807   5.645  48.091  1.00  0.00     0.014 A 
HETATM   20  C10 UNL     1      30.176   5.514  48.151  1.00  0.00     0.002 A 
HETATM   21  C11 UNL     1      31.026   6.590  48.023  1.00  0.00     0.018 A 
HETATM   22  C12 UNL     1      30.471   7.837  47.827  1.00  0.00     0.007 A 
HETATM   23  I1  UNL     1      31.734   9.498  47.627  1.00  0.00    -0.045 I 
HETATM   24  C13 UNL     1      29.103   7.934  47.771  1.00  0.00     0.032 A 
ENDBRANCH   7  18
BRANCH   1  25
HETATM   25  C2  UNL     1      23.500   1.950  52.935  1.00  0.00     0.204 C 
BRANCH  25  26
HETATM   26  O1  UNL     1      24.342   0.864  52.772  1.00  0.00    -0.393 OA
HETATM   27  C1  UNL     1      23.900  -0.178  53.587  1.00  0.00     0.201 C 
ENDBRANCH  25  26
ENDBRANCH   1  25
BRANCH  16  28
HETATM   28  O4  UNL     1      23.936   5.609  52.582  1.00  0.00    -0.391 OA
HETATM   29  H18 UNL     1      24.484   5.712  51.763  1.00  0.00     0.210 HD
ENDBRANCH  16  28
TORSDOF 4
ENDMDL
MODEL 7
REMARK VINA RESULT:      -7.5      4.767      7.434
REMARK  4 active torsions:
REMARK  status: ('A' for Active; 'I' for Inactive)
REMARK    1  A    between atoms: O1_2  and  C2_3 
REMARK    2  A    between atoms: C2_3  and  C3_4 
REMARK    3  A    between atoms: C7_10  and  C8_11 
REMARK    4  A    between atoms: C19_26  and  O4_27 
ROOT
HETATM    1  C3  UNL     1      25.929   4.535  49.954  1.00  0.00     0.206 C 
HETATM    2  O2  UNL     1      26.929   4.197  49.111  1.00  0.00    -0.270 OA
HETATM    3  N1  UNL     1      27.916   5.109  48.956  1.00  0.00    -0.264 N 
HETATM    4  C4  UNL     1      27.975   6.355  48.256  1.00  0.00     0.088 A 
HETATM    5  C5  UNL     1      29.273   6.667  48.001  1.00  0.00     0.050 A 
HETATM    6  C6  UNL     1      29.569   7.835  47.330  1.00  0.00     0.025 A 
HETATM    7  C7  UNL     1      30.911   8.062  47.128  1.00  0.00     0.081 A 
HETATM    8  N2  UNL     1      31.230   9.205  46.481  1.00  0.00    -0.240 NA
HETATM    9  C14 UNL     1      30.322  10.082  46.049  1.00  0.00     0.234 A 
HETATM   10  N3  UNL     1      29.002   9.826  46.264  1.00  0.00    -0.241 NA
HETATM   11  C15 UNL     1      28.600   8.713  46.898  1.00  0.00     0.073 A 
HETATM   12  C16 UNL     1      27.286   8.386  47.162  1.00  0.00     0.071 A 
HETATM   13  C17 UNL     1      26.961   7.225  47.832  1.00  0.00     0.099 A 
HETATM   14  O3  UNL     1      25.563   7.214  47.923  1.00  0.00    -0.346 OA
HETATM   15  C18 UNL     1      24.702   6.312  48.638  1.00  0.00     0.210 C 
HETATM   16  C19 UNL     1      25.367   5.899  49.906  1.00  0.00     0.176 C 
HETATM   17  H7  UNL     1      28.854   4.942  49.408  1.00  0.00     0.194 HD
ENDROOT
BRANCH   7  18
HETATM   18  C8  UNL     1      32.061   7.261  47.508  1.00  0.00    -0.005 A 
HETATM   19  C9  UNL     1      32.766   7.206  48.688  1.00  0.00     0.014 A 
HETATM   20  C10 UNL     1      33.858   6.382  48.838  1.00  0.00     0.002 A 
HETATM   21  C11 UNL     1      34.312   5.566  47.825  1.00  0.00     0.018 A 
HETATM   22  C12 UNL     1      33.638   5.587  46.623  1.00  0.00     0.007 A 
HETATM   23  I1  UNL     1      34.300   4.360  45.059  1.00  0.00    -0.045 I 
HETATM   24  C13 UNL     1      32.552   6.419  46.505  1.00  0.00     0.032 A 
ENDBRANCH   7  18
BRANCH   1  25
HETATM   25  C2  UNL     1      24.828   3.489  49.779  1.00  0.00     0.204 C 
BRANCH  25  26
HETATM   26  O1  UNL     1      24.811   2.597  50.837  1.00  0.00    -0.393 OA
HETATM   27  C1  UNL     1      23.768   2.934  51.698  1.00  0.00     0.201 C 
ENDBRANCH  25  26
ENDBRANCH   1  25
BRANCH  16  28
HETATM   28  O4  UNL     1      26.295   6.831  50.395  1.00  0.00    -0.391 OA
HETATM   29  H18 UNL     1      26.908   7.115  49.671  1.00  0.00     0.210 HD
ENDBRANCH  16  28
TORSDOF 4
ENDMDL
MODEL 8
REMARK VINA RESULT:      -7.4      3.684      6.002
REMARK  4 active torsions:
REMARK  status: ('A' for Active; 'I' for Inactive)
REMARK    1  A    between atoms: O1_2  and  C2_3 
REMARK    2  A    between atoms: C2_3  and  C3_4 
REMARK    3  A    between atoms: C7_10  and  C8_11 
REMARK    4  A    between atoms: C19_26  and  O4_27 
ROOT
HETATM    1  C3  UNL     1      24.379   4.096  51.536  1.00  0.00     0.206 C 
HETATM    2  O2  UNL     1      25.392   3.677  50.748  1.00  0.00    -0.270 OA
HETATM    3  N1  UNL     1      26.238   4.633  50.300  1.00  0.00    -0.264 N 
HETATM    4  C4  UNL     1      26.103   5.645  49.298  1.00  0.00     0.088 A 
HETATM    5  C5  UNL     1      27.337   6.040  48.888  1.00  0.00     0.050 A 
HETATM    6  C6  UNL     1      27.448   7.016  47.919  1.00  0.00     0.025 A 
HETATM    7  C7  UNL     1      28.740   7.350  47.581  1.00  0.00     0.081 A 
HETATM    8  N2  UNL     1      28.878   8.311  46.641  1.00  0.00    -0.240 NA
HETATM    9  C14 UNL     1      27.845   8.918  46.054  1.00  0.00     0.234 A 
HETATM   10  N3  UNL     1      26.580   8.562  46.411  1.00  0.00    -0.241 NA
HETATM   11  C15 UNL     1      26.355   7.617  47.337  1.00  0.00     0.073 A 
HETATM   12  C16 UNL     1      25.107   7.207  47.759  1.00  0.00     0.071 A 
HETATM   13  C17 UNL     1      24.966   6.234  48.727  1.00  0.00     0.099 A 
HETATM   14  O3  UNL     1      23.586   6.070  48.907  1.00  0.00    -0.346 OA
HETATM   15  C18 UNL     1      22.880   5.288  49.885  1.00  0.00     0.210 C 
HETATM   16  C19 UNL     1      23.630   5.316  51.171  1.00  0.00     0.176 C 
HETATM   17  H7  UNL     1      27.202   4.713  50.719  1.00  0.00     0.194 HD
ENDROOT
BRANCH   7  18
HETATM   18  C8  UNL     1      30.000   6.833  48.083  1.00  0.00    -0.005 A 
HETATM   19  C9  UNL     1      30.826   7.292  49.083  1.00  0.00     0.014 A 
HETATM   20  C10 UNL     1      32.007   6.658  49.392  1.00  0.00     0.002 A 
HETATM   21  C11 UNL     1      32.437   5.532  48.725  1.00  0.00     0.018 A 
HETATM   22  C12 UNL     1      31.643   5.034  47.714  1.00  0.00     0.007 A 
HETATM   23  I1  UNL     1      32.265   3.322  46.677  1.00  0.00    -0.045 I 
HETATM   24  C13 UNL     1      30.471   5.688  47.430  1.00  0.00     0.032 A 
ENDBRANCH   7  18
BRANCH   1  25
HETATM   25  C2  UNL     1      23.430   2.910  51.709  1.00  0.00     0.204 C 
BRANCH  25  26
HETATM   26  O1  UNL     1      23.634   2.278  52.923  1.00  0.00    -0.393 OA
HETATM   27  C1  UNL     1      23.463   0.905  52.754  1.00  0.00     0.201 C 
ENDBRANCH  25  26
ENDBRANCH   1  25
BRANCH  16  28
HETATM   28  O4  UNL     1      24.432   6.454  51.342  1.00  0.00    -0.391 OA
HETATM   29  H18 UNL     1      25.201   6.428  50.718  1.00  0.00     0.210 HD
ENDBRANCH  16  28
TORSDOF 4
ENDMDL
MODEL 9
REMARK VINA RESULT:      -7.3      6.400      9.426
REMARK  4 active torsions:
REMARK  status: ('A' for Active; 'I' for Inactive)
REMARK    1  A    between atoms: O1_2  and  C2_3 
REMARK    2  A    between atoms: C2_3  and  C3_4 
REMARK    3  A    between atoms: C7_10  and  C8_11 
REMARK    4  A    between atoms: C19_26  and  O4_27 
ROOT
HETATM    1  C3  UNL     1      26.382   7.706  49.970  1.00  0.00     0.206 C 
HETATM    2  O2  UNL     1      27.136   7.128  49.010  1.00  0.00    -0.270 OA
HETATM    3  N1  UNL     1      28.437   7.496  48.967  1.00  0.00    -0.264 N 
HETATM    4  C4  UNL     1      29.085   8.690  48.518  1.00  0.00     0.088 A 
HETATM    5  C5  UNL     1      30.387   8.417  48.239  1.00  0.00     0.050 A 
HETATM    6  C6  UNL     1      31.209   9.429  47.787  1.00  0.00     0.025 A 
HETATM    7  C7  UNL     1      32.509   9.052  47.541  1.00  0.00     0.081 A 
HETATM    8  N2  UNL     1      33.339  10.026  47.107  1.00  0.00    -0.240 NA
HETATM    9  C14 UNL     1      32.952  11.289  46.916  1.00  0.00     0.234 A 
HETATM   10  N3  UNL     1      31.658  11.628  47.168  1.00  0.00    -0.241 NA
HETATM   11  C15 UNL     1      30.769  10.720  47.602  1.00  0.00     0.073 A 
HETATM   12  C16 UNL     1      29.446  10.986  47.888  1.00  0.00     0.071 A 
HETATM   13  C17 UNL     1      28.601   9.994  48.342  1.00  0.00     0.099 A 
HETATM   14  O3  UNL     1      27.355  10.606  48.526  1.00  0.00    -0.346 OA
HETATM   15  C18 UNL     1      26.154  10.074  49.111  1.00  0.00     0.210 C 
HETATM   16  C19 UNL     1      26.516   9.155  50.226  1.00  0.00     0.176 C 
HETATM   17  H7  UNL     1      29.178   6.830  49.312  1.00  0.00     0.194 HD
ENDROOT
BRANCH   7  18
HETATM   18  C8  UNL     1      33.147   7.755  47.679  1.00  0.00    -0.005 A 
HETATM   19  C9  UNL     1      33.648   7.113  48.787  1.00  0.00     0.014 A 
HETATM   20  C10 UNL     1      34.244   5.876  48.698  1.00  0.00     0.002 A 
HETATM   21  C11 UNL     1      34.377   5.205  47.502  1.00  0.00     0.018 A 
HETATM   22  C12 UNL     1      33.890   5.809  46.362  1.00  0.00     0.007 A 
HETATM   23  I1  UNL     1      34.075   4.818  44.524  1.00  0.00    -0.045 I 
HETATM   24  C13 UNL     1      33.301   7.042  46.484  1.00  0.00     0.032 A 
ENDBRANCH   7  18
BRANCH   1  25
HETATM   25  C2  UNL     1      24.928   7.342  49.673  1.00  0.00     0.204 C 
BRANCH  25  26
HETATM   26  O1  UNL     1      24.096   7.709  50.717  1.00  0.00    -0.393 OA
HETATM   27  C1  UNL     1      23.077   6.765  50.838  1.00  0.00     0.201 C 
ENDBRANCH  25  26
ENDBRANCH   1  25
BRANCH  16  28
HETATM   28  O4  UNL     1      27.755   9.436  50.820  1.00  0.00    -0.391 OA
HETATM   29  H18 UNL     1      28.224   8.594  51.050  1.00  0.00     0.210 HD
ENDBRANCH  16  28
TORSDOF 4
ENDMDL
