MODEL 1
REMARK VINA RESULT:      -7.9      0.000      0.000
REMARK  6 active torsions:
REMARK  status: ('A' for Active; 'I' for Inactive)
REMARK    1  A    between atoms: O1_2  and  C2_3 
REMARK    2  A    between atoms: C7_8  and  C8_9 
REMARK    3  A    between atoms: C8_9  and  C10_15 
REMARK    4  A    between atoms: N1_10  and  N2_11 
REMARK    5  A    between atoms: N2_11  and  C9_12 
REMARK    6  A    between atoms: C9_12  and  N3_13 
ROOT
HETATM    1  C8  UNL     1      26.530   0.989  52.419  1.00  0.00     0.074 C 
HETATM    2  N1  UNL     1      27.176   2.010  51.850  1.00  0.00    -0.176 NA
ENDROOT
BRANCH   1   3
HETATM    3  C7  UNL     1      25.184   0.594  52.851  1.00  0.00     0.083 C 
HETATM    4  C6  UNL     1      23.889   0.828  52.896  1.00  0.00    -0.063 A 
HETATM    5  C5  UNL     1      23.393  -0.333  53.668  1.00  0.00     0.004 A 
HETATM    6  C16 UNL     1      22.819   1.804  52.459  1.00  0.00     0.099 A 
HETATM    7  C4  UNL     1      22.115  -0.565  53.991  1.00  0.00     0.003 A 
HETATM    8  C3  UNL     1      21.040   0.365  53.585  1.00  0.00     0.032 A 
HETATM    9  C2  UNL     1      21.513   1.385  52.900  1.00  0.00     0.049 A 
BRANCH   9  10
HETATM   10  O1  UNL     1      20.647   2.388  52.420  1.00  0.00    -0.360 OA
HETATM   11  C1  UNL     1      21.141   3.707  52.157  1.00  0.00     0.209 C 
ENDBRANCH   9  10
ENDBRANCH   1   3
BRANCH   1  12
HETATM   12  C10 UNL     1      27.449  -0.126  52.730  1.00  0.00    -0.009 A 
HETATM   13  C11 UNL     1      28.751  -0.051  53.227  1.00  0.00     0.013 A 
HETATM   14  C12 UNL     1      29.572  -1.111  53.502  1.00  0.00     0.001 A 
HETATM   15  C13 UNL     1      29.093  -2.376  53.278  1.00  0.00     0.000 A 
HETATM   16  C14 UNL     1      27.821  -2.576  52.789  1.00  0.00     0.001 A 
HETATM   17  C15 UNL     1      27.088  -1.438  52.550  1.00  0.00     0.013 A 
ENDBRANCH   1  12
BRANCH   2  18
HETATM   18  N2  UNL     1      26.495   3.148  51.484  1.00  0.00    -0.253 N 
HETATM   19  H8  UNL     1      26.089   3.461  52.379  1.00  0.00     0.191 HD
BRANCH  18  20
HETATM   20  C9  UNL     1      26.348   3.785  50.218  1.00  0.00     0.185 C 
HETATM   21  S1  UNL     1      24.812   3.800  49.634  1.00  0.00    -0.040 SA
BRANCH  20  22
HETATM   22  N3  UNL     1      27.113   4.449  49.234  1.00  0.00    -0.375 N 
HETATM   23  H9  UNL     1      27.325   3.963  48.322  1.00  0.00     0.158 HD
HETATM   24  H10 UNL     1      27.269   5.327  49.738  1.00  0.00     0.158 HD
ENDBRANCH  20  22
ENDBRANCH  18  20
ENDBRANCH   2  18
TORSDOF 6
ENDMDL
MODEL 2
REMARK VINA RESULT:      -7.9      3.065      5.077
REMARK  6 active torsions:
REMARK  status: ('A' for Active; 'I' for Inactive)
REMARK    1  A    between atoms: O1_2  and  C2_3 
REMARK    2  A    between atoms: C7_8  and  C8_9 
REMARK    3  A    between atoms: C8_9  and  C10_15 
REMARK    4  A    between atoms: N1_10  and  N2_11 
REMARK    5  A    between atoms: N2_11  and  C9_12 
REMARK    6  A    between atoms: C9_12  and  N3_13 
ROOT
HETATM    1  C8  UNL     1      25.901   0.062  54.010  1.00  0.00     0.074 C 
HETATM    2  N1  UNL     1      26.647  -0.466  54.983  1.00  0.00    -0.176 NA
ENDROOT
BRANCH   1   3
HETATM    3  C7  UNL     1      25.996   0.998  52.884  1.00  0.00     0.083 C 
HETATM    4  C6  UNL     1      25.537   2.050  52.238  1.00  0.00    -0.063 A 
HETATM    5  C5  UNL     1      26.479   2.145  51.099  1.00  0.00     0.004 A 
HETATM    6  C16 UNL     1      24.460   3.112  52.262  1.00  0.00     0.099 A 
HETATM    7  C4  UNL     1      26.440   3.070  50.132  1.00  0.00     0.003 A 
HETATM    8  C3  UNL     1      25.403   4.123  50.118  1.00  0.00     0.032 A 
HETATM    9  C2  UNL     1      24.583   4.011  51.143  1.00  0.00     0.049 A 
BRANCH   9  10
HETATM   10  O1  UNL     1      23.520   4.922  51.312  1.00  0.00    -0.360 OA
HETATM   11  C1  UNL     1      22.429   4.608  52.185  1.00  0.00     0.209 C 
ENDBRANCH   9  10
ENDBRANCH   1   3
BRANCH   1  12
HETATM   12  C10 UNL     1      24.513  -0.444  54.060  1.00  0.00    -0.009 A 
HETATM   13  C11 UNL     1      23.555  -0.420  53.046  1.00  0.00     0.013 A 
HETATM   14  C12 UNL     1      22.276  -0.900  53.131  1.00  0.00     0.001 A 
HETATM   15  C13 UNL     1      21.875  -1.465  54.316  1.00  0.00     0.000 A 
HETATM   16  C14 UNL     1      22.733  -1.545  55.389  1.00  0.00     0.001 A 
HETATM   17  C15 UNL     1      23.991  -1.030  55.187  1.00  0.00     0.013 A 
ENDBRANCH   1  12
BRANCH   2  18
HETATM   18  N2  UNL     1      27.974  -0.121  55.108  1.00  0.00    -0.253 N 
HETATM   19  H8  UNL     1      28.065   0.044  56.122  1.00  0.00     0.191 HD
BRANCH  18  20
HETATM   20  C9  UNL     1      29.007  -0.003  54.135  1.00  0.00     0.185 C 
HETATM   21  S1  UNL     1      29.447  -1.421  53.428  1.00  0.00    -0.040 SA
BRANCH  20  22
HETATM   22  N3  UNL     1      29.834   0.970  53.532  1.00  0.00    -0.375 N 
HETATM   23  H9  UNL     1      30.451   0.700  52.720  1.00  0.00     0.158 HD
HETATM   24  H10 UNL     1      29.574   1.767  54.120  1.00  0.00     0.158 HD
ENDBRANCH  20  22
ENDBRANCH  18  20
ENDBRANCH   2  18
TORSDOF 6
ENDMDL
MODEL 3
REMARK VINA RESULT:      -7.9      1.280      1.864
REMARK  6 active torsions:
REMARK  status: ('A' for Active; 'I' for Inactive)
REMARK    1  A    between atoms: O1_2  and  C2_3 
REMARK    2  A    between atoms: C7_8  and  C8_9 
REMARK    3  A    between atoms: C8_9  and  C10_15 
REMARK    4  A    between atoms: N1_10  and  N2_11 
REMARK    5  A    between atoms: N2_11  and  C9_12 
REMARK    6  A    between atoms: C9_12  and  N3_13 
ROOT
HETATM    1  C8  UNL     1      26.165   0.868  52.381  1.00  0.00     0.074 C 
HETATM    2  N1  UNL     1      26.446   1.813  51.482  1.00  0.00    -0.176 NA
ENDROOT
BRANCH   1   3
HETATM    3  C7  UNL     1      25.028   0.290  53.107  1.00  0.00     0.083 C 
HETATM    4  C6  UNL     1      23.735   0.261  53.358  1.00  0.00    -0.063 A 
HETATM    5  C5  UNL     1      23.642  -0.821  54.364  1.00  0.00     0.004 A 
HETATM    6  C16 UNL     1      22.415   0.906  52.996  1.00  0.00     0.099 A 
HETATM    7  C4  UNL     1      22.515  -1.247  54.949  1.00  0.00     0.003 A 
HETATM    8  C3  UNL     1      21.207  -0.642  54.624  1.00  0.00     0.032 A 
HETATM    9  C2  UNL     1      21.323   0.316  53.727  1.00  0.00     0.049 A 
BRANCH   9  10
HETATM   10  O1  UNL     1      20.186   1.020  53.280  1.00  0.00    -0.360 OA
HETATM   11  C1  UNL     1      20.332   2.273  52.602  1.00  0.00     0.209 C 
ENDBRANCH   9  10
ENDBRANCH   1   3
BRANCH   1  12
HETATM   12  C10 UNL     1      27.384   0.148  52.807  1.00  0.00    -0.009 A 
HETATM   13  C11 UNL     1      27.600  -1.230  52.835  1.00  0.00     0.013 A 
HETATM   14  C12 UNL     1      28.746  -1.860  53.237  1.00  0.00     0.001 A 
HETATM   15  C13 UNL     1      29.798  -1.084  53.656  1.00  0.00     0.000 A 
HETATM   16  C14 UNL     1      29.703   0.290  53.671  1.00  0.00     0.001 A 
HETATM   17  C15 UNL     1      28.504   0.809  53.246  1.00  0.00     0.013 A 
ENDBRANCH   1  12
BRANCH   2  18
HETATM   18  N2  UNL     1      25.443   2.598  50.959  1.00  0.00    -0.253 N 
HETATM   19  H8  UNL     1      25.508   2.396  49.949  1.00  0.00     0.191 HD
BRANCH  18  20
HETATM   20  C9  UNL     1      24.519   3.480  51.589  1.00  0.00     0.185 C 
HETATM   21  S1  UNL     1      23.283   3.978  50.626  1.00  0.00    -0.040 SA
BRANCH  20  22
HETATM   22  N3  UNL     1      24.284   4.112  52.829  1.00  0.00    -0.375 N 
HETATM   23  H9  UNL     1      23.329   4.052  53.274  1.00  0.00     0.158 HD
HETATM   24  H10 UNL     1      25.221   4.501  52.974  1.00  0.00     0.158 HD
ENDBRANCH  20  22
ENDBRANCH  18  20
ENDBRANCH   2  18
TORSDOF 6
ENDMDL
MODEL 4
REMARK VINA RESULT:      -7.8      3.237      5.843
REMARK  6 active torsions:
REMARK  status: ('A' for Active; 'I' for Inactive)
REMARK    1  A    between atoms: O1_2  and  C2_3 
REMARK    2  A    between atoms: C7_8  and  C8_9 
REMARK    3  A    between atoms: C8_9  and  C10_15 
REMARK    4  A    between atoms: N1_10  and  N2_11 
REMARK    5  A    between atoms: N2_11  and  C9_12 
REMARK    6  A    between atoms: C9_12  and  N3_13 
ROOT
HETATM    1  C8  UNL     1      24.705   0.557  52.955  1.00  0.00     0.074 C 
HETATM    2  N1  UNL     1      25.636  -0.185  53.560  1.00  0.00    -0.176 NA
ENDROOT
BRANCH   1   3
HETATM    3  C7  UNL     1      24.575   1.671  52.009  1.00  0.00     0.083 C 
HETATM    4  C6  UNL     1      25.121   2.486  51.130  1.00  0.00    -0.063 A 
HETATM    5  C5  UNL     1      23.967   3.322  50.729  1.00  0.00     0.004 A 
HETATM    6  C16 UNL     1      26.424   2.832  50.445  1.00  0.00     0.099 A 
HETATM    7  C4  UNL     1      24.001   4.320  49.837  1.00  0.00     0.003 A 
HETATM    8  C3  UNL     1      25.254   4.690  49.147  1.00  0.00     0.032 A 
HETATM    9  C2  UNL     1      26.260   3.929  49.526  1.00  0.00     0.049 A 
BRANCH   9  10
HETATM   10  O1  UNL     1      27.547   4.121  48.982  1.00  0.00    -0.360 OA
HETATM   11  C1  UNL     1      27.943   5.409  48.496  1.00  0.00     0.209 C 
ENDBRANCH   9  10
ENDBRANCH   1   3
BRANCH   1  12
HETATM   12  C10 UNL     1      23.343   0.142  53.352  1.00  0.00    -0.009 A 
HETATM   13  C11 UNL     1      22.980  -0.865  54.247  1.00  0.00     0.013 A 
HETATM   14  C12 UNL     1      21.703  -1.220  54.590  1.00  0.00     0.001 A 
HETATM   15  C13 UNL     1      20.664  -0.535  54.012  1.00  0.00     0.000 A 
HETATM   16  C14 UNL     1      20.899   0.482  53.113  1.00  0.00     0.001 A 
HETATM   17  C15 UNL     1      22.220   0.749  52.847  1.00  0.00     0.013 A 
ENDBRANCH   1  12
BRANCH   2  18
HETATM   18  N2  UNL     1      26.972   0.045  53.322  1.00  0.00    -0.253 N 
HETATM   19  H8  UNL     1      27.245  -0.785  52.774  1.00  0.00     0.191 HD
BRANCH  18  20
HETATM   20  C9  UNL     1      27.819   1.125  53.703  1.00  0.00     0.185 C 
HETATM   21  S1  UNL     1      29.350   0.685  54.108  1.00  0.00    -0.040 SA
BRANCH  20  22
HETATM   22  N3  UNL     1      27.796   2.528  53.860  1.00  0.00    -0.375 N 
HETATM   23  H9  UNL     1      28.023   3.151  53.039  1.00  0.00     0.158 HD
HETATM   24  H10 UNL     1      27.531   2.559  54.850  1.00  0.00     0.158 HD
ENDBRANCH  20  22
ENDBRANCH  18  20
ENDBRANCH   2  18
TORSDOF 6
ENDMDL
MODEL 5
REMARK VINA RESULT:      -7.5      2.526      5.153
REMARK  6 active torsions:
REMARK  status: ('A' for Active; 'I' for Inactive)
REMARK    1  A    between atoms: O1_2  and  C2_3 
REMARK    2  A    between atoms: C7_8  and  C8_9 
REMARK    3  A    between atoms: C8_9  and  C10_15 
REMARK    4  A    between atoms: N1_10  and  N2_11 
REMARK    5  A    between atoms: N2_11  and  C9_12 
REMARK    6  A    between atoms: C9_12  and  N3_13 
ROOT
HETATM    1  C8  UNL     1      25.605   1.938  51.548  1.00  0.00     0.074 C 
HETATM    2  N1  UNL     1      26.794   1.343  51.661  1.00  0.00    -0.176 NA
ENDROOT
BRANCH   1   3
HETATM    3  C7  UNL     1      24.210   1.784  51.977  1.00  0.00     0.083 C 
HETATM    4  C6  UNL     1      23.307   1.163  52.709  1.00  0.00    -0.063 A 
HETATM    5  C5  UNL     1      22.067   1.885  52.343  1.00  0.00     0.004 A 
HETATM    6  C16 UNL     1      23.121   0.052  53.718  1.00  0.00     0.099 A 
HETATM    7  C4  UNL     1      20.845   1.627  52.825  1.00  0.00     0.003 A 
HETATM    8  C3  UNL     1      20.621   0.549  53.811  1.00  0.00     0.032 A 
HETATM    9  C2  UNL     1      21.742  -0.072  54.116  1.00  0.00     0.049 A 
BRANCH   9  10
HETATM   10  O1  UNL     1      21.742  -1.135  55.041  1.00  0.00    -0.360 OA
HETATM   11  C1  UNL     1      22.977  -1.643  55.560  1.00  0.00     0.209 C 
ENDBRANCH   9  10
ENDBRANCH   1   3
BRANCH   1  12
HETATM   12  C10 UNL     1      25.688   3.159  50.719  1.00  0.00    -0.009 A 
HETATM   13  C11 UNL     1      24.803   4.237  50.688  1.00  0.00     0.013 A 
HETATM   14  C12 UNL     1      24.915   5.353  49.904  1.00  0.00     0.001 A 
HETATM   15  C13 UNL     1      25.994   5.445  49.061  1.00  0.00     0.000 A 
HETATM   16  C14 UNL     1      26.936   4.443  49.003  1.00  0.00     0.001 A 
HETATM   17  C15 UNL     1      26.718   3.371  49.836  1.00  0.00     0.013 A 
ENDBRANCH   1  12
BRANCH   2  18
HETATM   18  N2  UNL     1      26.928   0.187  52.396  1.00  0.00    -0.253 N 
HETATM   19  H8  UNL     1      26.809  -0.545  51.679  1.00  0.00     0.191 HD
BRANCH  18  20
HETATM   20  C9  UNL     1      27.170  -0.017  53.785  1.00  0.00     0.185 C 
HETATM   21  S1  UNL     1      28.713   0.287  54.263  1.00  0.00    -0.040 SA
BRANCH  20  22
HETATM   22  N3  UNL     1      26.501  -0.416  54.963  1.00  0.00    -0.375 N 
HETATM   23  H9  UNL     1      25.586  -0.935  54.894  1.00  0.00     0.158 HD
HETATM   24  H10 UNL     1      27.172  -0.046  55.643  1.00  0.00     0.158 HD
ENDBRANCH  20  22
ENDBRANCH  18  20
ENDBRANCH   2  18
TORSDOF 6
ENDMDL
MODEL 6
REMARK VINA RESULT:      -7.2      2.570      4.993
REMARK  6 active torsions:
REMARK  status: ('A' for Active; 'I' for Inactive)
REMARK    1  A    between atoms: O1_2  and  C2_3 
REMARK    2  A    between atoms: C7_8  and  C8_9 
REMARK    3  A    between atoms: C8_9  and  C10_15 
REMARK    4  A    between atoms: N1_10  and  N2_11 
REMARK    5  A    between atoms: N2_11  and  C9_12 
REMARK    6  A    between atoms: C9_12  and  N3_13 
ROOT
HETATM    1  C8  UNL     1      25.129   1.268  52.352  1.00  0.00     0.074 C 
HETATM    2  N1  UNL     1      26.423   1.261  52.024  1.00  0.00    -0.176 NA
ENDROOT
BRANCH   1   3
HETATM    3  C7  UNL     1      24.118   0.433  53.011  1.00  0.00     0.083 C 
HETATM    4  C6  UNL     1      22.861   0.066  53.151  1.00  0.00    -0.063 A 
HETATM    5  C5  UNL     1      22.957  -0.963  54.211  1.00  0.00     0.004 A 
HETATM    6  C16 UNL     1      21.461   0.319  52.637  1.00  0.00     0.099 A 
HETATM    7  C4  UNL     1      21.930  -1.653  54.722  1.00  0.00     0.003 A 
HETATM    8  C3  UNL     1      20.547  -1.435  54.247  1.00  0.00     0.032 A 
HETATM    9  C2  UNL     1      20.496  -0.515  53.306  1.00  0.00     0.049 A 
BRANCH   9  10
HETATM   10  O1  UNL     1      19.264  -0.159  52.720  1.00  0.00    -0.360 OA
HETATM   11  C1  UNL     1      19.210   0.272  51.355  1.00  0.00     0.209 C 
ENDBRANCH   9  10
ENDBRANCH   1   3
BRANCH   1  12
HETATM   12  C10 UNL     1      24.468   2.517  51.918  1.00  0.00    -0.009 A 
HETATM   13  C11 UNL     1      24.183   2.929  50.616  1.00  0.00     0.013 A 
HETATM   14  C12 UNL     1      23.568   4.096  50.254  1.00  0.00     0.001 A 
HETATM   15  C13 UNL     1      23.184   4.960  51.249  1.00  0.00     0.000 A 
HETATM   16  C14 UNL     1      23.412   4.662  52.574  1.00  0.00     0.001 A 
HETATM   17  C15 UNL     1      24.037   3.462  52.816  1.00  0.00     0.013 A 
ENDBRANCH   1  12
BRANCH   2  18
HETATM   18  N2  UNL     1      27.217   0.183  52.341  1.00  0.00    -0.253 N 
HETATM   19  H8  UNL     1      27.371  -0.257  51.421  1.00  0.00     0.191 HD
BRANCH  18  20
HETATM   20  C9  UNL     1      27.730  -0.267  53.592  1.00  0.00     0.185 C 
HETATM   21  S1  UNL     1      29.189  -1.018  53.503  1.00  0.00    -0.040 SA
BRANCH  20  22
HETATM   22  N3  UNL     1      27.397  -0.292  54.964  1.00  0.00    -0.375 N 
HETATM   23  H9  UNL     1      26.690  -0.990  55.318  1.00  0.00     0.158 HD
HETATM   24  H10 UNL     1      28.010   0.468  55.276  1.00  0.00     0.158 HD
ENDBRANCH  20  22
ENDBRANCH  18  20
ENDBRANCH   2  18
TORSDOF 6
ENDMDL
MODEL 7
REMARK VINA RESULT:      -7.0      2.996      5.988
REMARK  6 active torsions:
REMARK  status: ('A' for Active; 'I' for Inactive)
REMARK    1  A    between atoms: O1_2  and  C2_3 
REMARK    2  A    between atoms: C7_8  and  C8_9 
REMARK    3  A    between atoms: C8_9  and  C10_15 
REMARK    4  A    between atoms: N1_10  and  N2_11 
REMARK    5  A    between atoms: N2_11  and  C9_12 
REMARK    6  A    between atoms: C9_12  and  N3_13 
ROOT
HETATM    1  C8  UNL     1      25.940   3.620  49.883  1.00  0.00     0.074 C 
HETATM    2  N1  UNL     1      26.926   3.283  50.716  1.00  0.00    -0.176 NA
ENDROOT
BRANCH   1   3
HETATM    3  C7  UNL     1      24.626   3.153  49.427  1.00  0.00     0.083 C 
HETATM    4  C6  UNL     1      23.529   2.456  49.642  1.00  0.00    -0.063 A 
HETATM    5  C5  UNL     1      22.766   2.691  48.396  1.00  0.00     0.004 A 
HETATM    6  C16 UNL     1      22.837   1.566  50.652  1.00  0.00     0.099 A 
HETATM    7  C4  UNL     1      21.556   2.189  48.116  1.00  0.00     0.003 A 
HETATM    8  C3  UNL     1      20.848   1.315  49.075  1.00  0.00     0.032 A 
HETATM    9  C2  UNL     1      21.553   1.125  50.172  1.00  0.00     0.049 A 
BRANCH   9  10
HETATM   10  O1  UNL     1      21.051   0.319  51.214  1.00  0.00    -0.360 OA
HETATM   11  C1  UNL     1      19.687   0.442  51.632  1.00  0.00     0.209 C 
ENDBRANCH   9  10
ENDBRANCH   1   3
BRANCH   1  12
HETATM   12  C10 UNL     1      26.245   4.876  49.165  1.00  0.00    -0.009 A 
HETATM   13  C11 UNL     1      25.365   5.902  48.820  1.00  0.00     0.013 A 
HETATM   14  C12 UNL     1      25.687   7.053  48.153  1.00  0.00     0.001 A 
HETATM   15  C13 UNL     1      26.994   7.239  47.778  1.00  0.00     0.000 A 
HETATM   16  C14 UNL     1      27.955   6.294  48.064  1.00  0.00     0.001 A 
HETATM   17  C15 UNL     1      27.514   5.180  48.737  1.00  0.00     0.013 A 
ENDBRANCH   1  12
BRANCH   2  18
HETATM   18  N2  UNL     1      26.834   2.142  51.480  1.00  0.00    -0.253 N 
HETATM   19  H8  UNL     1      26.350   1.489  50.845  1.00  0.00     0.191 HD
BRANCH  18  20
HETATM   20  C9  UNL     1      27.271   1.864  52.807  1.00  0.00     0.185 C 
HETATM   21  S1  UNL     1      27.490   0.269  53.137  1.00  0.00    -0.040 SA
BRANCH  20  22
HETATM   22  N3  UNL     1      27.602   2.527  54.009  1.00  0.00    -0.375 N 
HETATM   23  H9  UNL     1      26.846   2.741  54.713  1.00  0.00     0.158 HD
HETATM   24  H10 UNL     1      28.608   2.630  53.847  1.00  0.00     0.158 HD
ENDBRANCH  20  22
ENDBRANCH  18  20
ENDBRANCH   2  18
TORSDOF 6
ENDMDL
MODEL 8
REMARK VINA RESULT:      -7.0      2.815      5.773
REMARK  6 active torsions:
REMARK  status: ('A' for Active; 'I' for Inactive)
REMARK    1  A    between atoms: O1_2  and  C2_3 
REMARK    2  A    between atoms: C7_8  and  C8_9 
REMARK    3  A    between atoms: C8_9  and  C10_15 
REMARK    4  A    between atoms: N1_10  and  N2_11 
REMARK    5  A    between atoms: N2_11  and  C9_12 
REMARK    6  A    between atoms: C9_12  and  N3_13 
ROOT
HETATM    1  C8  UNL     1      24.743   4.112  50.660  1.00  0.00     0.074 C 
HETATM    2  N1  UNL     1      23.630   4.847  50.705  1.00  0.00    -0.176 NA
ENDROOT
BRANCH   1   3
HETATM    3  C7  UNL     1      25.290   2.844  51.158  1.00  0.00     0.083 C 
HETATM    4  C6  UNL     1      25.152   1.751  51.880  1.00  0.00    -0.063 A 
HETATM    5  C5  UNL     1      26.451   1.074  51.662  1.00  0.00     0.004 A 
HETATM    6  C16 UNL     1      24.193   1.010  52.785  1.00  0.00     0.099 A 
HETATM    7  C4  UNL     1      26.815  -0.101  52.192  1.00  0.00     0.003 A 
HETATM    8  C3  UNL     1      25.907  -0.855  53.082  1.00  0.00     0.032 A 
HETATM    9  C2  UNL     1      24.763  -0.227  53.255  1.00  0.00     0.049 A 
BRANCH   9  10
HETATM   10  O1  UNL     1      23.757  -0.783  54.072  1.00  0.00    -0.360 OA
HETATM   11  C1  UNL     1      22.446  -1.020  53.547  1.00  0.00     0.209 C 
ENDBRANCH   9  10
ENDBRANCH   1   3
BRANCH   1  12
HETATM   12  C10 UNL     1      25.790   4.766  49.847  1.00  0.00    -0.009 A 
HETATM   13  C11 UNL     1      26.939   4.190  49.304  1.00  0.00     0.013 A 
HETATM   14  C12 UNL     1      27.888   4.832  48.555  1.00  0.00     0.001 A 
HETATM   15  C13 UNL     1      27.713   6.168  48.297  1.00  0.00     0.000 A 
HETATM   16  C14 UNL     1      26.616   6.846  48.780  1.00  0.00     0.001 A 
HETATM   17  C15 UNL     1      25.732   6.098  49.520  1.00  0.00     0.013 A 
ENDBRANCH   1  12
BRANCH   2  18
HETATM   18  N2  UNL     1      22.535   4.410  51.414  1.00  0.00    -0.253 N 
HETATM   19  H8  UNL     1      22.748   4.731  52.371  1.00  0.00     0.191 HD
BRANCH  18  20
HETATM   20  C9  UNL     1      21.373   3.698  50.999  1.00  0.00     0.185 C 
HETATM   21  S1  UNL     1      20.477   3.073  52.227  1.00  0.00    -0.040 SA
BRANCH  20  22
HETATM   22  N3  UNL     1      20.685   3.320  49.825  1.00  0.00    -0.375 N 
HETATM   23  H9  UNL     1      21.128   3.487  48.882  1.00  0.00     0.158 HD
HETATM   24  H10 UNL     1      19.842   2.940  50.266  1.00  0.00     0.158 HD
ENDBRANCH  20  22
ENDBRANCH  18  20
ENDBRANCH   2  18
TORSDOF 6
ENDMDL
MODEL 9
REMARK VINA RESULT:      -6.9      1.643      2.493
REMARK  6 active torsions:
REMARK  status: ('A' for Active; 'I' for Inactive)
REMARK    1  A    between atoms: O1_2  and  C2_3 
REMARK    2  A    between atoms: C7_8  and  C8_9 
REMARK    3  A    between atoms: C8_9  and  C10_15 
REMARK    4  A    between atoms: N1_10  and  N2_11 
REMARK    5  A    between atoms: N2_11  and  C9_12 
REMARK    6  A    between atoms: C9_12  and  N3_13 
ROOT
HETATM    1  C8  UNL     1      26.236   2.459  51.464  1.00  0.00     0.074 C 
HETATM    2  N1  UNL     1      27.057   3.169  50.688  1.00  0.00    -0.176 NA
ENDROOT
BRANCH   1   3
HETATM    3  C7  UNL     1      24.810   2.319  51.784  1.00  0.00     0.083 C 
HETATM    4  C6  UNL     1      23.840   1.672  52.396  1.00  0.00    -0.063 A 
HETATM    5  C5  UNL     1      22.651   2.466  52.012  1.00  0.00     0.004 A 
HETATM    6  C16 UNL     1      23.550   0.485  53.288  1.00  0.00     0.099 A 
HETATM    7  C4  UNL     1      21.391   2.213  52.388  1.00  0.00     0.003 A 
HETATM    8  C3  UNL     1      21.066   1.063  53.257  1.00  0.00     0.032 A 
HETATM    9  C2  UNL     1      22.143   0.378  53.580  1.00  0.00     0.049 A 
BRANCH   9  10
HETATM   10  O1  UNL     1      22.047  -0.761  54.407  1.00  0.00    -0.360 OA
HETATM   11  C1  UNL     1      20.907  -1.624  54.320  1.00  0.00     0.209 C 
ENDBRANCH   9  10
ENDBRANCH   1   3
BRANCH   1  12
HETATM   12  C10 UNL     1      26.980   1.483  52.288  1.00  0.00    -0.009 A 
HETATM   13  C11 UNL     1      27.855   1.743  53.344  1.00  0.00     0.013 A 
HETATM   14  C12 UNL     1      28.527   0.809  54.084  1.00  0.00     0.001 A 
HETATM   15  C13 UNL     1      28.338  -0.516  53.780  1.00  0.00     0.000 A 
HETATM   16  C14 UNL     1      27.497  -0.896  52.758  1.00  0.00     0.001 A 
HETATM   17  C15 UNL     1      26.877   0.130  52.085  1.00  0.00     0.013 A 
ENDBRANCH   1  12
BRANCH   2  18
HETATM   18  N2  UNL     1      26.557   4.133  49.843  1.00  0.00    -0.253 N 
HETATM   19  H8  UNL     1      27.409   4.484  49.379  1.00  0.00     0.191 HD
BRANCH  18  20
HETATM   20  C9  UNL     1      25.224   4.580  49.615  1.00  0.00     0.185 C 
HETATM   21  S1  UNL     1      24.871   6.045  50.271  1.00  0.00    -0.040 SA
BRANCH  20  22
HETATM   22  N3  UNL     1      24.029   4.173  48.982  1.00  0.00    -0.375 N 
HETATM   23  H9  UNL     1      23.321   4.897  48.686  1.00  0.00     0.158 HD
HETATM   24  H10 UNL     1      24.199   3.163  48.984  1.00  0.00     0.158 HD
ENDBRANCH  20  22
ENDBRANCH  18  20
ENDBRANCH   2  18
TORSDOF 6
ENDMDL
