MODEL 1
REMARK VINA RESULT:      -9.3      0.000      0.000
REMARK  1 active torsions:
REMARK  status: ('A' for Active; 'I' for Inactive)
REMARK    1  A    between atoms: C4_5  and  C5_6 
ROOT
HETATM    1  C5  UNL     1      24.294   1.832  52.443  1.00  0.00     0.014 C 
HETATM    2  C6  UNL     1      23.198   1.101  53.188  1.00  0.00     0.044 C 
HETATM    3  C7  UNL     1      22.419   0.268  52.214  1.00  0.00    -0.014 C 
HETATM    4  C8  UNL     1      21.901   0.982  51.230  1.00  0.00    -0.032 C 
HETATM    5  C9  UNL     1      22.594   1.965  50.729  1.00  0.00     0.011 C 
HETATM    6  C10 UNL     1      24.080   1.819  50.977  1.00  0.00     0.119 C 
HETATM    7  N1  UNL     1      24.825   2.843  50.248  1.00  0.00    -0.381 N 
HETATM    8  C11 UNL     1      24.540   4.251  50.374  1.00  0.00     0.032 C 
HETATM    9  C12 UNL     1      23.900   4.880  51.356  1.00  0.00    -0.051 C 
HETATM   10  C13 UNL     1      23.564   6.309  51.568  1.00  0.00     0.063 C 
HETATM   11  C14 UNL     1      23.320   7.074  50.306  1.00  0.00     0.178 C 
HETATM   12  O1  UNL     1      24.442   7.178  49.482  1.00  0.00    -0.363 OA
HETATM   13  C15 UNL     1      25.077   6.136  48.780  1.00  0.00     0.137 C 
HETATM   14  C16 UNL     1      25.117   4.871  49.168  1.00  0.00     0.053 C 
HETATM   15  C17 UNL     1      23.343   4.176  52.568  1.00  0.00     0.038 C 
HETATM   16  C18 UNL     1      24.370   3.210  53.048  1.00  0.00     0.021 C 
HETATM   17  H8  UNL     1      25.624   2.648  49.573  1.00  0.00     0.160 HD
ENDROOT
BRANCH   1  18
HETATM   18  C4  UNL     1      25.559   1.135  52.770  1.00  0.00    -0.045 A 
HETATM   19  C3  UNL     1      26.597   1.833  53.364  1.00  0.00     0.010 A 
HETATM   20  C2  UNL     1      27.810   1.307  53.722  1.00  0.00     0.026 A 
HETATM   21  C1  UNL     1      28.055  -0.026  53.488  1.00  0.00     0.055 A 
HETATM   22 CL1  UNL     1      29.570  -0.771  53.912  1.00  0.00    -0.083 Cl
HETATM   23  C20 UNL     1      27.063  -0.779  52.897  1.00  0.00     0.056 A 
HETATM   24  C19 UNL     1      25.878  -0.172  52.570  1.00  0.00     0.033 A 
HETATM   25 CL2  UNL     1      27.347  -2.477  52.586  1.00  0.00    -0.083 Cl
ENDBRANCH   1  18
TORSDOF 1
ENDMDL
MODEL 2
REMARK VINA RESULT:      -9.2      0.611      1.422
REMARK  1 active torsions:
REMARK  status: ('A' for Active; 'I' for Inactive)
REMARK    1  A    between atoms: C4_5  and  C5_6 
ROOT
HETATM    1  C5  UNL     1      24.445   1.839  52.513  1.00  0.00     0.014 C 
HETATM    2  C6  UNL     1      23.383   1.093  53.291  1.00  0.00     0.044 C 
HETATM    3  C7  UNL     1      22.603   0.229  52.345  1.00  0.00    -0.014 C 
HETATM    4  C8  UNL     1      22.048   0.918  51.364  1.00  0.00    -0.032 C 
HETATM    5  C9  UNL     1      22.706   1.910  50.835  1.00  0.00     0.011 C 
HETATM    6  C10 UNL     1      24.200   1.801  51.053  1.00  0.00     0.119 C 
HETATM    7  N1  UNL     1      24.905   2.833  50.294  1.00  0.00    -0.381 N 
HETATM    8  C11 UNL     1      24.590   4.235  50.409  1.00  0.00     0.032 C 
HETATM    9  C12 UNL     1      23.957   4.862  51.396  1.00  0.00    -0.051 C 
HETATM   10  C13 UNL     1      23.592   6.286  51.597  1.00  0.00     0.063 C 
HETATM   11  C14 UNL     1      23.304   7.028  50.331  1.00  0.00     0.178 C 
HETATM   12  O1  UNL     1      24.404   7.147  49.481  1.00  0.00    -0.363 OA
HETATM   13  C15 UNL     1      25.048   6.111  48.780  1.00  0.00     0.137 C 
HETATM   14  C16 UNL     1      25.127   4.853  49.183  1.00  0.00     0.053 C 
HETATM   15  C17 UNL     1      23.443   4.162  52.629  1.00  0.00     0.038 C 
HETATM   16  C18 UNL     1      24.502   3.227  53.098  1.00  0.00     0.021 C 
HETATM   17  H8  UNL     1      25.694   2.648  49.605  1.00  0.00     0.160 HD
ENDROOT
BRANCH   1  18
HETATM   18  C4  UNL     1      25.733   1.176  52.821  1.00  0.00    -0.045 A 
HETATM   19  C3  UNL     1      25.925  -0.151  52.475  1.00  0.00     0.010 A 
HETATM   20  C2  UNL     1      27.067  -0.875  52.695  1.00  0.00     0.026 A 
HETATM   21  C1  UNL     1      28.136  -0.266  53.310  1.00  0.00     0.055 A 
HETATM   22 CL1  UNL     1      29.621  -1.117  53.625  1.00  0.00    -0.083 Cl
HETATM   23  C20 UNL     1      28.011   1.055  53.680  1.00  0.00     0.056 A 
HETATM   24  C19 UNL     1      26.832   1.706  53.422  1.00  0.00     0.033 A 
HETATM   25 CL2  UNL     1      29.355   1.856  54.465  1.00  0.00    -0.083 Cl
ENDBRANCH   1  18
TORSDOF 1
ENDMDL
MODEL 3
REMARK VINA RESULT:      -8.9      3.525      6.208
REMARK  1 active torsions:
REMARK  status: ('A' for Active; 'I' for Inactive)
REMARK    1  A    between atoms: C4_5  and  C5_6 
ROOT
HETATM    1  C5  UNL     1      24.815   1.844  52.620  1.00  0.00     0.014 C 
HETATM    2  C6  UNL     1      24.547   3.288  52.254  1.00  0.00     0.044 C 
HETATM    3  C7  UNL     1      24.734   3.457  50.775  1.00  0.00    -0.014 C 
HETATM    4  C8  UNL     1      25.940   3.102  50.369  1.00  0.00    -0.032 C 
HETATM    5  C9  UNL     1      26.510   2.063  50.910  1.00  0.00     0.011 C 
HETATM    6  C10 UNL     1      25.514   1.112  51.538  1.00  0.00     0.119 C 
HETATM    7  N1  UNL     1      26.179  -0.115  51.971  1.00  0.00    -0.381 N 
HETATM    8  C11 UNL     1      27.327  -0.112  52.843  1.00  0.00     0.032 C 
HETATM    9  C12 UNL     1      27.735   0.846  53.669  1.00  0.00    -0.051 C 
HETATM   10  C13 UNL     1      28.892   0.936  54.594  1.00  0.00     0.063 C 
HETATM   11  C14 UNL     1      30.103   0.190  54.133  1.00  0.00     0.178 C 
HETATM   12  O1  UNL     1      29.923  -1.191  54.057  1.00  0.00    -0.363 OA
HETATM   13  C15 UNL     1      29.096  -1.889  53.157  1.00  0.00     0.137 C 
HETATM   14  C16 UNL     1      27.974  -1.421  52.634  1.00  0.00     0.053 C 
HETATM   15  C17 UNL     1      27.013   2.159  53.838  1.00  0.00     0.038 C 
HETATM   16  C18 UNL     1      25.556   1.871  53.932  1.00  0.00     0.021 C 
HETATM   17  H8  UNL     1      25.886  -1.098  51.687  1.00  0.00     0.160 HD
ENDROOT
BRANCH   1  18
HETATM   18  C4  UNL     1      23.493   1.223  52.870  1.00  0.00    -0.045 A 
HETATM   19  C3  UNL     1      22.348   1.811  52.362  1.00  0.00     0.010 A 
HETATM   20  C2  UNL     1      21.072   1.336  52.513  1.00  0.00     0.026 A 
HETATM   21  C1  UNL     1      20.872   0.177  53.226  1.00  0.00     0.055 A 
HETATM   22 CL1  UNL     1      19.283  -0.492  53.465  1.00  0.00    -0.083 Cl
HETATM   23  C20 UNL     1      21.971  -0.460  53.761  1.00  0.00     0.056 A 
HETATM   24  C19 UNL     1      23.213   0.086  53.561  1.00  0.00     0.033 A 
HETATM   25 CL2  UNL     1      21.747  -1.935  54.674  1.00  0.00    -0.083 Cl
ENDBRANCH   1  18
TORSDOF 1
ENDMDL
MODEL 4
REMARK VINA RESULT:      -8.4      3.721      6.412
REMARK  1 active torsions:
REMARK  status: ('A' for Active; 'I' for Inactive)
REMARK    1  A    between atoms: C4_5  and  C5_6 
ROOT
HETATM    1  C5  UNL     1      24.270   5.406  49.425  1.00  0.00     0.014 C 
HETATM    2  C6  UNL     1      23.381   6.406  48.719  1.00  0.00     0.044 C 
HETATM    3  C7  UNL     1      22.938   7.446  49.707  1.00  0.00    -0.014 C 
HETATM    4  C8  UNL     1      22.305   6.927  50.744  1.00  0.00    -0.032 C 
HETATM    5  C9  UNL     1      22.720   5.796  51.239  1.00  0.00     0.011 C 
HETATM    6  C10 UNL     1      24.166   5.506  50.900  1.00  0.00     0.119 C 
HETATM    7  N1  UNL     1      24.635   4.324  51.621  1.00  0.00    -0.381 N 
HETATM    8  C11 UNL     1      23.953   3.056  51.562  1.00  0.00     0.032 C 
HETATM    9  C12 UNL     1      23.097   2.619  50.643  1.00  0.00    -0.051 C 
HETATM   10  C13 UNL     1      22.353   1.343  50.503  1.00  0.00     0.063 C 
HETATM   11  C14 UNL     1      21.987   0.703  51.804  1.00  0.00     0.178 C 
HETATM   12  O1  UNL     1      23.084   0.296  52.565  1.00  0.00    -0.363 OA
HETATM   13  C15 UNL     1      24.035   1.125  53.190  1.00  0.00     0.137 C 
HETATM   14  C16 UNL     1      24.408   2.318  52.755  1.00  0.00     0.053 C 
HETATM   15  C17 UNL     1      22.684   3.431  49.441  1.00  0.00     0.038 C 
HETATM   16  C18 UNL     1      23.909   4.053  48.868  1.00  0.00     0.021 C 
HETATM   17  H8  UNL     1      25.500   4.294  52.240  1.00  0.00     0.160 HD
ENDROOT
BRANCH   1  18
HETATM   18  C4  UNL     1      25.657   5.704  49.000  1.00  0.00    -0.045 A 
HETATM   19  C3  UNL     1      26.605   4.696  48.987  1.00  0.00     0.010 A 
HETATM   20  C2  UNL     1      27.915   4.838  48.609  1.00  0.00     0.026 A 
HETATM   21  C1  UNL     1      28.362   6.073  48.202  1.00  0.00     0.055 A 
HETATM   22 CL1  UNL     1      30.010   6.336  47.707  1.00  0.00    -0.083 Cl
HETATM   23  C20 UNL     1      27.468   7.121  48.192  1.00  0.00     0.056 A 
HETATM   24  C19 UNL     1      26.175   6.891  48.586  1.00  0.00     0.033 A 
HETATM   25 CL2  UNL     1      28.009   8.704  47.679  1.00  0.00    -0.083 Cl
ENDBRANCH   1  18
TORSDOF 1
ENDMDL
MODEL 5
REMARK VINA RESULT:      -8.2      2.215      3.204
REMARK  1 active torsions:
REMARK  status: ('A' for Active; 'I' for Inactive)
REMARK    1  A    between atoms: C4_5  and  C5_6 
ROOT
HETATM    1  C5  UNL     1      22.185   2.286  50.777  1.00  0.00     0.014 C 
HETATM    2  C6  UNL     1      21.097   1.500  50.077  1.00  0.00     0.044 C 
HETATM    3  C7  UNL     1      21.616   1.027  48.751  1.00  0.00    -0.014 C 
HETATM    4  C8  UNL     1      22.027   2.019  47.980  1.00  0.00    -0.032 C 
HETATM    5  C9  UNL     1      22.653   3.024  48.523  1.00  0.00     0.011 C 
HETATM    6  C10 UNL     1      23.279   2.673  49.855  1.00  0.00     0.119 C 
HETATM    7  N1  UNL     1      24.114   3.772  50.336  1.00  0.00    -0.381 N 
HETATM    8  C11 UNL     1      23.623   5.120  50.473  1.00  0.00     0.032 C 
HETATM    9  C12 UNL     1      22.363   5.535  50.573  1.00  0.00    -0.051 C 
HETATM   10  C13 UNL     1      21.770   6.887  50.716  1.00  0.00     0.063 C 
HETATM   11  C14 UNL     1      22.552   7.972  50.045  1.00  0.00     0.178 C 
HETATM   12  O1  UNL     1      23.822   8.173  50.587  1.00  0.00    -0.363 OA
HETATM   13  C15 UNL     1      24.916   7.290  50.532  1.00  0.00     0.137 C 
HETATM   14  C16 UNL     1      24.827   5.970  50.483  1.00  0.00     0.053 C 
HETATM   15  C17 UNL     1      21.179   4.602  50.565  1.00  0.00     0.038 C 
HETATM   16  C18 UNL     1      21.500   3.448  51.450  1.00  0.00     0.021 C 
HETATM   17  H8  UNL     1      25.136   3.679  50.619  1.00  0.00     0.160 HD
ENDROOT
BRANCH   1  18
HETATM   18  C4  UNL     1      22.717   1.408  51.844  1.00  0.00    -0.045 A 
HETATM   19  C3  UNL     1      24.085   1.269  52.003  1.00  0.00     0.010 A 
HETATM   20  C2  UNL     1      24.703   0.497  52.952  1.00  0.00     0.026 A 
HETATM   21  C1  UNL     1      23.931  -0.216  53.840  1.00  0.00     0.055 A 
HETATM   22 CL1  UNL     1      24.639  -1.219  55.073  1.00  0.00    -0.083 Cl
HETATM   23  C20 UNL     1      22.560  -0.121  53.735  1.00  0.00     0.056 A 
HETATM   24  C19 UNL     1      22.024   0.674  52.756  1.00  0.00     0.033 A 
HETATM   25 CL2  UNL     1      21.553  -1.017  54.851  1.00  0.00    -0.083 Cl
ENDBRANCH   1  18
TORSDOF 1
ENDMDL
MODEL 6
REMARK VINA RESULT:      -8.2      2.169      3.143
REMARK  1 active torsions:
REMARK  status: ('A' for Active; 'I' for Inactive)
REMARK    1  A    between atoms: C4_5  and  C5_6 
ROOT
HETATM    1  C5  UNL     1      23.460   3.598  51.017  1.00  0.00     0.014 C 
HETATM    2  C6  UNL     1      21.959   3.778  51.086  1.00  0.00     0.044 C 
HETATM    3  C7  UNL     1      21.348   3.269  49.814  1.00  0.00    -0.014 C 
HETATM    4  C8  UNL     1      21.829   3.871  48.740  1.00  0.00    -0.032 C 
HETATM    5  C9  UNL     1      23.096   4.170  48.696  1.00  0.00     0.011 C 
HETATM    6  C10 UNL     1      23.928   3.327  49.638  1.00  0.00     0.119 C 
HETATM    7  N1  UNL     1      25.353   3.574  49.424  1.00  0.00    -0.381 N 
HETATM    8  C11 UNL     1      25.928   4.896  49.463  1.00  0.00     0.032 C 
HETATM    9  C12 UNL     1      25.438   5.994  50.031  1.00  0.00    -0.051 C 
HETATM   10  C13 UNL     1      25.954   7.382  50.121  1.00  0.00     0.063 C 
HETATM   11  C14 UNL     1      26.772   7.807  48.943  1.00  0.00     0.178 C 
HETATM   12  O1  UNL     1      27.957   7.087  48.786  1.00  0.00    -0.363 OA
HETATM   13  C15 UNL     1      28.082   5.729  48.438  1.00  0.00     0.137 C 
HETATM   14  C16 UNL     1      27.203   4.783  48.732  1.00  0.00     0.053 C 
HETATM   15  C17 UNL     1      24.126   6.030  50.773  1.00  0.00     0.038 C 
HETATM   16  C18 UNL     1      24.063   4.826  51.648  1.00  0.00     0.021 C 
HETATM   17  H8  UNL     1      26.077   2.821  49.222  1.00  0.00     0.160 HD
ENDROOT
BRANCH   1  18
HETATM   18  C4  UNL     1      23.784   2.446  51.890  1.00  0.00    -0.045 A 
HETATM   19  C3  UNL     1      25.004   2.399  52.542  1.00  0.00     0.010 A 
HETATM   20  C2  UNL     1      25.422   1.399  53.381  1.00  0.00     0.026 A 
HETATM   21  C1  UNL     1      24.585   0.334  53.619  1.00  0.00     0.055 A 
HETATM   22 CL1  UNL     1      25.041  -0.976  54.670  1.00  0.00    -0.083 Cl
HETATM   23  C20 UNL     1      23.354   0.319  52.999  1.00  0.00     0.056 A 
HETATM   24  C19 UNL     1      23.016   1.362  52.175  1.00  0.00     0.033 A 
HETATM   25 CL2  UNL     1      22.268  -1.023  53.283  1.00  0.00    -0.083 Cl
ENDBRANCH   1  18
TORSDOF 1
ENDMDL
MODEL 7
REMARK VINA RESULT:      -8.0      3.000      4.937
REMARK  1 active torsions:
REMARK  status: ('A' for Active; 'I' for Inactive)
REMARK    1  A    between atoms: C4_5  and  C5_6 
ROOT
HETATM    1  C5  UNL     1      23.706   1.962  51.595  1.00  0.00     0.014 C 
HETATM    2  C6  UNL     1      24.588   0.785  51.954  1.00  0.00     0.044 C 
HETATM    3  C7  UNL     1      24.957   0.879  53.405  1.00  0.00    -0.014 C 
HETATM    4  C8  UNL     1      25.566   2.012  53.706  1.00  0.00    -0.032 C 
HETATM    5  C9  UNL     1      25.170   3.114  53.136  1.00  0.00     0.011 C 
HETATM    6  C10 UNL     1      23.749   3.028  52.622  1.00  0.00     0.119 C 
HETATM    7  N1  UNL     1      23.293   4.336  52.156  1.00  0.00    -0.381 N 
HETATM    8  C11 UNL     1      24.019   5.111  51.181  1.00  0.00     0.032 C 
HETATM    9  C12 UNL     1      24.924   4.694  50.301  1.00  0.00    -0.051 C 
HETATM   10  C13 UNL     1      25.715   5.413  49.272  1.00  0.00     0.063 C 
HETATM   11  C14 UNL     1      26.052   6.824  49.634  1.00  0.00     0.178 C 
HETATM   12  O1  UNL     1      24.940   7.659  49.755  1.00  0.00    -0.363 OA
HETATM   13  C15 UNL     1      23.938   7.598  50.742  1.00  0.00     0.137 C 
HETATM   14  C16 UNL     1      23.542   6.495  51.357  1.00  0.00     0.053 C 
HETATM   15  C17 UNL     1      25.356   3.255  50.173  1.00  0.00     0.038 C 
HETATM   16  C18 UNL     1      24.134   2.406  50.220  1.00  0.00     0.021 C 
HETATM   17  H8  UNL     1      22.406   4.823  52.486  1.00  0.00     0.160 HD
ENDROOT
BRANCH   1  18
HETATM   18  C4  UNL     1      22.328   1.433  51.481  1.00  0.00    -0.045 A 
HETATM   19  C3  UNL     1      21.614   1.616  50.309  1.00  0.00     0.010 A 
HETATM   20  C2  UNL     1      20.339   1.172  50.073  1.00  0.00     0.026 A 
HETATM   21  C1  UNL     1      19.680   0.479  51.062  1.00  0.00     0.055 A 
HETATM   22 CL1  UNL     1      18.061  -0.119  50.842  1.00  0.00    -0.083 Cl
HETATM   23  C20 UNL     1      20.335   0.261  52.255  1.00  0.00     0.056 A 
HETATM   24  C19 UNL     1      21.610   0.742  52.407  1.00  0.00     0.033 A 
HETATM   25 CL2  UNL     1      19.521  -0.616  53.531  1.00  0.00    -0.083 Cl
ENDBRANCH   1  18
TORSDOF 1
ENDMDL
MODEL 8
REMARK VINA RESULT:      -7.8      2.185      4.069
REMARK  1 active torsions:
REMARK  status: ('A' for Active; 'I' for Inactive)
REMARK    1  A    between atoms: C4_5  and  C5_6 
ROOT
HETATM    1  C5  UNL     1      25.470   3.694  50.040  1.00  0.00     0.014 C 
HETATM    2  C6  UNL     1      26.523   3.318  49.021  1.00  0.00     0.044 C 
HETATM    3  C7  UNL     1      27.532   4.425  48.932  1.00  0.00    -0.014 C 
HETATM    4  C8  UNL     1      26.988   5.587  48.616  1.00  0.00    -0.032 C 
HETATM    5  C9  UNL     1      25.827   5.900  49.116  1.00  0.00     0.011 C 
HETATM    6  C10 UNL     1      25.512   5.135  50.383  1.00  0.00     0.119 C 
HETATM    7  N1  UNL     1      24.289   5.646  51.000  1.00  0.00    -0.381 N 
HETATM    8  C11 UNL     1      23.043   5.753  50.283  1.00  0.00     0.032 C 
HETATM    9  C12 UNL     1      22.668   5.118  49.176  1.00  0.00    -0.051 C 
HETATM   10  C13 UNL     1      21.419   5.166  48.377  1.00  0.00     0.063 C 
HETATM   11  C14 UNL     1      20.736   6.496  48.389  1.00  0.00     0.178 C 
HETATM   12  O1  UNL     1      20.269   6.882  49.647  1.00  0.00    -0.363 OA
HETATM   13  C15 UNL     1      21.045   7.220  50.771  1.00  0.00     0.137 C 
HETATM   14  C16 UNL     1      22.244   6.731  51.044  1.00  0.00     0.053 C 
HETATM   15  C17 UNL     1      23.540   4.120  48.457  1.00  0.00     0.038 C 
HETATM   16  C18 UNL     1      24.152   3.227  49.479  1.00  0.00     0.021 C 
HETATM   17  H8  UNL     1      24.210   5.978  52.008  1.00  0.00     0.160 HD
ENDROOT
BRANCH   1  18
HETATM   18  C4  UNL     1      25.749   2.885  51.249  1.00  0.00    -0.045 A 
HETATM   19  C3  UNL     1      24.699   2.360  51.983  1.00  0.00     0.010 A 
HETATM   20  C2  UNL     1      24.821   1.591  53.111  1.00  0.00     0.026 A 
HETATM   21  C1  UNL     1      26.077   1.293  53.584  1.00  0.00     0.055 A 
HETATM   22 CL1  UNL     1      26.317   0.324  55.009  1.00  0.00    -0.083 Cl
HETATM   23  C20 UNL     1      27.167   1.786  52.898  1.00  0.00     0.056 A 
HETATM   24  C19 UNL     1      26.955   2.548  51.778  1.00  0.00     0.033 A 
HETATM   25 CL2  UNL     1      28.778   1.424  53.478  1.00  0.00    -0.083 Cl
ENDBRANCH   1  18
TORSDOF 1
ENDMDL
MODEL 9
REMARK VINA RESULT:      -7.8      2.788      3.550
REMARK  1 active torsions:
REMARK  status: ('A' for Active; 'I' for Inactive)
REMARK    1  A    between atoms: C4_5  and  C5_6 
ROOT
HETATM    1  C5  UNL     1      21.842   1.196  52.644  1.00  0.00     0.014 C 
HETATM    2  C6  UNL     1      21.027   0.881  53.879  1.00  0.00     0.044 C 
HETATM    3  C7  UNL     1      20.261  -0.388  53.646  1.00  0.00    -0.014 C 
HETATM    4  C8  UNL     1      19.474  -0.322  52.588  1.00  0.00    -0.032 C 
HETATM    5  C9  UNL     1      19.891   0.307  51.526  1.00  0.00     0.011 C 
HETATM    6  C10 UNL     1      21.400   0.413  51.466  1.00  0.00     0.119 C 
HETATM    7  N1  UNL     1      21.824   0.963  50.180  1.00  0.00    -0.381 N 
HETATM    8  C11 UNL     1      21.319   2.210  49.662  1.00  0.00     0.032 C 
HETATM    9  C12 UNL     1      20.745   3.209  50.326  1.00  0.00    -0.051 C 
HETATM   10  C13 UNL     1      20.200   4.515  49.881  1.00  0.00     0.063 C 
HETATM   11  C14 UNL     1      19.625   4.500  48.501  1.00  0.00     0.178 C 
HETATM   12  O1  UNL     1      20.562   4.241  47.500  1.00  0.00    -0.363 OA
HETATM   13  C15 UNL     1      21.250   3.034  47.275  1.00  0.00     0.137 C 
HETATM   14  C16 UNL     1      21.576   2.157  48.212  1.00  0.00     0.053 C 
HETATM   15  C17 UNL     1      20.524   3.196  51.818  1.00  0.00     0.038 C 
HETATM   16  C18 UNL     1      21.769   2.690  52.460  1.00  0.00     0.021 C 
HETATM   17  H8  UNL     1      22.526   0.504  49.525  1.00  0.00     0.160 HD
ENDROOT
BRANCH   1  18
HETATM   18  C4  UNL     1      23.246   0.858  52.970  1.00  0.00    -0.045 A 
HETATM   19  C3  UNL     1      23.576  -0.434  53.340  1.00  0.00     0.010 A 
HETATM   20  C2  UNL     1      24.833  -0.877  53.657  1.00  0.00     0.026 A 
HETATM   21  C1  UNL     1      25.884   0.009  53.616  1.00  0.00     0.055 A 
HETATM   22 CL1  UNL     1      27.509  -0.474  54.005  1.00  0.00    -0.083 Cl
HETATM   23  C20 UNL     1      25.624   1.314  53.255  1.00  0.00     0.056 A 
HETATM   24  C19 UNL     1      24.335   1.673  52.953  1.00  0.00     0.033 A 
HETATM   25 CL2  UNL     1      26.941   2.464  53.195  1.00  0.00    -0.083 Cl
ENDBRANCH   1  18
TORSDOF 1
ENDMDL
