MODEL 1
REMARK VINA RESULT:      -8.3      0.000      0.000
REMARK  5 active torsions:
REMARK  status: ('A' for Active; 'I' for Inactive)
REMARK    1  A    between atoms: C2_2  and  C3_4 
REMARK    2  A    between atoms: C3_4  and  N1_6 
REMARK    3  A    between atoms: N1_6  and  C4_7 
REMARK    4  A    between atoms: C11_17  and  C12_18 
REMARK    5  A    between atoms: C12_18  and  O2_20 
ROOT
HETATM    1  C4  UNL     1      25.056   1.147  52.594  1.00  0.00     0.156 A 
HETATM    2  N2  UNL     1      25.054   2.007  51.561  1.00  0.00    -0.222 NA
HETATM    3  C5  UNL     1      23.931   2.282  50.852  1.00  0.00     0.236 A 
HETATM    4  N3  UNL     1      22.748   1.711  51.139  1.00  0.00    -0.239 NA
HETATM    5  C6  UNL     1      22.690   0.841  52.164  1.00  0.00     0.099 A 
HETATM    6  C7  UNL     1      23.838   0.566  52.880  1.00  0.00     0.104 A 
HETATM    7  N4  UNL     1      23.753  -0.346  53.945  1.00  0.00    -0.381 N 
HETATM    8  C8  UNL     1      22.559  -1.045  54.382  1.00  0.00     0.159 A 
HETATM    9  C9  UNL     1      21.397  -0.667  53.536  1.00  0.00    -0.027 A 
HETATM   10  C10 UNL     1      20.226  -1.308  53.911  1.00  0.00     0.028 A 
HETATM   11  C11 UNL     1      19.058  -1.041  53.196  1.00  0.00     0.038 A 
HETATM   12  C13 UNL     1      19.119  -0.146  52.143  1.00  0.00     0.019 A 
HETATM   13  C14 UNL     1      20.267   0.498  51.759  1.00  0.00     0.015 A 
HETATM   14  C15 UNL     1      21.410   0.219  52.479  1.00  0.00     0.003 A 
HETATM   15  H6  UNL     1      24.573  -0.587  54.510  1.00  0.00     0.160 HD
ENDROOT
BRANCH   1  16
HETATM   16  N1  UNL     1      26.260   0.894  53.302  1.00  0.00    -0.338 N 
HETATM   17  H4  UNL     1      26.485   1.227  54.261  1.00  0.00     0.164 HD
BRANCH  16  18
HETATM   18  C3  UNL     1      27.305   0.104  52.678  1.00  0.00     0.315 C 
HETATM   19  F1  UNL     1      26.668  -1.022  52.137  1.00  0.00    -0.221 F 
BRANCH  18  20
HETATM   20  C2  UNL     1      28.297  -0.422  53.635  1.00  0.00     0.055 C 
HETATM   21  C1  UNL     1      28.540   0.102  54.833  1.00  0.00     0.037 C 
HETATM   22 CL1  UNL     1      29.265  -1.815  53.270  1.00  0.00    -0.085 Cl
ENDBRANCH  18  20
ENDBRANCH  16  18
ENDBRANCH   1  16
BRANCH  11  23
HETATM   23  C12 UNL     1      17.793  -1.683  53.541  1.00  0.00     0.176 C 
HETATM   24  O1  UNL     1      17.707  -2.917  53.836  1.00  0.00    -0.646 OA
BRANCH  23  25
HETATM   25  O2  UNL     1      16.632  -0.923  53.553  1.00  0.00    -0.773 OA
HETATM   26  H10 UNL     1      15.793  -1.339  53.146  1.00  0.00     0.167 HD
ENDBRANCH  23  25
ENDBRANCH  11  23
TORSDOF 5
ENDMDL
MODEL 2
REMARK VINA RESULT:      -8.0      3.989      5.274
REMARK  5 active torsions:
REMARK  status: ('A' for Active; 'I' for Inactive)
REMARK    1  A    between atoms: C2_2  and  C3_4 
REMARK    2  A    between atoms: C3_4  and  N1_6 
REMARK    3  A    between atoms: N1_6  and  C4_7 
REMARK    4  A    between atoms: C11_17  and  C12_18 
REMARK    5  A    between atoms: C12_18  and  O2_20 
ROOT
HETATM    1  C4  UNL     1      25.489   3.871  49.946  1.00  0.00     0.156 A 
HETATM    2  N2  UNL     1      24.544   4.196  49.048  1.00  0.00    -0.222 NA
HETATM    3  C5  UNL     1      23.302   3.652  49.078  1.00  0.00     0.236 A 
HETATM    4  N3  UNL     1      22.938   2.754  50.011  1.00  0.00    -0.239 NA
HETATM    5  C6  UNL     1      23.845   2.391  50.936  1.00  0.00     0.099 A 
HETATM    6  C7  UNL     1      25.107   2.949  50.899  1.00  0.00     0.104 A 
HETATM    7  N4  UNL     1      26.036   2.554  51.875  1.00  0.00    -0.381 N 
HETATM    8  C8  UNL     1      25.804   1.600  52.944  1.00  0.00     0.159 A 
HETATM    9  C9  UNL     1      24.415   1.074  52.878  1.00  0.00    -0.027 A 
HETATM   10  C10 UNL     1      24.139   0.156  53.879  1.00  0.00     0.028 A 
HETATM   11  C11 UNL     1      22.868  -0.416  53.929  1.00  0.00     0.038 A 
HETATM   12  C13 UNL     1      21.937  -0.043  52.978  1.00  0.00     0.019 A 
HETATM   13  C14 UNL     1      22.192   0.863  51.981  1.00  0.00     0.015 A 
HETATM   14  C15 UNL     1      23.455   1.417  51.949  1.00  0.00     0.003 A 
HETATM   15  H6  UNL     1      26.987   2.936  51.895  1.00  0.00     0.160 HD
ENDROOT
BRANCH   1  16
HETATM   16  N1  UNL     1      26.774   4.469  49.869  1.00  0.00    -0.338 N 
HETATM   17  H4  UNL     1      27.472   4.517  50.639  1.00  0.00     0.164 HD
BRANCH  16  18
HETATM   18  C3  UNL     1      27.203   5.085  48.628  1.00  0.00     0.315 C 
HETATM   19  F1  UNL     1      28.503   4.616  48.392  1.00  0.00    -0.221 F 
BRANCH  18  20
HETATM   20  C2  UNL     1      27.319   6.553  48.706  1.00  0.00     0.055 C 
HETATM   21  C1  UNL     1      28.176   7.281  47.997  1.00  0.00     0.037 C 
HETATM   22 CL1  UNL     1      26.315   7.490  49.767  1.00  0.00    -0.085 Cl
ENDBRANCH  18  20
ENDBRANCH  16  18
ENDBRANCH   1  16
BRANCH  11  23
HETATM   23  C12 UNL     1      22.514  -1.389  54.960  1.00  0.00     0.176 C 
HETATM   24  O1  UNL     1      21.383  -1.967  55.000  1.00  0.00    -0.646 OA
BRANCH  23  25
HETATM   25  O2  UNL     1      23.447  -1.702  55.940  1.00  0.00    -0.773 OA
HETATM   26  H10 UNL     1      23.508  -1.081  56.747  1.00  0.00     0.167 HD
ENDBRANCH  23  25
ENDBRANCH  11  23
TORSDOF 5
ENDMDL
MODEL 3
REMARK VINA RESULT:      -7.8      5.141      7.008
REMARK  5 active torsions:
REMARK  status: ('A' for Active; 'I' for Inactive)
REMARK    1  A    between atoms: C2_2  and  C3_4 
REMARK    2  A    between atoms: C3_4  and  N1_6 
REMARK    3  A    between atoms: N1_6  and  C4_7 
REMARK    4  A    between atoms: C11_17  and  C12_18 
REMARK    5  A    between atoms: C12_18  and  O2_20 
ROOT
HETATM    1  C4  UNL     1      23.512   4.941  50.962  1.00  0.00     0.156 A 
HETATM    2  N2  UNL     1      22.270   4.892  51.473  1.00  0.00    -0.222 NA
HETATM    3  C5  UNL     1      21.824   3.830  52.188  1.00  0.00     0.236 A 
HETATM    4  N3  UNL     1      22.599   2.757  52.431  1.00  0.00    -0.239 NA
HETATM    5  C6  UNL     1      23.853   2.751  51.943  1.00  0.00     0.099 A 
HETATM    6  C7  UNL     1      24.299   3.837  51.216  1.00  0.00     0.104 A 
HETATM    7  N4  UNL     1      25.610   3.806  50.717  1.00  0.00    -0.381 N 
HETATM    8  C8  UNL     1      26.569   2.730  50.888  1.00  0.00     0.159 A 
HETATM    9  C9  UNL     1      25.973   1.626  51.684  1.00  0.00    -0.027 A 
HETATM   10  C10 UNL     1      26.848   0.569  51.879  1.00  0.00     0.028 A 
HETATM   11  C11 UNL     1      26.411  -0.536  52.611  1.00  0.00     0.038 A 
HETATM   12  C13 UNL     1      25.122  -0.528  53.112  1.00  0.00     0.019 A 
HETATM   13  C14 UNL     1      24.244   0.508  52.930  1.00  0.00     0.015 A 
HETATM   14  C15 UNL     1      24.695   1.590  52.203  1.00  0.00     0.003 A 
HETATM   15  H6  UNL     1      25.993   4.585  50.171  1.00  0.00     0.160 HD
ENDROOT
BRANCH   1  16
HETATM   16  N1  UNL     1      23.928   6.078  50.221  1.00  0.00    -0.338 N 
HETATM   17  H4  UNL     1      23.662   6.297  49.239  1.00  0.00     0.164 HD
BRANCH  16  18
HETATM   18  C3  UNL     1      24.803   7.055  50.841  1.00  0.00     0.315 C 
HETATM   19  F1  UNL     1      24.031   8.211  51.015  1.00  0.00    -0.221 F 
BRANCH  18  20
HETATM   20  C2  UNL     1      25.935   7.459  49.986  1.00  0.00     0.055 C 
HETATM   21  C1  UNL     1      26.649   8.568  50.154  1.00  0.00     0.037 C 
HETATM   22 CL1  UNL     1      26.452   6.491  48.642  1.00  0.00    -0.085 Cl
ENDBRANCH  18  20
ENDBRANCH  16  18
ENDBRANCH   1  16
BRANCH  11  23
HETATM   23  C12 UNL     1      27.286  -1.680  52.851  1.00  0.00     0.176 C 
HETATM   24  O1  UNL     1      28.284  -1.630  53.635  1.00  0.00    -0.646 OA
BRANCH  23  25
HETATM   25  O2  UNL     1      27.022  -2.879  52.201  1.00  0.00    -0.773 OA
HETATM   26  H10 UNL     1      27.820  -3.411  51.853  1.00  0.00     0.167 HD
ENDBRANCH  23  25
ENDBRANCH  11  23
TORSDOF 5
ENDMDL
MODEL 4
REMARK VINA RESULT:      -7.6      5.068      7.886
REMARK  5 active torsions:
REMARK  status: ('A' for Active; 'I' for Inactive)
REMARK    1  A    between atoms: C2_2  and  C3_4 
REMARK    2  A    between atoms: C3_4  and  N1_6 
REMARK    3  A    between atoms: N1_6  and  C4_7 
REMARK    4  A    between atoms: C11_17  and  C12_18 
REMARK    5  A    between atoms: C12_18  and  O2_20 
ROOT
HETATM    1  C4  UNL     1      21.361  -0.052  52.573  1.00  0.00     0.156 A 
HETATM    2  N2  UNL     1      20.886  -0.862  53.534  1.00  0.00    -0.222 NA
HETATM    3  C5  UNL     1      21.671  -1.336  54.533  1.00  0.00     0.236 A 
HETATM    4  N3  UNL     1      22.977  -1.024  54.624  1.00  0.00    -0.239 NA
HETATM    5  C6  UNL     1      23.507  -0.216  53.688  1.00  0.00     0.099 A 
HETATM    6  C7  UNL     1      22.701   0.262  52.675  1.00  0.00     0.104 A 
HETATM    7  N4  UNL     1      23.278   1.104  51.710  1.00  0.00    -0.381 N 
HETATM    8  C8  UNL     1      24.663   1.534  51.664  1.00  0.00     0.159 A 
HETATM    9  C9  UNL     1      25.423   0.955  52.803  1.00  0.00    -0.027 A 
HETATM   10  C10 UNL     1      26.757   1.335  52.808  1.00  0.00     0.028 A 
HETATM   11  C11 UNL     1      27.584   0.859  53.826  1.00  0.00     0.038 A 
HETATM   12  C13 UNL     1      27.038   0.028  54.787  1.00  0.00     0.019 A 
HETATM   13  C14 UNL     1      25.722  -0.357  54.798  1.00  0.00     0.015 A 
HETATM   14  C15 UNL     1      24.921   0.124  53.782  1.00  0.00     0.003 A 
HETATM   15  H6  UNL     1      22.726   1.488  50.936  1.00  0.00     0.160 HD
ENDROOT
BRANCH   1  16
HETATM   16  N1  UNL     1      20.496   0.416  51.550  1.00  0.00    -0.338 N 
HETATM   17  H4  UNL     1      20.779   0.680  50.585  1.00  0.00     0.164 HD
BRANCH  16  18
HETATM   18  C3  UNL     1      19.077   0.557  51.822  1.00  0.00     0.315 C 
HETATM   19  F1  UNL     1      18.464  -0.579  51.277  1.00  0.00    -0.221 F 
BRANCH  18  20
HETATM   20  C2  UNL     1      18.458   1.709  51.139  1.00  0.00     0.055 C 
HETATM   21  C1  UNL     1      17.608   1.613  50.120  1.00  0.00     0.037 C 
HETATM   22 CL1  UNL     1      18.794   3.342  51.619  1.00  0.00    -0.085 Cl
ENDBRANCH  18  20
ENDBRANCH  16  18
ENDBRANCH   1  16
BRANCH  11  23
HETATM   23  C12 UNL     1      28.997   1.223  53.887  1.00  0.00     0.176 C 
HETATM   24  O1  UNL     1      29.928   0.421  53.561  1.00  0.00    -0.646 OA
BRANCH  23  25
HETATM   25  O2  UNL     1      29.348   2.495  54.316  1.00  0.00    -0.773 OA
HETATM   26  H10 UNL     1      29.928   3.059  53.694  1.00  0.00     0.167 HD
ENDBRANCH  23  25
ENDBRANCH  11  23
TORSDOF 5
ENDMDL
MODEL 5
REMARK VINA RESULT:      -7.6      5.042      7.825
REMARK  5 active torsions:
REMARK  status: ('A' for Active; 'I' for Inactive)
REMARK    1  A    between atoms: C2_2  and  C3_4 
REMARK    2  A    between atoms: C3_4  and  N1_6 
REMARK    3  A    between atoms: N1_6  and  C4_7 
REMARK    4  A    between atoms: C11_17  and  C12_18 
REMARK    5  A    between atoms: C12_18  and  O2_20 
ROOT
HETATM    1  C4  UNL     1      20.939   0.234  53.100  1.00  0.00     0.156 A 
HETATM    2  N2  UNL     1      20.643  -0.870  53.806  1.00  0.00    -0.222 NA
HETATM    3  C5  UNL     1      21.595  -1.593  54.447  1.00  0.00     0.236 A 
HETATM    4  N3  UNL     1      22.895  -1.248  54.417  1.00  0.00    -0.239 NA
HETATM    5  C6  UNL     1      23.249  -0.150  53.724  1.00  0.00     0.099 A 
HETATM    6  C7  UNL     1      22.274   0.580  53.074  1.00  0.00     0.104 A 
HETATM    7  N4  UNL     1      22.668   1.721  52.357  1.00  0.00    -0.381 N 
HETATM    8  C8  UNL     1      24.022   2.227  52.225  1.00  0.00     0.159 A 
HETATM    9  C9  UNL     1      24.974   1.359  52.966  1.00  0.00    -0.027 A 
HETATM   10  C10 UNL     1      26.286   1.797  52.873  1.00  0.00     0.028 A 
HETATM   11  C11 UNL     1      27.282   1.069  53.525  1.00  0.00     0.038 A 
HETATM   12  C13 UNL     1      26.917  -0.060  54.236  1.00  0.00     0.019 A 
HETATM   13  C14 UNL     1      25.626  -0.507  54.340  1.00  0.00     0.015 A 
HETATM   14  C15 UNL     1      24.656   0.227  53.688  1.00  0.00     0.003 A 
HETATM   15  H6  UNL     1      21.986   2.300  51.856  1.00  0.00     0.160 HD
ENDROOT
BRANCH   1  16
HETATM   16  N1  UNL     1      19.903   0.954  52.447  1.00  0.00    -0.338 N 
HETATM   17  H4  UNL     1      19.436   1.811  52.806  1.00  0.00     0.164 HD
BRANCH  16  18
HETATM   18  C3  UNL     1      19.417   0.496  51.159  1.00  0.00     0.315 C 
HETATM   19  F1  UNL     1      19.292   1.643  50.362  1.00  0.00    -0.221 F 
BRANCH  18  20
HETATM   20  C2  UNL     1      18.067  -0.097  51.216  1.00  0.00     0.055 C 
HETATM   21  C1  UNL     1      17.219  -0.140  50.192  1.00  0.00     0.037 C 
HETATM   22 CL1  UNL     1      17.447  -0.812  52.669  1.00  0.00    -0.085 Cl
ENDBRANCH  18  20
ENDBRANCH  16  18
ENDBRANCH   1  16
BRANCH  11  23
HETATM   23  C12 UNL     1      28.682   1.479  53.466  1.00  0.00     0.176 C 
HETATM   24  O1  UNL     1      29.640   0.697  53.761  1.00  0.00    -0.646 OA
BRANCH  23  25
HETATM   25  O2  UNL     1      28.990   2.774  53.070  1.00  0.00    -0.773 OA
HETATM   26  H10 UNL     1      29.394   2.899  52.142  1.00  0.00     0.167 HD
ENDBRANCH  23  25
ENDBRANCH  11  23
TORSDOF 5
ENDMDL
MODEL 6
REMARK VINA RESULT:      -7.6      2.420      3.695
REMARK  5 active torsions:
REMARK  status: ('A' for Active; 'I' for Inactive)
REMARK    1  A    between atoms: C2_2  and  C3_4 
REMARK    2  A    between atoms: C3_4  and  N1_6 
REMARK    3  A    between atoms: N1_6  and  C4_7 
REMARK    4  A    between atoms: C11_17  and  C12_18 
REMARK    5  A    between atoms: C12_18  and  O2_20 
ROOT
HETATM    1  C4  UNL     1      25.287  -0.481  54.615  1.00  0.00     0.156 A 
HETATM    2  N2  UNL     1      24.729  -1.298  55.523  1.00  0.00    -0.222 NA
HETATM    3  C5  UNL     1      23.414  -1.630  55.484  1.00  0.00     0.236 A 
HETATM    4  N3  UNL     1      22.587  -1.162  54.532  1.00  0.00    -0.239 NA
HETATM    5  C6  UNL     1      23.093  -0.339  53.595  1.00  0.00     0.099 A 
HETATM    6  C7  UNL     1      24.432  -0.006  53.642  1.00  0.00     0.104 A 
HETATM    7  N4  UNL     1      24.935   0.855  52.654  1.00  0.00    -0.381 N 
HETATM    8  C8  UNL     1      24.181   1.444  51.563  1.00  0.00     0.159 A 
HETATM    9  C9  UNL     1      22.760   1.011  51.622  1.00  0.00    -0.027 A 
HETATM   10  C10 UNL     1      21.991   1.546  50.600  1.00  0.00     0.028 A 
HETATM   11  C11 UNL     1      20.637   1.218  50.540  1.00  0.00     0.038 A 
HETATM   12  C13 UNL     1      20.118   0.372  51.503  1.00  0.00     0.019 A 
HETATM   13  C14 UNL     1      20.863  -0.167  52.520  1.00  0.00     0.015 A 
HETATM   14  C15 UNL     1      22.200   0.171  52.561  1.00  0.00     0.003 A 
HETATM   15  H6  UNL     1      25.921   1.135  52.640  1.00  0.00     0.160 HD
ENDROOT
BRANCH   1  16
HETATM   16  N1  UNL     1      26.669  -0.165  54.702  1.00  0.00    -0.338 N 
HETATM   17  H4  UNL     1      27.159   0.199  55.543  1.00  0.00     0.164 HD
BRANCH  16  18
HETATM   18  C3  UNL     1      27.519  -0.348  53.540  1.00  0.00     0.315 C 
HETATM   19  F1  UNL     1      27.454  -1.712  53.224  1.00  0.00    -0.221 F 
BRANCH  18  20
HETATM   20  C2  UNL     1      28.943  -0.068  53.803  1.00  0.00     0.055 C 
HETATM   21  C1  UNL     1      29.931  -0.935  53.601  1.00  0.00     0.037 C 
HETATM   22 CL1  UNL     1      29.472   1.465  54.418  1.00  0.00    -0.085 Cl
ENDBRANCH  18  20
ENDBRANCH  16  18
ENDBRANCH   1  16
BRANCH  11  23
HETATM   23  C12 UNL     1      19.774   1.749  49.488  1.00  0.00     0.176 C 
HETATM   24  O1  UNL     1      18.568   2.091  49.696  1.00  0.00    -0.646 OA
BRANCH  23  25
HETATM   25  O2  UNL     1      20.284   1.890  48.204  1.00  0.00    -0.773 OA
HETATM   26  H10 UNL     1      19.658   1.687  47.424  1.00  0.00     0.167 HD
ENDBRANCH  23  25
ENDBRANCH  11  23
TORSDOF 5
ENDMDL
MODEL 7
REMARK VINA RESULT:      -7.3      3.925      5.676
REMARK  5 active torsions:
REMARK  status: ('A' for Active; 'I' for Inactive)
REMARK    1  A    between atoms: C2_2  and  C3_4 
REMARK    2  A    between atoms: C3_4  and  N1_6 
REMARK    3  A    between atoms: N1_6  and  C4_7 
REMARK    4  A    between atoms: C11_17  and  C12_18 
REMARK    5  A    between atoms: C12_18  and  O2_20 
ROOT
HETATM    1  C4  UNL     1      24.327   3.903  49.451  1.00  0.00     0.156 A 
HETATM    2  N2  UNL     1      25.668   3.980  49.438  1.00  0.00    -0.222 NA
HETATM    3  C5  UNL     1      26.443   3.231  50.262  1.00  0.00     0.236 A 
HETATM    4  N3  UNL     1      25.915   2.362  51.144  1.00  0.00    -0.239 NA
HETATM    5  C6  UNL     1      24.576   2.243  51.199  1.00  0.00     0.099 A 
HETATM    6  C7  UNL     1      23.795   3.009  50.357  1.00  0.00     0.104 A 
HETATM    7  N4  UNL     1      22.401   2.867  50.435  1.00  0.00    -0.381 N 
HETATM    8  C8  UNL     1      21.677   1.979  51.326  1.00  0.00     0.159 A 
HETATM    9  C9  UNL     1      22.624   1.213  52.177  1.00  0.00    -0.027 A 
HETATM   10  C10 UNL     1      21.984   0.347  53.050  1.00  0.00     0.028 A 
HETATM   11  C11 UNL     1      22.760  -0.434  53.907  1.00  0.00     0.038 A 
HETATM   12  C13 UNL     1      24.136  -0.310  53.849  1.00  0.00     0.019 A 
HETATM   13  C14 UNL     1      24.786   0.540  52.992  1.00  0.00     0.015 A 
HETATM   14  C15 UNL     1      24.000   1.303  52.153  1.00  0.00     0.003 A 
HETATM   15  H6  UNL     1      21.773   3.410  49.834  1.00  0.00     0.160 HD
ENDROOT
BRANCH   1  16
HETATM   16  N1  UNL     1      23.563   4.710  48.567  1.00  0.00    -0.338 N 
HETATM   17  H4  UNL     1      23.025   4.372  47.744  1.00  0.00     0.164 HD
BRANCH  16  18
HETATM   18  C3  UNL     1      23.493   6.142  48.787  1.00  0.00     0.315 C 
HETATM   19  F1  UNL     1      24.729   6.659  48.375  1.00  0.00    -0.221 F 
BRANCH  18  20
HETATM   20  C2  UNL     1      23.360   6.514  50.208  1.00  0.00     0.055 C 
HETATM   21  C1  UNL     1      24.313   7.101  50.926  1.00  0.00     0.037 C 
HETATM   22 CL1  UNL     1      21.902   6.208  51.098  1.00  0.00    -0.085 Cl
ENDBRANCH  18  20
ENDBRANCH  16  18
ENDBRANCH   1  16
BRANCH  11  23
HETATM   23  C12 UNL     1      22.146  -1.365  54.849  1.00  0.00     0.176 C 
HETATM   24  O1  UNL     1      22.806  -1.956  55.761  1.00  0.00    -0.646 OA
BRANCH  23  25
HETATM   25  O2  UNL     1      20.785  -1.622  54.754  1.00  0.00    -0.773 OA
HETATM   26  H10 UNL     1      20.243  -1.054  54.101  1.00  0.00     0.167 HD
ENDBRANCH  23  25
ENDBRANCH  11  23
TORSDOF 5
ENDMDL
MODEL 8
REMARK VINA RESULT:      -7.1      5.226      7.407
REMARK  5 active torsions:
REMARK  status: ('A' for Active; 'I' for Inactive)
REMARK    1  A    between atoms: C2_2  and  C3_4 
REMARK    2  A    between atoms: C3_4  and  N1_6 
REMARK    3  A    between atoms: N1_6  and  C4_7 
REMARK    4  A    between atoms: C11_17  and  C12_18 
REMARK    5  A    between atoms: C12_18  and  O2_20 
ROOT
HETATM    1  C4  UNL     1      23.341   4.298  51.224  1.00  0.00     0.156 A 
HETATM    2  N2  UNL     1      22.093   4.050  51.656  1.00  0.00    -0.222 NA
HETATM    3  C5  UNL     1      21.770   2.907  52.311  1.00  0.00     0.236 A 
HETATM    4  N3  UNL     1      22.680   1.951  52.570  1.00  0.00    -0.239 NA
HETATM    5  C6  UNL     1      23.947   2.147  52.161  1.00  0.00     0.099 A 
HETATM    6  C7  UNL     1      24.268   3.312  51.494  1.00  0.00     0.104 A 
HETATM    7  N4  UNL     1      25.596   3.493  51.077  1.00  0.00    -0.381 N 
HETATM    8  C8  UNL     1      26.692   2.563  51.276  1.00  0.00     0.159 A 
HETATM    9  C9  UNL     1      26.222   1.354  52.002  1.00  0.00    -0.027 A 
HETATM   10  C10 UNL     1      27.232   0.430  52.220  1.00  0.00     0.028 A 
HETATM   11  C11 UNL     1      26.922  -0.753  52.892  1.00  0.00     0.038 A 
HETATM   12  C13 UNL     1      25.620  -0.953  53.312  1.00  0.00     0.019 A 
HETATM   13  C14 UNL     1      24.609  -0.050  53.106  1.00  0.00     0.015 A 
HETATM   14  C15 UNL     1      24.936   1.113  52.439  1.00  0.00     0.003 A 
HETATM   15  H6  UNL     1      25.890   4.339  50.578  1.00  0.00     0.160 HD
ENDROOT
BRANCH   1  16
HETATM   16  N1  UNL     1      23.626   5.511  50.543  1.00  0.00    -0.338 N 
HETATM   17  H4  UNL     1      24.023   6.372  50.970  1.00  0.00     0.164 HD
BRANCH  16  18
HETATM   18  C3  UNL     1      23.358   5.612  49.120  1.00  0.00     0.315 C 
HETATM   19  F1  UNL     1      24.610   5.620  48.490  1.00  0.00    -0.221 F 
BRANCH  18  20
HETATM   20  C2  UNL     1      22.709   6.878  48.731  1.00  0.00     0.055 C 
HETATM   21  C1  UNL     1      21.575   7.335  49.254  1.00  0.00     0.037 C 
HETATM   22 CL1  UNL     1      23.387   7.914  47.517  1.00  0.00    -0.085 Cl
ENDBRANCH  18  20
ENDBRANCH  16  18
ENDBRANCH   1  16
BRANCH  11  23
HETATM   23  C12 UNL     1      27.942  -1.766  53.153  1.00  0.00     0.176 C 
HETATM   24  O1  UNL     1      29.019  -1.512  53.778  1.00  0.00    -0.646 OA
BRANCH  23  25
HETATM   25  O2  UNL     1      27.734  -3.063  52.704  1.00  0.00    -0.773 OA
HETATM   26  H10 UNL     1      28.275  -3.807  53.146  1.00  0.00     0.167 HD
ENDBRANCH  23  25
ENDBRANCH  11  23
TORSDOF 5
ENDMDL
MODEL 9
REMARK VINA RESULT:      -6.9      1.203      1.338
REMARK  5 active torsions:
REMARK  status: ('A' for Active; 'I' for Inactive)
REMARK    1  A    between atoms: C2_2  and  C3_4 
REMARK    2  A    between atoms: C3_4  and  N1_6 
REMARK    3  A    between atoms: N1_6  and  C4_7 
REMARK    4  A    between atoms: C11_17  and  C12_18 
REMARK    5  A    between atoms: C12_18  and  O2_20 
ROOT
HETATM    1  C4  UNL     1      24.204   1.526  52.252  1.00  0.00     0.156 A 
HETATM    2  N2  UNL     1      24.398   2.236  51.128  1.00  0.00    -0.222 NA
HETATM    3  C5  UNL     1      23.409   2.439  50.223  1.00  0.00     0.236 A 
HETATM    4  N3  UNL     1      22.171   1.942  50.394  1.00  0.00    -0.239 NA
HETATM    5  C6  UNL     1      21.919   1.222  51.503  1.00  0.00     0.099 A 
HETATM    6  C7  UNL     1      22.932   1.020  52.420  1.00  0.00     0.104 A 
HETATM    7  N4  UNL     1      22.645   0.265  53.568  1.00  0.00    -0.381 N 
HETATM    8  C8  UNL     1      21.368  -0.338  53.901  1.00  0.00     0.159 A 
HETATM    9  C9  UNL     1      20.365  -0.050  52.842  1.00  0.00    -0.027 A 
HETATM   10  C10 UNL     1      19.124  -0.605  53.111  1.00  0.00     0.028 A 
HETATM   11  C11 UNL     1      18.091  -0.409  52.193  1.00  0.00     0.038 A 
HETATM   12  C13 UNL     1      18.351   0.331  51.054  1.00  0.00     0.019 A 
HETATM   13  C14 UNL     1      19.572   0.887  50.773  1.00  0.00     0.015 A 
HETATM   14  C15 UNL     1      20.579   0.681  51.693  1.00  0.00     0.003 A 
HETATM   15  H6  UNL     1      23.358   0.084  54.281  1.00  0.00     0.160 HD
ENDROOT
BRANCH   1  16
HETATM   16  N1  UNL     1      25.274   1.343  53.167  1.00  0.00    -0.338 N 
HETATM   17  H4  UNL     1      25.225   1.476  54.197  1.00  0.00     0.164 HD
BRANCH  16  18
HETATM   18  C3  UNL     1      26.575   0.933  52.673  1.00  0.00     0.315 C 
HETATM   19  F1  UNL     1      26.330   0.159  51.531  1.00  0.00    -0.221 F 
BRANCH  18  20
HETATM   20  C2  UNL     1      27.307   0.050  53.602  1.00  0.00     0.055 C 
HETATM   21  C1  UNL     1      27.464   0.287  54.901  1.00  0.00     0.037 C 
HETATM   22 CL1  UNL     1      28.052  -1.421  53.063  1.00  0.00    -0.085 Cl
ENDBRANCH  18  20
ENDBRANCH  16  18
ENDBRANCH   1  16
BRANCH  11  23
HETATM   23  C12 UNL     1      16.761  -0.967  52.418  1.00  0.00     0.176 C 
HETATM   24  O1  UNL     1      16.236  -1.828  51.644  1.00  0.00    -0.646 OA
BRANCH  23  25
HETATM   25  O2  UNL     1      16.031  -0.547  53.522  1.00  0.00    -0.773 OA
HETATM   26  H10 UNL     1      15.027  -0.408  53.399  1.00  0.00     0.167 HD
ENDBRANCH  23  25
ENDBRANCH  11  23
TORSDOF 5
ENDMDL
