MODEL 1
REMARK VINA RESULT:      -7.9      0.000      0.000
REMARK  3 active torsions:
REMARK  status: ('A' for Active; 'I' for Inactive)
REMARK    1  A    between atoms: C2_3  and  N1_4 
REMARK    2  A    between atoms: N1_4  and  C3_5 
REMARK    3  A    between atoms: C9_13  and  C10_14 
ROOT
HETATM    1  O1  UNL     1      22.764  -1.358  55.500  1.00  0.00    -0.428 OA
HETATM    2  C1  UNL     1      22.755  -0.627  54.532  1.00  0.00     0.410 C 
HETATM    3  C2  UNL     1      22.853   0.319  53.417  1.00  0.00     0.156 C 
ENDROOT
BRANCH   3   4
HETATM    4  N1  UNL     1      23.943   1.237  53.575  1.00  0.00    -0.393 N 
HETATM    5  H4  UNL     1      23.740   2.242  53.741  1.00  0.00     0.159 HD
BRANCH   4   6
HETATM    6  C3  UNL     1      25.177   0.635  53.476  1.00  0.00    -0.001 A 
HETATM    7  C4  UNL     1      26.135   0.446  54.389  1.00  0.00     0.063 A 
HETATM    8  C5  UNL     1      26.842  -0.280  53.473  1.00  0.00     0.056 A 
HETATM    9  C10 UNL     1      25.996  -0.098  52.709  1.00  0.00     0.021 A 
HETATM   10  C6  UNL     1      28.066  -0.150  54.201  1.00  0.00     0.163 A 
HETATM   11  C8  UNL     1      27.886  -0.994  53.088  1.00  0.00     0.120 A 
HETATM   12  C9  UNL     1      26.909  -0.837  52.072  1.00  0.00     0.053 A 
HETATM   13  N2  UNL     1      29.369  -0.349  54.578  1.00  0.00    -0.248 NA
HETATM   14  N4  UNL     1      28.031   1.173  54.871  1.00  0.00    -0.389 N 
HETATM   15  C7  UNL     1      30.074  -1.261  53.816  1.00  0.00     0.225 A 
HETATM   16  N3  UNL     1      29.059  -1.570  52.946  1.00  0.00    -0.266 NA
HETATM   17  C14 UNL     1      28.182   2.297  53.926  1.00  0.00     0.145 C 
HETATM   18  H13 UNL     1      27.917   1.384  55.903  1.00  0.00     0.156 HD
HETATM   19  C13 UNL     1      27.328   2.225  52.722  1.00  0.00     0.007 C 
HETATM   20  C12 UNL     1      26.478   2.007  51.658  1.00  0.00    -0.013 C 
HETATM   21  C11 UNL     1      25.592   0.745  51.514  1.00  0.00     0.063 C 
HETATM   22 BR1  UNL     1      26.138   3.107  50.145  1.00  0.00    -0.056 Br
ENDBRANCH   4   6
ENDBRANCH   3   4
TORSDOF 3
ENDMDL
MODEL 2
REMARK VINA RESULT:      -6.9      2.989      4.075
REMARK  3 active torsions:
REMARK  status: ('A' for Active; 'I' for Inactive)
REMARK    1  A    between atoms: C2_3  and  N1_4 
REMARK    2  A    between atoms: N1_4  and  C3_5 
REMARK    3  A    between atoms: C9_13  and  C10_14 
ROOT
HETATM    1  O1  UNL     1      23.685   5.375  50.735  1.00  0.00    -0.428 OA
HETATM    2  C1  UNL     1      23.818   4.306  50.177  1.00  0.00     0.410 C 
HETATM    3  C2  UNL     1      23.947   2.955  49.623  1.00  0.00     0.156 C 
ENDROOT
BRANCH   3   4
HETATM    4  N1  UNL     1      23.682   1.939  50.599  1.00  0.00    -0.393 N 
HETATM    5  H4  UNL     1      22.786   1.415  50.556  1.00  0.00     0.159 HD
BRANCH   4   6
HETATM    6  C3  UNL     1      24.697   1.788  51.515  1.00  0.00    -0.001 A 
HETATM    7  C4  UNL     1      25.923   1.271  51.385  1.00  0.00     0.063 A 
HETATM    8  C5  UNL     1      26.200   1.648  52.670  1.00  0.00     0.056 A 
HETATM    9  C10 UNL     1      25.135   2.085  52.748  1.00  0.00     0.021 A 
HETATM   10  C6  UNL     1      27.313   0.757  52.773  1.00  0.00     0.163 A 
HETATM   11  C8  UNL     1      26.990   1.742  53.726  1.00  0.00     0.120 A 
HETATM   12  C9  UNL     1      25.709   2.313  53.932  1.00  0.00     0.053 A 
HETATM   13  N2  UNL     1      28.441   0.154  53.268  1.00  0.00    -0.248 NA
HETATM   14  N4  UNL     1      26.993  -0.431  51.945  1.00  0.00    -0.389 N 
HETATM   15  C7  UNL     1      28.905   0.660  54.468  1.00  0.00     0.225 A 
HETATM   16  N3  UNL     1      27.930   1.610  54.636  1.00  0.00    -0.266 NA
HETATM   17  C14 UNL     1      25.940  -1.278  52.541  1.00  0.00     0.145 C 
HETATM   18  H13 UNL     1      27.420  -0.722  51.020  1.00  0.00     0.156 HD
HETATM   19  C13 UNL     1      24.744  -0.551  53.015  1.00  0.00     0.007 C 
HETATM   20  C12 UNL     1      23.708   0.271  53.411  1.00  0.00    -0.013 C 
HETATM   21  C11 UNL     1      23.741   1.813  53.280  1.00  0.00     0.063 C 
HETATM   22 BR1  UNL     1      22.032  -0.193  54.179  1.00  0.00    -0.056 Br
ENDBRANCH   4   6
ENDBRANCH   3   4
TORSDOF 3
ENDMDL
MODEL 3
REMARK VINA RESULT:      -6.8      3.622      4.671
REMARK  3 active torsions:
REMARK  status: ('A' for Active; 'I' for Inactive)
REMARK    1  A    between atoms: C2_3  and  N1_4 
REMARK    2  A    between atoms: N1_4  and  C3_5 
REMARK    3  A    between atoms: C9_13  and  C10_14 
ROOT
HETATM    1  O1  UNL     1      22.340   6.298  49.186  1.00  0.00    -0.428 OA
HETATM    2  C1  UNL     1      22.765   6.082  50.301  1.00  0.00     0.410 C 
HETATM    3  C2  UNL     1      23.180   5.728  51.662  1.00  0.00     0.156 C 
ENDROOT
BRANCH   3   4
HETATM    4  N1  UNL     1      22.354   4.706  52.234  1.00  0.00    -0.393 N 
HETATM    5  H4  UNL     1      21.358   4.916  52.444  1.00  0.00     0.159 HD
BRANCH   4   6
HETATM    6  C3  UNL     1      23.024   3.523  52.449  1.00  0.00    -0.001 A 
HETATM    7  C4  UNL     1      24.210   3.280  53.016  1.00  0.00     0.063 A 
HETATM    8  C5  UNL     1      23.972   1.939  52.899  1.00  0.00     0.056 A 
HETATM    9  C10 UNL     1      22.954   2.185  52.414  1.00  0.00     0.021 A 
HETATM   10  C6  UNL     1      25.351   1.602  53.066  1.00  0.00     0.163 A 
HETATM   11  C8  UNL     1      24.299   0.667  53.053  1.00  0.00     0.120 A 
HETATM   12  C9  UNL     1      23.028   0.851  52.450  1.00  0.00     0.053 A 
HETATM   13  N2  UNL     1      26.481   0.847  53.256  1.00  0.00    -0.248 NA
HETATM   14  N4  UNL     1      26.141   2.706  52.468  1.00  0.00    -0.389 N 
HETATM   15  C7  UNL     1      26.270  -0.513  53.379  1.00  0.00     0.225 A 
HETATM   16  N3  UNL     1      24.907  -0.485  53.230  1.00  0.00    -0.266 NA
HETATM   17  C14 UNL     1      26.066   2.731  50.994  1.00  0.00     0.145 C 
HETATM   18  H13 UNL     1      26.724   3.439  52.963  1.00  0.00     0.156 HD
HETATM   19  C13 UNL     1      24.705   2.610  50.432  1.00  0.00     0.007 C 
HETATM   20  C12 UNL     1      23.380   2.480  50.069  1.00  0.00    -0.013 C 
HETATM   21  C11 UNL     1      22.229   2.282  51.086  1.00  0.00     0.063 C 
HETATM   22 BR1  UNL     1      22.600   2.510  48.336  1.00  0.00    -0.056 Br
ENDBRANCH   4   6
ENDBRANCH   3   4
TORSDOF 3
ENDMDL
MODEL 4
REMARK VINA RESULT:      -6.8      4.762      6.095
REMARK  3 active torsions:
REMARK  status: ('A' for Active; 'I' for Inactive)
REMARK    1  A    between atoms: C2_3  and  N1_4 
REMARK    2  A    between atoms: N1_4  and  C3_5 
REMARK    3  A    between atoms: C9_13  and  C10_14 
ROOT
HETATM    1  O1  UNL     1      21.910   3.896  44.851  1.00  0.00    -0.428 OA
HETATM    2  C1  UNL     1      21.950   3.545  46.011  1.00  0.00     0.410 C 
HETATM    3  C2  UNL     1      22.054   3.242  47.442  1.00  0.00     0.156 C 
ENDROOT
BRANCH   3   4
HETATM    4  N1  UNL     1      22.638   4.319  48.185  1.00  0.00    -0.393 N 
HETATM    5  H4  UNL     1      22.274   5.283  48.054  1.00  0.00     0.159 HD
BRANCH   4   6
HETATM    6  C3  UNL     1      23.662   3.916  49.012  1.00  0.00    -0.001 A 
HETATM    7  C4  UNL     1      23.720   2.934  49.918  1.00  0.00     0.063 A 
HETATM    8  C5  UNL     1      25.047   3.207  50.103  1.00  0.00     0.056 A 
HETATM    9  C10 UNL     1      24.961   4.046  49.316  1.00  0.00     0.021 A 
HETATM   10  C6  UNL     1      25.092   2.518  51.355  1.00  0.00     0.163 A 
HETATM   11  C8  UNL     1      26.223   3.002  50.671  1.00  0.00     0.120 A 
HETATM   12  C9  UNL     1      26.235   4.054  49.719  1.00  0.00     0.053 A 
HETATM   13  N2  UNL     1      25.598   1.930  52.486  1.00  0.00    -0.248 NA
HETATM   14  N4  UNL     1      23.763   2.689  51.990  1.00  0.00    -0.389 N 
HETATM   15  C7  UNL     1      26.974   1.974  52.611  1.00  0.00     0.225 A 
HETATM   16  N3  UNL     1      27.225   2.656  51.448  1.00  0.00    -0.266 NA
HETATM   17  C14 UNL     1      23.530   4.066  52.470  1.00  0.00     0.145 C 
HETATM   18  H13 UNL     1      23.003   1.964  52.129  1.00  0.00     0.156 HD
HETATM   19  C13 UNL     1      23.862   5.133  51.503  1.00  0.00     0.007 C 
HETATM   20  C12 UNL     1      24.225   6.004  50.496  1.00  0.00    -0.013 C 
HETATM   21  C11 UNL     1      24.825   5.547  49.144  1.00  0.00     0.063 C 
HETATM   22 BR1  UNL     1      24.105   7.900  50.446  1.00  0.00    -0.056 Br
ENDBRANCH   4   6
ENDBRANCH   3   4
TORSDOF 3
ENDMDL
MODEL 5
REMARK VINA RESULT:      -6.7      3.757      6.639
REMARK  3 active torsions:
REMARK  status: ('A' for Active; 'I' for Inactive)
REMARK    1  A    between atoms: C2_3  and  N1_4 
REMARK    2  A    between atoms: N1_4  and  C3_5 
REMARK    3  A    between atoms: C9_13  and  C10_14 
ROOT
HETATM    1  O1  UNL     1      28.175   2.403  54.207  1.00  0.00    -0.428 OA
HETATM    2  C1  UNL     1      27.337   2.127  53.375  1.00  0.00     0.410 C 
HETATM    3  C2  UNL     1      26.297   1.927  52.360  1.00  0.00     0.156 C 
ENDROOT
BRANCH   3   4
HETATM    4  N1  UNL     1      25.700   3.160  51.943  1.00  0.00    -0.393 N 
HETATM    5  H4  UNL     1      26.311   3.952  51.662  1.00  0.00     0.159 HD
BRANCH   4   6
HETATM    6  C3  UNL     1      24.324   3.136  51.978  1.00  0.00    -0.001 A 
HETATM    7  C4  UNL     1      23.467   2.110  51.985  1.00  0.00     0.063 A 
HETATM    8  C5  UNL     1      22.437   2.993  52.149  1.00  0.00     0.056 A 
HETATM    9  C10 UNL     1      23.204   3.855  52.139  1.00  0.00     0.021 A 
HETATM   10  C6  UNL     1      21.455   2.044  51.725  1.00  0.00     0.163 A 
HETATM   11  C8  UNL     1      21.158   3.298  52.293  1.00  0.00     0.120 A 
HETATM   12  C9  UNL     1      22.010   4.433  52.298  1.00  0.00     0.053 A 
HETATM   13  N2  UNL     1      20.230   1.476  51.484  1.00  0.00    -0.248 NA
HETATM   14  N4  UNL     1      22.102   1.176  50.712  1.00  0.00    -0.389 N 
HETATM   15  C7  UNL     1      19.139   2.243  51.850  1.00  0.00     0.225 A 
HETATM   16  N3  UNL     1      19.844   3.322  52.319  1.00  0.00    -0.266 NA
HETATM   17  C14 UNL     1      22.344   1.872  49.432  1.00  0.00     0.145 C 
HETATM   18  H13 UNL     1      22.391   0.161  50.805  1.00  0.00     0.156 HD
HETATM   19  C13 UNL     1      22.970   3.205  49.552  1.00  0.00     0.007 C 
HETATM   20  C12 UNL     1      23.547   4.427  49.832  1.00  0.00    -0.013 C 
HETATM   21  C11 UNL     1      23.806   4.942  51.269  1.00  0.00     0.063 C 
HETATM   22 BR1  UNL     1      24.168   5.767  48.635  1.00  0.00    -0.056 Br
ENDBRANCH   4   6
ENDBRANCH   3   4
TORSDOF 3
ENDMDL
MODEL 6
REMARK VINA RESULT:      -6.6      9.535     10.412
REMARK  3 active torsions:
REMARK  status: ('A' for Active; 'I' for Inactive)
REMARK    1  A    between atoms: C2_3  and  N1_4 
REMARK    2  A    between atoms: N1_4  and  C3_5 
REMARK    3  A    between atoms: C9_13  and  C10_14 
ROOT
HETATM    1  O1  UNL     1      30.336  11.255  47.708  1.00  0.00    -0.428 OA
HETATM    2  C1  UNL     1      30.631  10.499  48.609  1.00  0.00     0.410 C 
HETATM    3  C2  UNL     1      30.902   9.493  49.641  1.00  0.00     0.156 C 
ENDROOT
BRANCH   3   4
HETATM    4  N1  UNL     1      30.165   8.283  49.428  1.00  0.00    -0.393 N 
HETATM    5  H4  UNL     1      29.141   8.273  49.603  1.00  0.00     0.159 HD
BRANCH   4   6
HETATM    6  C3  UNL     1      30.953   7.236  49.005  1.00  0.00    -0.001 A 
HETATM    7  C4  UNL     1      32.189   6.872  49.359  1.00  0.00     0.063 A 
HETATM    8  C5  UNL     1      32.067   5.757  48.578  1.00  0.00     0.056 A 
HETATM    9  C10 UNL     1      31.002   6.100  48.293  1.00  0.00     0.021 A 
HETATM   10  C6  UNL     1      33.479   5.536  48.539  1.00  0.00     0.163 A 
HETATM   11  C8  UNL     1      32.516   4.627  48.060  1.00  0.00     0.120 A 
HETATM   12  C9  UNL     1      31.199   4.949  47.645  1.00  0.00     0.053 A 
HETATM   13  N2  UNL     1      34.681   4.918  48.309  1.00  0.00    -0.248 NA
HETATM   14  N4  UNL     1      34.125   6.870  48.581  1.00  0.00    -0.389 N 
HETATM   15  C7  UNL     1      34.603   3.668  47.724  1.00  0.00     0.225 A 
HETATM   16  N3  UNL     1      33.236   3.618  47.621  1.00  0.00    -0.266 NA
HETATM   17  C14 UNL     1      33.956   7.628  47.325  1.00  0.00     0.145 C 
HETATM   18  H13 UNL     1      34.670   7.311  49.375  1.00  0.00     0.156 HD
HETATM   19  C13 UNL     1      32.579   7.659  46.791  1.00  0.00     0.007 C 
HETATM   20  C12 UNL     1      31.251   7.585  46.423  1.00  0.00    -0.013 C 
HETATM   21  C11 UNL     1      30.189   6.775  47.206  1.00  0.00     0.063 C 
HETATM   22 BR1  UNL     1      30.364   8.401  44.952  1.00  0.00    -0.056 Br
ENDBRANCH   4   6
ENDBRANCH   3   4
TORSDOF 3
ENDMDL
MODEL 7
REMARK VINA RESULT:      -6.4      4.561      5.514
REMARK  3 active torsions:
REMARK  status: ('A' for Active; 'I' for Inactive)
REMARK    1  A    between atoms: C2_3  and  N1_4 
REMARK    2  A    between atoms: N1_4  and  C3_5 
REMARK    3  A    between atoms: C9_13  and  C10_14 
ROOT
HETATM    1  O1  UNL     1      21.895  -2.003  55.332  1.00  0.00    -0.428 OA
HETATM    2  C1  UNL     1      22.327  -1.412  54.365  1.00  0.00     0.410 C 
HETATM    3  C2  UNL     1      22.785  -0.586  53.244  1.00  0.00     0.156 C 
ENDROOT
BRANCH   3   4
HETATM    4  N1  UNL     1      22.320   0.766  53.339  1.00  0.00    -0.393 N 
HETATM    5  H4  UNL     1      21.652   1.022  54.092  1.00  0.00     0.159 HD
BRANCH   4   6
HETATM    6  C3  UNL     1      22.841   1.588  52.365  1.00  0.00    -0.001 A 
HETATM    7  C4  UNL     1      23.853   2.461  52.405  1.00  0.00     0.063 A 
HETATM    8  C5  UNL     1      23.707   2.666  51.062  1.00  0.00     0.056 A 
HETATM    9  C10 UNL     1      22.838   1.907  51.062  1.00  0.00     0.021 A 
HETATM   10  C6  UNL     1      24.437   3.895  51.094  1.00  0.00     0.163 A 
HETATM   11  C8  UNL     1      24.035   3.237  49.915  1.00  0.00     0.120 A 
HETATM   12  C9  UNL     1      22.958   2.321  49.798  1.00  0.00     0.053 A 
HETATM   13  N2  UNL     1      25.104   5.010  50.655  1.00  0.00    -0.248 NA
HETATM   14  N4  UNL     1      24.167   4.524  52.409  1.00  0.00    -0.389 N 
HETATM   15  C7  UNL     1      25.189   5.148  49.283  1.00  0.00     0.225 A 
HETATM   16  N3  UNL     1      24.495   4.011  48.957  1.00  0.00    -0.266 NA
HETATM   17  C14 UNL     1      22.792   5.048  52.522  1.00  0.00     0.145 C 
HETATM   18  H13 UNL     1      24.825   4.632  53.233  1.00  0.00     0.156 HD
HETATM   19  C13 UNL     1      21.729   4.120  52.085  1.00  0.00     0.007 C 
HETATM   20  C12 UNL     1      20.861   3.145  51.634  1.00  0.00    -0.013 C 
HETATM   21  C11 UNL     1      21.326   1.784  51.061  1.00  0.00     0.063 C 
HETATM   22 BR1  UNL     1      18.961   3.157  51.582  1.00  0.00    -0.056 Br
ENDBRANCH   4   6
ENDBRANCH   3   4
TORSDOF 3
ENDMDL
MODEL 8
REMARK VINA RESULT:      -6.2      5.479      7.790
REMARK  3 active torsions:
REMARK  status: ('A' for Active; 'I' for Inactive)
REMARK    1  A    between atoms: C2_3  and  N1_4 
REMARK    2  A    between atoms: N1_4  and  C3_5 
REMARK    3  A    between atoms: C9_13  and  C10_14 
ROOT
HETATM    1  O1  UNL     1      29.722   5.407  47.990  1.00  0.00    -0.428 OA
HETATM    2  C1  UNL     1      28.571   5.711  48.218  1.00  0.00     0.410 C 
HETATM    3  C2  UNL     1      27.182   5.988  48.598  1.00  0.00     0.156 C 
ENDROOT
BRANCH   3   4
HETATM    4  N1  UNL     1      26.759   5.207  49.723  1.00  0.00    -0.393 N 
HETATM    5  H4  UNL     1      27.465   4.892  50.417  1.00  0.00     0.159 HD
BRANCH   4   6
HETATM    6  C3  UNL     1      25.405   4.959  49.734  1.00  0.00    -0.001 A 
HETATM    7  C4  UNL     1      24.378   5.725  50.116  1.00  0.00     0.063 A 
HETATM    8  C5  UNL     1      23.517   4.761  49.673  1.00  0.00     0.056 A 
HETATM    9  C10 UNL     1      24.426   4.126  49.354  1.00  0.00     0.021 A 
HETATM   10  C6  UNL     1      22.423   5.281  50.433  1.00  0.00     0.163 A 
HETATM   11  C8  UNL     1      22.308   4.269  49.461  1.00  0.00     0.120 A 
HETATM   12  C9  UNL     1      23.348   3.407  49.028  1.00  0.00     0.053 A 
HETATM   13  N2  UNL     1      21.144   5.466  50.892  1.00  0.00    -0.248 NA
HETATM   14  N4  UNL     1      22.995   5.858  51.673  1.00  0.00    -0.389 N 
HETATM   15  C7  UNL     1      20.182   4.667  50.303  1.00  0.00     0.225 A 
HETATM   16  N3  UNL     1      21.024   3.986  49.461  1.00  0.00    -0.266 NA
HETATM   17  C14 UNL     1      23.483   4.828  52.612  1.00  0.00     0.145 C 
HETATM   18  H13 UNL     1      23.083   6.879  51.943  1.00  0.00     0.156 HD
HETATM   19  C13 UNL     1      24.329   3.778  52.007  1.00  0.00     0.007 C 
HETATM   20  C12 UNL     1      25.089   2.874  51.293  1.00  0.00    -0.013 C 
HETATM   21  C11 UNL     1      25.298   2.954  49.761  1.00  0.00     0.063 C 
HETATM   22 BR1  UNL     1      26.057   1.362  51.915  1.00  0.00    -0.056 Br
ENDBRANCH   4   6
ENDBRANCH   3   4
TORSDOF 3
ENDMDL
MODEL 9
REMARK VINA RESULT:      -6.1      7.316      9.550
REMARK  3 active torsions:
REMARK  status: ('A' for Active; 'I' for Inactive)
REMARK    1  A    between atoms: C2_3  and  N1_4 
REMARK    2  A    between atoms: N1_4  and  C3_5 
REMARK    3  A    between atoms: C9_13  and  C10_14 
ROOT
HETATM    1  O1  UNL     1      28.342   9.231  47.661  1.00  0.00    -0.428 OA
HETATM    2  C1  UNL     1      27.877   9.334  48.777  1.00  0.00     0.410 C 
HETATM    3  C2  UNL     1      27.284   9.325  50.117  1.00  0.00     0.156 C 
ENDROOT
BRANCH   3   4
HETATM    4  N1  UNL     1      26.786   8.032  50.484  1.00  0.00    -0.393 N 
HETATM    5  H4  UNL     1      27.369   7.414  51.081  1.00  0.00     0.159 HD
BRANCH   4   6
HETATM    6  C3  UNL     1      25.541   7.763  49.963  1.00  0.00    -0.001 A 
HETATM    7  C4  UNL     1      24.319   8.051  50.422  1.00  0.00     0.063 A 
HETATM    8  C5  UNL     1      23.785   7.549  49.269  1.00  0.00     0.056 A 
HETATM    9  C10 UNL     1      24.854   7.313  48.902  1.00  0.00     0.021 A 
HETATM   10  C6  UNL     1      22.484   7.405  49.844  1.00  0.00     0.163 A 
HETATM   11  C8  UNL     1      22.773   7.242  48.475  1.00  0.00     0.120 A 
HETATM   12  C9  UNL     1      24.038   6.912  47.924  1.00  0.00     0.053 A 
HETATM   13  N2  UNL     1      21.134   7.185  49.940  1.00  0.00    -0.248 NA
HETATM   14  N4  UNL     1      22.679   7.086  51.279  1.00  0.00    -0.389 N 
HETATM   15  C7  UNL     1      20.494   6.897  48.748  1.00  0.00     0.225 A 
HETATM   16  N3  UNL     1      21.604   6.956  47.945  1.00  0.00    -0.266 NA
HETATM   17  C14 UNL     1      23.200   5.722  51.497  1.00  0.00     0.145 C 
HETATM   18  H13 UNL     1      22.491   7.702  52.120  1.00  0.00     0.156 HD
HETATM   19  C13 UNL     1      24.351   5.347  50.649  1.00  0.00     0.007 C 
HETATM   20  C12 UNL     1      25.408   5.150  49.785  1.00  0.00    -0.013 C 
HETATM   21  C11 UNL     1      25.872   6.200  48.746  1.00  0.00     0.063 C 
HETATM   22 BR1  UNL     1      26.553   3.643  49.610  1.00  0.00    -0.056 Br
ENDBRANCH   4   6
ENDBRANCH   3   4
TORSDOF 3
ENDMDL
