MODEL 1
REMARK VINA RESULT:      -8.6      0.000      0.000
REMARK  7 active torsions:
REMARK  status: ('A' for Active; 'I' for Inactive)
REMARK    1  A    between atoms: O1_1  and  C1_2 
REMARK    2  A    between atoms: C5_7  and  P1_8 
REMARK    3  A    between atoms: P1_8  and  C6_9 
REMARK    4  A    between atoms: C11_14  and  C12_15 
REMARK    5  A    between atoms: C12_15  and  N2_16 
REMARK    6  A    between atoms: N2_16  and  C13_17 
REMARK    7  A    between atoms: C17_21  and  C18_22 
ROOT
HETATM    1  C6  UNL     1      26.117   2.393  51.667  1.00  0.00    -0.021 A 
HETATM    2  C7  UNL     1      26.677   2.965  50.520  1.00  0.00     0.013 A 
HETATM    3  C8  UNL     1      25.907   3.460  49.471  1.00  0.00     0.001 A 
HETATM    4  C9  UNL     1      24.534   3.380  49.572  1.00  0.00     0.001 A 
HETATM    5  C10 UNL     1      23.997   2.815  50.704  1.00  0.00     0.010 A 
HETATM    6  C11 UNL     1      24.725   2.316  51.762  1.00  0.00    -0.029 A 
ENDROOT
BRANCH   6   7
HETATM    7  C12 UNL     1      24.275   1.700  53.037  1.00  0.00     0.159 C 
BRANCH   7   8
HETATM    8  N2  UNL     1      23.655   0.446  52.764  1.00  0.00    -0.386 N 
HETATM    9  H12 UNL     1      24.300  -0.244  52.266  1.00  0.00     0.160 HD
BRANCH   8  10
HETATM   10  C13 UNL     1      22.373  -0.053  53.023  1.00  0.00     0.029 A 
HETATM   11  C14 UNL     1      22.028  -0.926  54.029  1.00  0.00     0.029 A 
HETATM   12  C15 UNL     1      20.783  -1.412  54.300  1.00  0.00     0.003 A 
HETATM   13  C16 UNL     1      19.757  -0.990  53.482  1.00  0.00     0.016 A 
HETATM   14  C17 UNL     1      20.014  -0.121  52.456  1.00  0.00     0.050 A 
HETATM   15  C19 UNL     1      21.285   0.314  52.259  1.00  0.00     0.045 A 
BRANCH  14  16
HETATM   16  C18 UNL     1      18.901   0.322  51.588  1.00  0.00     0.417 C 
HETATM   17  F1  UNL     1      17.925  -0.629  51.625  1.00  0.00    -0.166 F 
HETATM   18  F2  UNL     1      18.377   1.530  51.951  1.00  0.00    -0.166 F 
HETATM   19  F3  UNL     1      19.379   0.406  50.299  1.00  0.00    -0.166 F 
ENDBRANCH  14  16
ENDBRANCH   8  10
ENDBRANCH   7   8
ENDBRANCH   6   7
BRANCH   1  20
HETATM   20  P1  UNL     1      27.375   1.855  52.830  1.00  0.00    -0.057 P 
HETATM   21  H5  UNL     1      28.523   2.698  52.949  1.00  0.00     0.067 HD
BRANCH  20  22
HETATM   22  C5  UNL     1      27.687   0.087  52.894  1.00  0.00     0.007 A 
HETATM   23  C1  UNL     1      28.956  -0.244  53.352  1.00  0.00     0.094 A 
HETATM   24  C2  UNL     1      29.365  -1.578  53.463  1.00  0.00     0.153 A 
HETATM   25  N1  UNL     1      28.520  -2.565  53.122  1.00  0.00    -0.270 NA
HETATM   26  C3  UNL     1      27.265  -2.276  52.668  1.00  0.00     0.117 A 
HETATM   27  C4  UNL     1      26.851  -0.965  52.554  1.00  0.00     0.034 A 
BRANCH  23  28
HETATM   28  O1  UNL     1      29.938   0.654  53.741  1.00  0.00    -0.358 OA
HETATM   29  H1  UNL     1      29.661   1.449  54.301  1.00  0.00     0.217 HD
ENDBRANCH  23  28
ENDBRANCH  20  22
ENDBRANCH   1  20
TORSDOF 7
ENDMDL
MODEL 2
REMARK VINA RESULT:      -8.5      5.198      7.354
REMARK  7 active torsions:
REMARK  status: ('A' for Active; 'I' for Inactive)
REMARK    1  A    between atoms: O1_1  and  C1_2 
REMARK    2  A    between atoms: C5_7  and  P1_8 
REMARK    3  A    between atoms: P1_8  and  C6_9 
REMARK    4  A    between atoms: C11_14  and  C12_15 
REMARK    5  A    between atoms: C12_15  and  N2_16 
REMARK    6  A    between atoms: N2_16  and  C13_17 
REMARK    7  A    between atoms: C17_21  and  C18_22 
ROOT
HETATM    1  C6  UNL     1      26.036   5.947  48.679  1.00  0.00    -0.021 A 
HETATM    2  C7  UNL     1      26.545   7.120  48.112  1.00  0.00     0.013 A 
HETATM    3  C8  UNL     1      27.886   7.274  47.775  1.00  0.00     0.001 A 
HETATM    4  C9  UNL     1      28.747   6.222  48.010  1.00  0.00     0.001 A 
HETATM    5  C10 UNL     1      28.234   5.075  48.568  1.00  0.00     0.010 A 
HETATM    6  C11 UNL     1      26.915   4.885  48.915  1.00  0.00    -0.029 A 
ENDROOT
BRANCH   6   7
HETATM    7  C12 UNL     1      26.233   3.703  49.504  1.00  0.00     0.159 C 
BRANCH   7   8
HETATM    8  N2  UNL     1      26.710   3.495  50.831  1.00  0.00    -0.386 N 
HETATM    9  H12 UNL     1      27.105   4.379  51.281  1.00  0.00     0.160 HD
BRANCH   8  10
HETATM   10  C13 UNL     1      26.758   2.363  51.653  1.00  0.00     0.029 A 
HETATM   11  C14 UNL     1      25.823   1.355  51.704  1.00  0.00     0.029 A 
HETATM   12  C15 UNL     1      25.861   0.243  52.492  1.00  0.00     0.003 A 
HETATM   13  C16 UNL     1      26.948   0.108  53.330  1.00  0.00     0.016 A 
HETATM   14  C17 UNL     1      27.924   1.068  53.342  1.00  0.00     0.050 A 
HETATM   15  C19 UNL     1      27.807   2.144  52.522  1.00  0.00     0.045 A 
BRANCH  14  16
HETATM   16  C18 UNL     1      29.084   0.907  54.247  1.00  0.00     0.417 C 
HETATM   17  F1  UNL     1      30.080   0.281  53.559  1.00  0.00    -0.166 F 
HETATM   18  F2  UNL     1      29.548   2.089  54.750  1.00  0.00    -0.166 F 
HETATM   19  F3  UNL     1      28.696   0.094  55.288  1.00  0.00    -0.166 F 
ENDBRANCH  14  16
ENDBRANCH   8  10
ENDBRANCH   7   8
ENDBRANCH   6   7
BRANCH   1  20
HETATM   20  P1  UNL     1      24.272   6.065  48.996  1.00  0.00    -0.057 P 
HETATM   21  H5  UNL     1      23.709   7.377  48.932  1.00  0.00     0.067 HD
BRANCH  20  22
HETATM   22  C5  UNL     1      23.628   4.993  50.286  1.00  0.00     0.007 A 
HETATM   23  C1  UNL     1      23.810   5.488  51.571  1.00  0.00     0.094 A 
HETATM   24  C2  UNL     1      23.369   4.779  52.693  1.00  0.00     0.153 A 
HETATM   25  N1  UNL     1      22.755   3.594  52.535  1.00  0.00    -0.270 NA
HETATM   26  C3  UNL     1      22.559   3.078  51.286  1.00  0.00     0.117 A 
HETATM   27  C4  UNL     1      22.990   3.768  50.172  1.00  0.00     0.034 A 
BRANCH  23  28
HETATM   28  O1  UNL     1      24.422   6.688  51.899  1.00  0.00    -0.358 OA
HETATM   29  H1  UNL     1      24.131   7.155  52.747  1.00  0.00     0.217 HD
ENDBRANCH  23  28
ENDBRANCH  20  22
ENDBRANCH   1  20
TORSDOF 7
ENDMDL
MODEL 3
REMARK VINA RESULT:      -8.5      2.182      2.720
REMARK  7 active torsions:
REMARK  status: ('A' for Active; 'I' for Inactive)
REMARK    1  A    between atoms: O1_1  and  C1_2 
REMARK    2  A    between atoms: C5_7  and  P1_8 
REMARK    3  A    between atoms: P1_8  and  C6_9 
REMARK    4  A    between atoms: C11_14  and  C12_15 
REMARK    5  A    between atoms: C12_15  and  N2_16 
REMARK    6  A    between atoms: N2_16  and  C13_17 
REMARK    7  A    between atoms: C17_21  and  C18_22 
ROOT
HETATM    1  C6  UNL     1      25.367   2.678  51.717  1.00  0.00    -0.021 A 
HETATM    2  C7  UNL     1      26.438   2.517  50.831  1.00  0.00     0.013 A 
HETATM    3  C8  UNL     1      26.568   3.262  49.663  1.00  0.00     0.001 A 
HETATM    4  C9  UNL     1      25.598   4.199  49.371  1.00  0.00     0.001 A 
HETATM    5  C10 UNL     1      24.551   4.346  50.250  1.00  0.00     0.010 A 
HETATM    6  C11 UNL     1      24.388   3.629  51.414  1.00  0.00    -0.029 A 
ENDROOT
BRANCH   6   7
HETATM    7  C12 UNL     1      23.324   3.699  52.449  1.00  0.00     0.159 C 
BRANCH   7   8
HETATM    8  N2  UNL     1      22.085   3.281  51.883  1.00  0.00    -0.386 N 
HETATM    9  H12 UNL     1      21.729   3.936  51.119  1.00  0.00     0.160 HD
BRANCH   8  10
HETATM   10  C13 UNL     1      21.252   2.184  52.131  1.00  0.00     0.029 A 
HETATM   11  C14 UNL     1      19.993   1.985  51.615  1.00  0.00     0.029 A 
HETATM   12  C15 UNL     1      19.175   0.918  51.840  1.00  0.00     0.003 A 
HETATM   13  C16 UNL     1      19.653  -0.070  52.673  1.00  0.00     0.016 A 
HETATM   14  C17 UNL     1      20.898   0.049  53.231  1.00  0.00     0.050 A 
HETATM   15  C19 UNL     1      21.647   1.147  52.951  1.00  0.00     0.045 A 
BRANCH  14  16
HETATM   16  C18 UNL     1      21.396  -1.021  54.123  1.00  0.00     0.417 C 
HETATM   17  F1  UNL     1      22.393  -1.687  53.476  1.00  0.00    -0.166 F 
HETATM   18  F2  UNL     1      21.857  -0.558  55.322  1.00  0.00    -0.166 F 
HETATM   19  F3  UNL     1      20.359  -1.899  54.346  1.00  0.00    -0.166 F 
ENDBRANCH  14  16
ENDBRANCH   8  10
ENDBRANCH   7   8
ENDBRANCH   6   7
BRANCH   1  20
HETATM   20  P1  UNL     1      25.491   1.571  53.126  1.00  0.00    -0.057 P 
HETATM   21  H5  UNL     1      24.885   2.026  54.338  1.00  0.00     0.067 HD
BRANCH  20  22
HETATM   22  C5  UNL     1      27.048   0.693  53.305  1.00  0.00     0.007 A 
HETATM   23  C1  UNL     1      28.080   1.475  53.806  1.00  0.00     0.094 A 
HETATM   24  C2  UNL     1      29.361   0.949  54.008  1.00  0.00     0.153 A 
HETATM   25  N1  UNL     1      29.607  -0.338  53.714  1.00  0.00    -0.270 NA
HETATM   26  C3  UNL     1      28.615  -1.136  53.219  1.00  0.00     0.117 A 
HETATM   27  C4  UNL     1      27.349  -0.629  53.016  1.00  0.00     0.034 A 
BRANCH  23  28
HETATM   28  O1  UNL     1      27.987   2.814  54.156  1.00  0.00    -0.358 OA
HETATM   29  H1  UNL     1      27.199   3.344  53.808  1.00  0.00     0.217 HD
ENDBRANCH  23  28
ENDBRANCH  20  22
ENDBRANCH   1  20
TORSDOF 7
ENDMDL
MODEL 4
REMARK VINA RESULT:      -8.4      4.615      7.148
REMARK  7 active torsions:
REMARK  status: ('A' for Active; 'I' for Inactive)
REMARK    1  A    between atoms: O1_1  and  C1_2 
REMARK    2  A    between atoms: C5_7  and  P1_8 
REMARK    3  A    between atoms: P1_8  and  C6_9 
REMARK    4  A    between atoms: C11_14  and  C12_15 
REMARK    5  A    between atoms: C12_15  and  N2_16 
REMARK    6  A    between atoms: N2_16  and  C13_17 
REMARK    7  A    between atoms: C17_21  and  C18_22 
ROOT
HETATM    1  C6  UNL     1      24.725   1.232  52.771  1.00  0.00    -0.021 A 
HETATM    2  C7  UNL     1      23.661   0.437  53.211  1.00  0.00     0.013 A 
HETATM    3  C8  UNL     1      22.451   0.351  52.528  1.00  0.00     0.001 A 
HETATM    4  C9  UNL     1      22.300   1.081  51.367  1.00  0.00     0.001 A 
HETATM    5  C10 UNL     1      23.353   1.857  50.946  1.00  0.00     0.010 A 
HETATM    6  C11 UNL     1      24.564   1.969  51.593  1.00  0.00    -0.029 A 
ENDROOT
BRANCH   6   7
HETATM    7  C12 UNL     1      25.777   2.751  51.242  1.00  0.00     0.159 C 
BRANCH   7   8
HETATM    8  N2  UNL     1      25.649   3.251  49.914  1.00  0.00    -0.386 N 
HETATM    9  H12 UNL     1      25.205   2.552  49.241  1.00  0.00     0.160 HD
BRANCH   8  10
HETATM   10  C13 UNL     1      25.989   4.475  49.326  1.00  0.00     0.029 A 
HETATM   11  C14 UNL     1      25.133   5.523  49.075  1.00  0.00     0.029 A 
HETATM   12  C15 UNL     1      25.451   6.723  48.513  1.00  0.00     0.003 A 
HETATM   13  C16 UNL     1      26.768   6.915  48.154  1.00  0.00     0.016 A 
HETATM   14  C17 UNL     1      27.686   5.922  48.368  1.00  0.00     0.050 A 
HETATM   15  C19 UNL     1      27.282   4.757  48.935  1.00  0.00     0.045 A 
BRANCH  14  16
HETATM   16  C18 UNL     1      29.095   6.145  47.976  1.00  0.00     0.417 C 
HETATM   17  F1  UNL     1      29.109   6.811  46.788  1.00  0.00    -0.166 F 
HETATM   18  F2  UNL     1      29.812   6.846  48.903  1.00  0.00    -0.166 F 
HETATM   19  F3  UNL     1      29.680   4.912  47.791  1.00  0.00    -0.166 F 
ENDBRANCH  14  16
ENDBRANCH   8  10
ENDBRANCH   7   8
ENDBRANCH   6   7
BRANCH   1  20
HETATM   20  P1  UNL     1      26.141   1.126  53.870  1.00  0.00    -0.057 P 
HETATM   21  H5  UNL     1      26.756   2.367  54.225  1.00  0.00     0.067 HD
BRANCH  20  22
HETATM   22  C5  UNL     1      27.257  -0.254  53.588  1.00  0.00     0.007 A 
HETATM   23  C1  UNL     1      28.515  -0.083  54.150  1.00  0.00     0.094 A 
HETATM   24  C2  UNL     1      29.508  -1.061  54.025  1.00  0.00     0.153 A 
HETATM   25  N1  UNL     1      29.247  -2.193  53.350  1.00  0.00    -0.270 NA
HETATM   26  C3  UNL     1      28.020  -2.394  52.785  1.00  0.00     0.117 A 
HETATM   27  C4  UNL     1      27.034  -1.437  52.902  1.00  0.00     0.034 A 
BRANCH  23  28
HETATM   28  O1  UNL     1      28.938   1.023  54.873  1.00  0.00    -0.358 OA
HETATM   29  H1  UNL     1      28.548   1.925  54.634  1.00  0.00     0.217 HD
ENDBRANCH  23  28
ENDBRANCH  20  22
ENDBRANCH   1  20
TORSDOF 7
ENDMDL
MODEL 5
REMARK VINA RESULT:      -8.4      4.945      6.979
REMARK  7 active torsions:
REMARK  status: ('A' for Active; 'I' for Inactive)
REMARK    1  A    between atoms: O1_1  and  C1_2 
REMARK    2  A    between atoms: C5_7  and  P1_8 
REMARK    3  A    between atoms: P1_8  and  C6_9 
REMARK    4  A    between atoms: C11_14  and  C12_15 
REMARK    5  A    between atoms: C12_15  and  N2_16 
REMARK    6  A    between atoms: N2_16  and  C13_17 
REMARK    7  A    between atoms: C17_21  and  C18_22 
ROOT
HETATM    1  C6  UNL     1      22.046   2.384  51.063  1.00  0.00    -0.021 A 
HETATM    2  C7  UNL     1      21.556   1.966  49.821  1.00  0.00     0.013 A 
HETATM    3  C8  UNL     1      22.224   2.210  48.625  1.00  0.00     0.001 A 
HETATM    4  C9  UNL     1      23.422   2.893  48.671  1.00  0.00     0.001 A 
HETATM    5  C10 UNL     1      23.892   3.299  49.897  1.00  0.00     0.010 A 
HETATM    6  C11 UNL     1      23.260   3.077  51.101  1.00  0.00    -0.029 A 
ENDROOT
BRANCH   6   7
HETATM    7  C12 UNL     1      23.662   3.443  52.483  1.00  0.00     0.159 C 
BRANCH   7   8
HETATM    8  N2  UNL     1      25.061   3.220  52.644  1.00  0.00    -0.386 N 
HETATM    9  H12 UNL     1      25.623   4.123  52.743  1.00  0.00     0.160 HD
BRANCH   8  10
HETATM   10  C13 UNL     1      25.834   2.055  52.700  1.00  0.00     0.029 A 
HETATM   11  C14 UNL     1      25.541   0.855  52.094  1.00  0.00     0.029 A 
HETATM   12  C15 UNL     1      26.289  -0.285  52.130  1.00  0.00     0.003 A 
HETATM   13  C16 UNL     1      27.464  -0.237  52.850  1.00  0.00     0.016 A 
HETATM   14  C17 UNL     1      27.830   0.919  53.486  1.00  0.00     0.050 A 
HETATM   15  C19 UNL     1      27.025   2.009  53.395  1.00  0.00     0.045 A 
BRANCH  14  16
HETATM   16  C18 UNL     1      29.094   0.953  54.253  1.00  0.00     0.417 C 
HETATM   17  F1  UNL     1      28.894   0.304  55.435  1.00  0.00    -0.166 F 
HETATM   18  F2  UNL     1      30.146   0.387  53.592  1.00  0.00    -0.166 F 
HETATM   19  F3  UNL     1      29.387   2.271  54.525  1.00  0.00    -0.166 F 
ENDBRANCH  14  16
ENDBRANCH   8  10
ENDBRANCH   7   8
ENDBRANCH   6   7
BRANCH   1  20
HETATM   20  P1  UNL     1      20.953   1.915  52.408  1.00  0.00    -0.057 P 
HETATM   21  H5  UNL     1      20.382   2.990  53.158  1.00  0.00     0.067 HD
BRANCH  20  22
HETATM   22  C5  UNL     1      21.443   0.468  53.354  1.00  0.00     0.007 A 
HETATM   23  C1  UNL     1      20.414  -0.441  53.564  1.00  0.00     0.094 A 
HETATM   24  C2  UNL     1      20.622  -1.623  54.283  1.00  0.00     0.153 A 
HETATM   25  N1  UNL     1      21.839  -1.893  54.784  1.00  0.00    -0.270 NA
HETATM   26  C3  UNL     1      22.873  -1.022  54.596  1.00  0.00     0.117 A 
HETATM   27  C4  UNL     1      22.680   0.147  53.890  1.00  0.00     0.034 A 
BRANCH  23  28
HETATM   28  O1  UNL     1      19.109  -0.307  53.115  1.00  0.00    -0.358 OA
HETATM   29  H1  UNL     1      18.504  -1.117  53.158  1.00  0.00     0.217 HD
ENDBRANCH  23  28
ENDBRANCH  20  22
ENDBRANCH   1  20
TORSDOF 7
ENDMDL
MODEL 6
REMARK VINA RESULT:      -8.1      5.112      7.292
REMARK  7 active torsions:
REMARK  status: ('A' for Active; 'I' for Inactive)
REMARK    1  A    between atoms: O1_1  and  C1_2 
REMARK    2  A    between atoms: C5_7  and  P1_8 
REMARK    3  A    between atoms: P1_8  and  C6_9 
REMARK    4  A    between atoms: C11_14  and  C12_15 
REMARK    5  A    between atoms: C12_15  and  N2_16 
REMARK    6  A    between atoms: N2_16  and  C13_17 
REMARK    7  A    between atoms: C17_21  and  C18_22 
ROOT
HETATM    1  C6  UNL     1      23.456   4.169  50.274  1.00  0.00    -0.021 A 
HETATM    2  C7  UNL     1      22.987   4.057  48.960  1.00  0.00     0.013 A 
HETATM    3  C8  UNL     1      22.430   2.885  48.457  1.00  0.00     0.001 A 
HETATM    4  C9  UNL     1      22.337   1.791  49.292  1.00  0.00     0.001 A 
HETATM    5  C10 UNL     1      22.802   1.915  50.580  1.00  0.00     0.010 A 
HETATM    6  C11 UNL     1      23.359   3.056  51.114  1.00  0.00    -0.029 A 
ENDROOT
BRANCH   6   7
HETATM    7  C12 UNL     1      23.880   3.327  52.479  1.00  0.00     0.159 C 
BRANCH   7   8
HETATM    8  N2  UNL     1      24.114   2.092  53.150  1.00  0.00    -0.386 N 
HETATM    9  H12 UNL     1      23.293   1.780  53.757  1.00  0.00     0.160 HD
BRANCH   8  10
HETATM   10  C13 UNL     1      25.203   1.213  53.164  1.00  0.00     0.029 A 
HETATM   11  C14 UNL     1      25.173  -0.124  52.843  1.00  0.00     0.029 A 
HETATM   12  C15 UNL     1      26.227  -0.990  52.842  1.00  0.00     0.003 A 
HETATM   13  C16 UNL     1      27.455  -0.478  53.203  1.00  0.00     0.016 A 
HETATM   14  C17 UNL     1      27.572   0.844  53.538  1.00  0.00     0.050 A 
HETATM   15  C19 UNL     1      26.470   1.636  53.510  1.00  0.00     0.045 A 
BRANCH  14  16
HETATM   16  C18 UNL     1      28.898   1.378  53.922  1.00  0.00     0.417 C 
HETATM   17  F1  UNL     1      29.849   0.721  53.199  1.00  0.00    -0.166 F 
HETATM   18  F2  UNL     1      29.020   2.723  53.724  1.00  0.00    -0.166 F 
HETATM   19  F3  UNL     1      29.095   1.097  55.256  1.00  0.00    -0.166 F 
ENDBRANCH  14  16
ENDBRANCH   8  10
ENDBRANCH   7   8
ENDBRANCH   6   7
BRANCH   1  20
HETATM   20  P1  UNL     1      24.113   5.806  50.613  1.00  0.00    -0.057 P 
HETATM   21  H5  UNL     1      23.151   6.855  50.742  1.00  0.00     0.067 HD
BRANCH  20  22
HETATM   22  C5  UNL     1      25.637   6.236  49.765  1.00  0.00     0.007 A 
HETATM   23  C1  UNL     1      26.022   7.559  49.935  1.00  0.00     0.094 A 
HETATM   24  C2  UNL     1      27.185   8.062  49.342  1.00  0.00     0.153 A 
HETATM   25  N1  UNL     1      27.953   7.255  48.590  1.00  0.00    -0.270 NA
HETATM   26  C3  UNL     1      27.604   5.948  48.402  1.00  0.00     0.117 A 
HETATM   27  C4  UNL     1      26.460   5.441  48.982  1.00  0.00     0.034 A 
BRANCH  23  28
HETATM   28  O1  UNL     1      25.341   8.513  50.676  1.00  0.00    -0.358 OA
HETATM   29  H1  UNL     1      25.828   8.959  51.442  1.00  0.00     0.217 HD
ENDBRANCH  23  28
ENDBRANCH  20  22
ENDBRANCH   1  20
TORSDOF 7
ENDMDL
MODEL 7
REMARK VINA RESULT:      -8.1      3.888      6.477
REMARK  7 active torsions:
REMARK  status: ('A' for Active; 'I' for Inactive)
REMARK    1  A    between atoms: O1_1  and  C1_2 
REMARK    2  A    between atoms: C5_7  and  P1_8 
REMARK    3  A    between atoms: P1_8  and  C6_9 
REMARK    4  A    between atoms: C11_14  and  C12_15 
REMARK    5  A    between atoms: C12_15  and  N2_16 
REMARK    6  A    between atoms: N2_16  and  C13_17 
REMARK    7  A    between atoms: C17_21  and  C18_22 
ROOT
HETATM    1  C6  UNL     1      25.535   5.270  49.318  1.00  0.00    -0.021 A 
HETATM    2  C7  UNL     1      25.574   6.527  48.706  1.00  0.00     0.013 A 
HETATM    3  C8  UNL     1      26.704   7.015  48.056  1.00  0.00     0.001 A 
HETATM    4  C9  UNL     1      27.831   6.221  48.016  1.00  0.00     0.001 A 
HETATM    5  C10 UNL     1      27.780   4.989  48.622  1.00  0.00     0.010 A 
HETATM    6  C11 UNL     1      26.682   4.471  49.274  1.00  0.00    -0.029 A 
ENDROOT
BRANCH   6   7
HETATM    7  C12 UNL     1      26.490   3.162  49.949  1.00  0.00     0.159 C 
BRANCH   7   8
HETATM    8  N2  UNL     1      27.038   3.224  51.264  1.00  0.00    -0.386 N 
HETATM    9  H12 UNL     1      27.368   4.201  51.538  1.00  0.00     0.160 HD
BRANCH   8  10
HETATM   10  C13 UNL     1      27.223   2.257  52.259  1.00  0.00     0.029 A 
HETATM   11  C14 UNL     1      28.251   2.216  53.172  1.00  0.00     0.029 A 
HETATM   12  C15 UNL     1      28.438   1.287  54.153  1.00  0.00     0.003 A 
HETATM   13  C16 UNL     1      27.503   0.278  54.243  1.00  0.00     0.016 A 
HETATM   14  C17 UNL     1      26.448   0.244  53.371  1.00  0.00     0.050 A 
HETATM   15  C19 UNL     1      26.338   1.211  52.425  1.00  0.00     0.045 A 
BRANCH  14  16
HETATM   16  C18 UNL     1      25.454  -0.846  53.483  1.00  0.00     0.417 C 
HETATM   17  F1  UNL     1      25.915  -1.920  52.782  1.00  0.00    -0.166 F 
HETATM   18  F2  UNL     1      25.197  -1.217  54.772  1.00  0.00    -0.166 F 
HETATM   19  F3  UNL     1      24.286  -0.412  52.896  1.00  0.00    -0.166 F 
ENDBRANCH  14  16
ENDBRANCH   8  10
ENDBRANCH   7   8
ENDBRANCH   6   7
BRANCH   1  20
HETATM   20  P1  UNL     1      23.937   4.937  50.066  1.00  0.00    -0.057 P 
HETATM   21  H5  UNL     1      23.848   5.142  51.478  1.00  0.00     0.067 HD
BRANCH  20  22
HETATM   22  C5  UNL     1      23.043   3.519  49.419  1.00  0.00     0.007 A 
HETATM   23  C1  UNL     1      22.792   2.533  50.365  1.00  0.00     0.094 A 
HETATM   24  C2  UNL     1      22.107   1.360  50.030  1.00  0.00     0.153 A 
HETATM   25  N1  UNL     1      21.679   1.174  48.770  1.00  0.00    -0.270 NA
HETATM   26  C3  UNL     1      21.908   2.123  47.815  1.00  0.00     0.117 A 
HETATM   27  C4  UNL     1      22.583   3.283  48.133  1.00  0.00     0.034 A 
BRANCH  23  28
HETATM   28  O1  UNL     1      23.167   2.575  51.699  1.00  0.00    -0.358 OA
HETATM   29  H1  UNL     1      22.437   2.588  52.399  1.00  0.00     0.217 HD
ENDBRANCH  23  28
ENDBRANCH  20  22
ENDBRANCH   1  20
TORSDOF 7
ENDMDL
MODEL 8
REMARK VINA RESULT:      -8.0      5.463      8.043
REMARK  7 active torsions:
REMARK  status: ('A' for Active; 'I' for Inactive)
REMARK    1  A    between atoms: O1_1  and  C1_2 
REMARK    2  A    between atoms: C5_7  and  P1_8 
REMARK    3  A    between atoms: P1_8  and  C6_9 
REMARK    4  A    between atoms: C11_14  and  C12_15 
REMARK    5  A    between atoms: C12_15  and  N2_16 
REMARK    6  A    between atoms: N2_16  and  C13_17 
REMARK    7  A    between atoms: C17_21  and  C18_22 
ROOT
HETATM    1  C6  UNL     1      25.363   5.687  49.963  1.00  0.00    -0.021 A 
HETATM    2  C7  UNL     1      26.132   6.574  49.202  1.00  0.00     0.013 A 
HETATM    3  C8  UNL     1      27.269   6.179  48.504  1.00  0.00     0.001 A 
HETATM    4  C9  UNL     1      27.650   4.854  48.567  1.00  0.00     0.001 A 
HETATM    5  C10 UNL     1      26.886   3.993  49.319  1.00  0.00     0.010 A 
HETATM    6  C11 UNL     1      25.756   4.347  50.023  1.00  0.00    -0.029 A 
ENDROOT
BRANCH   6   7
HETATM    7  C12 UNL     1      24.839   3.523  50.852  1.00  0.00     0.159 C 
BRANCH   7   8
HETATM    8  N2  UNL     1      25.532   3.067  52.012  1.00  0.00    -0.386 N 
HETATM    9  H12 UNL     1      25.559   3.789  52.798  1.00  0.00     0.160 HD
BRANCH   8  10
HETATM   10  C13 UNL     1      26.177   1.863  52.318  1.00  0.00     0.029 A 
HETATM   11  C14 UNL     1      25.790   0.607  51.911  1.00  0.00     0.029 A 
HETATM   12  C15 UNL     1      26.413  -0.573  52.192  1.00  0.00     0.003 A 
HETATM   13  C16 UNL     1      27.552  -0.508  52.967  1.00  0.00     0.016 A 
HETATM   14  C17 UNL     1      28.006   0.704  53.414  1.00  0.00     0.050 A 
HETATM   15  C19 UNL     1      27.323   1.830  53.085  1.00  0.00     0.045 A 
BRANCH  14  16
HETATM   16  C18 UNL     1      29.230   0.755  54.244  1.00  0.00     0.417 C 
HETATM   17  F1  UNL     1      29.019   0.008  55.364  1.00  0.00    -0.166 F 
HETATM   18  F2  UNL     1      30.344   0.306  53.596  1.00  0.00    -0.166 F 
HETATM   19  F3  UNL     1      29.425   2.065  54.625  1.00  0.00    -0.166 F 
ENDBRANCH  14  16
ENDBRANCH   8  10
ENDBRANCH   7   8
ENDBRANCH   6   7
BRANCH   1  20
HETATM   20  P1  UNL     1      23.965   6.506  50.738  1.00  0.00    -0.057 P 
HETATM   21  H5  UNL     1      23.980   6.560  52.166  1.00  0.00     0.067 HD
BRANCH  20  22
HETATM   22  C5  UNL     1      22.363   6.220  49.978  1.00  0.00     0.007 A 
HETATM   23  C1  UNL     1      21.501   5.456  50.754  1.00  0.00     0.094 A 
HETATM   24  C2  UNL     1      20.212   5.138  50.312  1.00  0.00     0.153 A 
HETATM   25  N1  UNL     1      19.791   5.575  49.114  1.00  0.00    -0.270 NA
HETATM   26  C3  UNL     1      20.612   6.329  48.325  1.00  0.00     0.117 A 
HETATM   27  C4  UNL     1      21.884   6.649  48.750  1.00  0.00     0.034 A 
BRANCH  23  28
HETATM   28  O1  UNL     1      21.785   4.932  52.006  1.00  0.00    -0.358 OA
HETATM   29  H1  UNL     1      21.476   3.991  52.210  1.00  0.00     0.217 HD
ENDBRANCH  23  28
ENDBRANCH  20  22
ENDBRANCH   1  20
TORSDOF 7
ENDMDL
MODEL 9
REMARK VINA RESULT:      -7.9      5.476      7.673
REMARK  7 active torsions:
REMARK  status: ('A' for Active; 'I' for Inactive)
REMARK    1  A    between atoms: O1_1  and  C1_2 
REMARK    2  A    between atoms: C5_7  and  P1_8 
REMARK    3  A    between atoms: P1_8  and  C6_9 
REMARK    4  A    between atoms: C11_14  and  C12_15 
REMARK    5  A    between atoms: C12_15  and  N2_16 
REMARK    6  A    between atoms: N2_16  and  C13_17 
REMARK    7  A    between atoms: C17_21  and  C18_22 
ROOT
HETATM    1  C6  UNL     1      25.786   6.249  49.746  1.00  0.00    -0.021 A 
HETATM    2  C7  UNL     1      26.916   6.142  48.927  1.00  0.00     0.013 A 
HETATM    3  C8  UNL     1      27.504   4.922  48.609  1.00  0.00     0.001 A 
HETATM    4  C9  UNL     1      26.945   3.771  49.125  1.00  0.00     0.001 A 
HETATM    5  C10 UNL     1      25.836   3.890  49.929  1.00  0.00     0.010 A 
HETATM    6  C11 UNL     1      25.227   5.078  50.266  1.00  0.00    -0.029 A 
ENDROOT
BRANCH   6   7
HETATM    7  C12 UNL     1      24.028   5.344  51.102  1.00  0.00     0.159 C 
BRANCH   7   8
HETATM    8  N2  UNL     1      24.107   4.575  52.300  1.00  0.00    -0.386 N 
HETATM    9  H12 UNL     1      24.378   5.154  53.155  1.00  0.00     0.160 HD
BRANCH   8  10
HETATM   10  C13 UNL     1      23.897   3.218  52.570  1.00  0.00     0.029 A 
HETATM   11  C14 UNL     1      22.726   2.522  52.378  1.00  0.00     0.029 A 
HETATM   12  C15 UNL     1      22.510   1.199  52.626  1.00  0.00     0.003 A 
HETATM   13  C16 UNL     1      23.573   0.476  53.124  1.00  0.00     0.016 A 
HETATM   14  C17 UNL     1      24.775   1.092  53.345  1.00  0.00     0.050 A 
HETATM   15  C19 UNL     1      24.902   2.415  53.068  1.00  0.00     0.045 A 
BRANCH  14  16
HETATM   16  C18 UNL     1      25.905   0.301  53.879  1.00  0.00     0.417 C 
HETATM   17  F1  UNL     1      26.920   0.336  52.969  1.00  0.00    -0.166 F 
HETATM   18  F2  UNL     1      26.358   0.747  55.087  1.00  0.00    -0.166 F 
HETATM   19  F3  UNL     1      25.482  -1.003  54.009  1.00  0.00    -0.166 F 
ENDBRANCH  14  16
ENDBRANCH   8  10
ENDBRANCH   7   8
ENDBRANCH   6   7
BRANCH   1  20
HETATM   20  P1  UNL     1      25.274   7.957  49.962  1.00  0.00    -0.057 P 
HETATM   21  H5  UNL     1      23.865   8.184  50.047  1.00  0.00     0.067 HD
BRANCH  20  22
HETATM   22  C5  UNL     1      26.216   9.185  49.050  1.00  0.00     0.007 A 
HETATM   23  C1  UNL     1      27.260   9.745  49.775  1.00  0.00     0.094 A 
HETATM   24  C2  UNL     1      28.094  10.719  49.216  1.00  0.00     0.153 A 
HETATM   25  N1  UNL     1      27.889  11.127  47.953  1.00  0.00    -0.270 NA
HETATM   26  C3  UNL     1      26.873  10.597  47.211  1.00  0.00     0.117 A 
HETATM   27  C4  UNL     1      26.043   9.637  47.751  1.00  0.00     0.034 A 
BRANCH  23  28
HETATM   28  O1  UNL     1      27.599   9.433  51.083  1.00  0.00    -0.358 OA
HETATM   29  H1  UNL     1      28.182  10.083  51.593  1.00  0.00     0.217 HD
ENDBRANCH  23  28
ENDBRANCH  20  22
ENDBRANCH   1  20
TORSDOF 7
ENDMDL
