MODEL 1
REMARK VINA RESULT:      -9.2      0.000      0.000
REMARK  4 active torsions:
REMARK  status: ('A' for Active; 'I' for Inactive)
REMARK    1  A    between atoms: C3_3  and  C4_4 
REMARK    2  A    between atoms: C5_5  and  C6_6 
REMARK    3  A    between atoms: C6_6  and  C7_7 
REMARK    4  A    between atoms: C12_15  and  O2_16 
ROOT
HETATM    1  C1  UNL     1      25.952   3.557  49.467  1.00  0.00     0.097 C 
HETATM    2  C2  UNL     1      25.817   3.114  50.709  1.00  0.00    -0.141 C 
HETATM    3  C3  UNL     1      25.534   2.802  51.957  1.00  0.00     0.041 C 
HETATM    4  C17 UNL     1      26.572   1.971  52.468  1.00  0.00     0.122 C 
HETATM    5  N3  UNL     1      26.168   0.683  52.208  1.00  0.00    -0.252 NA
HETATM    6  C18 UNL     1      26.975  -0.378  52.339  1.00  0.00     0.115 C 
HETATM    7  C19 UNL     1      27.857  -1.457  52.417  1.00  0.00     0.006 C 
HETATM    8  C20 UNL     1      28.834  -1.634  53.431  1.00  0.00     0.074 A 
HETATM    9  C21 UNL     1      30.105  -1.237  53.975  1.00  0.00     0.004 A 
HETATM   10  C22 UNL     1      29.488  -0.147  53.762  1.00  0.00     0.003 A 
HETATM   11  C23 UNL     1      28.936   0.790  53.568  1.00  0.00    -0.070 C 
HETATM   12  S1  UNL     1      28.101   2.159  53.268  1.00  0.00    -0.025 SA
ENDROOT
BRANCH   3  13
HETATM   13  C4  UNL     1      24.337   3.303  52.549  1.00  0.00     0.019 C 
HETATM   14  C5  UNL     1      23.096   2.856  52.279  1.00  0.00    -0.023 C 
BRANCH  14  15
HETATM   15  C6  UNL     1      22.575   1.803  51.375  1.00  0.00     0.055 C 
BRANCH  15  16
HETATM   16  C7  UNL     1      21.960   0.660  52.150  1.00  0.00     0.122 C 
HETATM   17  N1  UNL     1      22.946   0.276  53.147  1.00  0.00    -0.262 NA
HETATM   18  C8  UNL     1      23.142  -0.853  53.754  1.00  0.00     0.193 C 
HETATM   19  N2  UNL     1      22.142  -1.377  54.404  1.00  0.00    -0.229 NA
HETATM   20  C9  UNL     1      20.786  -0.949  54.255  1.00  0.00     0.059 C 
HETATM   21  C10 UNL     1      20.048  -2.051  54.209  1.00  0.00     0.162 C 
HETATM   22  C16 UNL     1      20.472   0.527  54.155  1.00  0.00     0.072 C 
HETATM   23  O1  UNL     1      18.781  -2.204  53.672  1.00  0.00    -0.355 OA
HETATM   24  C11 UNL     1      17.862  -1.290  53.108  1.00  0.00     0.238 C 
HETATM   25  C12 UNL     1      18.403  -0.381  52.105  1.00  0.00     0.066 C 
HETATM   26  C14 UNL     1      19.527   0.309  51.870  1.00  0.00     0.015 C 
HETATM   27  C15 UNL     1      20.590   0.935  52.690  1.00  0.00     0.041 C 
BRANCH  25  28
HETATM   28  O2  UNL     1      17.457  -0.196  51.119  1.00  0.00    -0.358 OA
HETATM   29  C13 UNL     1      17.671   0.722  50.079  1.00  0.00     0.209 C 
ENDBRANCH  25  28
ENDBRANCH  15  16
ENDBRANCH  14  15
ENDBRANCH   3  13
TORSDOF 4
ENDMDL
MODEL 2
REMARK VINA RESULT:      -9.1      3.716      6.465
REMARK  4 active torsions:
REMARK  status: ('A' for Active; 'I' for Inactive)
REMARK    1  A    between atoms: C3_3  and  C4_4 
REMARK    2  A    between atoms: C5_5  and  C6_6 
REMARK    3  A    between atoms: C6_6  and  C7_7 
REMARK    4  A    between atoms: C12_15  and  O2_16 
ROOT
HETATM    1  C1  UNL     1      21.811   4.478  48.729  1.00  0.00     0.097 C 
HETATM    2  C2  UNL     1      22.749   4.923  49.552  1.00  0.00    -0.141 C 
HETATM    3  C3  UNL     1      23.544   5.352  50.511  1.00  0.00     0.041 C 
HETATM    4  C17 UNL     1      24.745   5.842  49.924  1.00  0.00     0.122 C 
HETATM    5  N3  UNL     1      25.602   4.767  49.896  1.00  0.00    -0.252 NA
HETATM    6  C18 UNL     1      26.757   4.768  49.216  1.00  0.00     0.115 C 
HETATM    7  C19 UNL     1      27.918   4.771  48.444  1.00  0.00     0.006 C 
HETATM    8  C20 UNL     1      28.799   5.876  48.308  1.00  0.00     0.074 A 
HETATM    9  C21 UNL     1      29.043   7.170  47.730  1.00  0.00     0.004 A 
HETATM   10  C22 UNL     1      27.872   7.247  48.216  1.00  0.00     0.003 A 
HETATM   11  C23 UNL     1      26.854   7.294  48.644  1.00  0.00    -0.070 C 
HETATM   12  S1  UNL     1      25.353   7.336  49.280  1.00  0.00    -0.025 SA
ENDROOT
BRANCH   3  13
HETATM   13  C4  UNL     1      23.113   5.267  51.868  1.00  0.00     0.019 C 
HETATM   14  C5  UNL     1      22.661   4.149  52.466  1.00  0.00    -0.023 C 
BRANCH  14  15
HETATM   15  C6  UNL     1      22.466   2.757  51.994  1.00  0.00     0.055 C 
BRANCH  15  16
HETATM   16  C7  UNL     1      23.094   1.757  52.938  1.00  0.00     0.122 C 
HETATM   17  N1  UNL     1      22.101   0.714  53.135  1.00  0.00    -0.262 NA
HETATM   18  C8  UNL     1      21.920  -0.109  54.122  1.00  0.00     0.193 C 
HETATM   19  N2  UNL     1      22.921  -0.864  54.477  1.00  0.00    -0.229 NA
HETATM   20  C9  UNL     1      24.269  -0.645  54.053  1.00  0.00     0.059 C 
HETATM   21  C10 UNL     1      25.033  -0.835  55.122  1.00  0.00     0.162 C 
HETATM   22  C16 UNL     1      24.552  -0.249  52.620  1.00  0.00     0.072 C 
HETATM   23  O1  UNL     1      26.312  -0.355  55.348  1.00  0.00    -0.355 OA
HETATM   24  C11 UNL     1      27.219   0.374  54.546  1.00  0.00     0.238 C 
HETATM   25  C12 UNL     1      26.675   1.547  53.875  1.00  0.00     0.066 C 
HETATM   26  C14 UNL     1      25.539   1.931  53.277  1.00  0.00     0.015 C 
HETATM   27  C15 UNL     1      24.448   1.269  52.524  1.00  0.00     0.041 C 
BRANCH  25  28
HETATM   28  O2  UNL     1      27.632   2.539  53.871  1.00  0.00    -0.358 OA
HETATM   29  C13 UNL     1      28.989   2.232  54.057  1.00  0.00     0.209 C 
ENDBRANCH  25  28
ENDBRANCH  15  16
ENDBRANCH  14  15
ENDBRANCH   3  13
TORSDOF 4
ENDMDL
MODEL 3
REMARK VINA RESULT:      -8.9      4.284      7.428
REMARK  4 active torsions:
REMARK  status: ('A' for Active; 'I' for Inactive)
REMARK    1  A    between atoms: C3_3  and  C4_4 
REMARK    2  A    between atoms: C5_5  and  C6_6 
REMARK    3  A    between atoms: C6_6  and  C7_7 
REMARK    4  A    between atoms: C12_15  and  O2_16 
ROOT
HETATM    1  C1  UNL     1      26.395   3.623  49.858  1.00  0.00     0.097 C 
HETATM    2  C2  UNL     1      25.109   3.945  49.869  1.00  0.00    -0.141 C 
HETATM    3  C3  UNL     1      23.848   4.262  50.077  1.00  0.00     0.041 C 
HETATM    4  C17 UNL     1      23.150   4.199  48.837  1.00  0.00     0.122 C 
HETATM    5  N3  UNL     1      23.229   5.466  48.309  1.00  0.00    -0.252 NA
HETATM    6  C18 UNL     1      22.883   5.757  47.048  1.00  0.00     0.115 C 
HETATM    7  C19 UNL     1      22.583   6.019  45.711  1.00  0.00     0.006 C 
HETATM    8  C20 UNL     1      21.495   5.451  44.997  1.00  0.00     0.074 A 
HETATM    9  C21 UNL     1      20.943   4.293  44.345  1.00  0.00     0.004 A 
HETATM   10  C22 UNL     1      21.362   3.866  45.466  1.00  0.00     0.003 A 
HETATM   11  C23 UNL     1      21.735   3.513  46.444  1.00  0.00    -0.070 C 
HETATM   12  S1  UNL     1      22.296   3.017  47.893  1.00  0.00    -0.025 SA
ENDROOT
BRANCH   3  13
HETATM   13  C4  UNL     1      23.416   4.589  51.396  1.00  0.00     0.019 C 
HETATM   14  C5  UNL     1      22.741   3.761  52.215  1.00  0.00    -0.023 C 
BRANCH  14  15
HETATM   15  C6  UNL     1      22.254   2.368  52.068  1.00  0.00     0.055 C 
BRANCH  15  16
HETATM   16  C7  UNL     1      22.905   1.444  53.071  1.00  0.00     0.122 C 
HETATM   17  N1  UNL     1      21.945   0.380  53.318  1.00  0.00    -0.262 NA
HETATM   18  C8  UNL     1      21.782  -0.393  54.347  1.00  0.00     0.193 C 
HETATM   19  N2  UNL     1      22.804  -1.093  54.751  1.00  0.00    -0.229 NA
HETATM   20  C9  UNL     1      24.148  -0.853  54.326  1.00  0.00     0.059 C 
HETATM   21  C10 UNL     1      24.907  -0.958  55.410  1.00  0.00     0.162 C 
HETATM   22  C16 UNL     1      24.431  -0.527  52.877  1.00  0.00     0.072 C 
HETATM   23  O1  UNL     1      26.167  -0.424  55.620  1.00  0.00    -0.355 OA
HETATM   24  C11 UNL     1      27.057   0.290  54.786  1.00  0.00     0.238 C 
HETATM   25  C12 UNL     1      26.481   1.406  54.047  1.00  0.00     0.066 C 
HETATM   26  C14 UNL     1      25.339   1.718  53.419  1.00  0.00     0.015 C 
HETATM   27  C15 UNL     1      24.279   0.980  52.696  1.00  0.00     0.041 C 
BRANCH  25  28
HETATM   28  O2  UNL     1      27.405   2.428  53.996  1.00  0.00    -0.358 OA
HETATM   29  C13 UNL     1      28.743   2.173  53.660  1.00  0.00     0.209 C 
ENDBRANCH  25  28
ENDBRANCH  15  16
ENDBRANCH  14  15
ENDBRANCH   3  13
TORSDOF 4
ENDMDL
MODEL 4
REMARK VINA RESULT:      -8.8      4.413      7.632
REMARK  4 active torsions:
REMARK  status: ('A' for Active; 'I' for Inactive)
REMARK    1  A    between atoms: C3_3  and  C4_4 
REMARK    2  A    between atoms: C5_5  and  C6_6 
REMARK    3  A    between atoms: C6_6  and  C7_7 
REMARK    4  A    between atoms: C12_15  and  O2_16 
ROOT
HETATM    1  C1  UNL     1      26.094   3.703  49.736  1.00  0.00     0.097 C 
HETATM    2  C2  UNL     1      24.793   3.760  49.488  1.00  0.00    -0.141 C 
HETATM    3  C3  UNL     1      23.505   3.620  49.251  1.00  0.00     0.041 C 
HETATM    4  C17 UNL     1      22.973   4.882  48.858  1.00  0.00     0.122 C 
HETATM    5  N3  UNL     1      22.545   5.475  50.022  1.00  0.00    -0.252 NA
HETATM    6  C18 UNL     1      22.184   6.763  50.098  1.00  0.00     0.115 C 
HETATM    7  C19 UNL     1      21.881   8.123  50.164  1.00  0.00     0.006 C 
HETATM    8  C20 UNL     1      21.176   8.846  49.167  1.00  0.00     0.074 A 
HETATM    9  C21 UNL     1      21.198   9.455  47.863  1.00  0.00     0.004 A 
HETATM   10  C22 UNL     1      21.691   8.297  47.690  1.00  0.00     0.003 A 
HETATM   11  C23 UNL     1      22.118   7.286  47.560  1.00  0.00    -0.070 C 
HETATM   12  S1  UNL     1      22.749   5.791  47.396  1.00  0.00    -0.025 SA
ENDROOT
BRANCH   3  13
HETATM   13  C4  UNL     1      22.899   2.339  49.410  1.00  0.00     0.019 C 
HETATM   14  C5  UNL     1      22.402   1.858  50.565  1.00  0.00    -0.023 C 
BRANCH  14  15
HETATM   15  C6  UNL     1      22.311   2.414  51.937  1.00  0.00     0.055 C 
BRANCH  15  16
HETATM   16  C7  UNL     1      22.911   1.474  52.957  1.00  0.00     0.122 C 
HETATM   17  N1  UNL     1      21.935   0.413  53.147  1.00  0.00    -0.262 NA
HETATM   18  C8  UNL     1      21.721  -0.371  54.159  1.00  0.00     0.193 C 
HETATM   19  N2  UNL     1      22.719  -1.082  54.600  1.00  0.00    -0.229 NA
HETATM   20  C9  UNL     1      24.083  -0.845  54.240  1.00  0.00     0.059 C 
HETATM   21  C10 UNL     1      24.791  -0.967  55.356  1.00  0.00     0.162 C 
HETATM   22  C16 UNL     1      24.434  -0.504  52.809  1.00  0.00     0.072 C 
HETATM   23  O1  UNL     1      26.044  -0.443  55.629  1.00  0.00    -0.355 OA
HETATM   24  C11 UNL     1      26.974   0.275  54.846  1.00  0.00     0.238 C 
HETATM   25  C12 UNL     1      26.438   1.404  54.095  1.00  0.00     0.066 C 
HETATM   26  C14 UNL     1      25.328   1.730  53.419  1.00  0.00     0.015 C 
HETATM   27  C15 UNL     1      24.298   1.006  52.639  1.00  0.00     0.041 C 
BRANCH  25  28
HETATM   28  O2  UNL     1      27.369   2.421  54.098  1.00  0.00    -0.358 OA
HETATM   29  C13 UNL     1      28.651   2.225  53.562  1.00  0.00     0.209 C 
ENDBRANCH  25  28
ENDBRANCH  15  16
ENDBRANCH  14  15
ENDBRANCH   3  13
TORSDOF 4
ENDMDL
MODEL 5
REMARK VINA RESULT:      -8.7      4.094      7.415
REMARK  4 active torsions:
REMARK  status: ('A' for Active; 'I' for Inactive)
REMARK    1  A    between atoms: C3_3  and  C4_4 
REMARK    2  A    between atoms: C5_5  and  C6_6 
REMARK    3  A    between atoms: C6_6  and  C7_7 
REMARK    4  A    between atoms: C12_15  and  O2_16 
ROOT
HETATM    1  C1  UNL     1      23.526   4.643  52.893  1.00  0.00     0.097 C 
HETATM    2  C2  UNL     1      22.684   3.866  52.228  1.00  0.00    -0.141 C 
HETATM    3  C3  UNL     1      21.822   2.999  51.738  1.00  0.00     0.041 C 
HETATM    4  C17 UNL     1      21.802   3.125  50.320  1.00  0.00     0.122 C 
HETATM    5  N3  UNL     1      20.813   4.040  50.049  1.00  0.00    -0.252 NA
HETATM    6  C18 UNL     1      20.635   4.592  48.841  1.00  0.00     0.115 C 
HETATM    7  C19 UNL     1      20.518   5.202  47.592  1.00  0.00     0.006 C 
HETATM    8  C20 UNL     1      20.680   4.540  46.347  1.00  0.00     0.074 A 
HETATM    9  C21 UNL     1      21.583   3.959  45.389  1.00  0.00     0.004 A 
HETATM   10  C22 UNL     1      21.938   3.472  46.508  1.00  0.00     0.003 A 
HETATM   11  C23 UNL     1      22.232   3.060  47.490  1.00  0.00    -0.070 C 
HETATM   12  S1  UNL     1      22.649   2.471  48.952  1.00  0.00    -0.025 SA
ENDROOT
BRANCH   3  13
HETATM   13  C4  UNL     1      21.106   2.144  52.627  1.00  0.00     0.019 C 
HETATM   14  C5  UNL     1      21.410   0.855  52.872  1.00  0.00    -0.023 C 
BRANCH  14  15
HETATM   15  C6  UNL     1      22.474  -0.046  52.368  1.00  0.00     0.055 C 
BRANCH  15  16
HETATM   16  C7  UNL     1      23.730   0.057  53.202  1.00  0.00     0.122 C 
HETATM   17  N1  UNL     1      23.595  -0.937  54.254  1.00  0.00    -0.262 NA
HETATM   18  C8  UNL     1      24.118  -0.993  55.441  1.00  0.00     0.193 C 
HETATM   19  N2  UNL     1      25.415  -0.929  55.538  1.00  0.00    -0.229 NA
HETATM   20  C9  UNL     1      26.272  -0.515  54.470  1.00  0.00     0.059 C 
HETATM   21  C10 UNL     1      27.184   0.284  55.011  1.00  0.00     0.162 C 
HETATM   22  C16 UNL     1      25.997  -0.988  53.060  1.00  0.00     0.072 C 
HETATM   23  O1  UNL     1      27.954   1.245  54.377  1.00  0.00    -0.355 OA
HETATM   24  C11 UNL     1      28.093   1.622  53.022  1.00  0.00     0.238 C 
HETATM   25  C12 UNL     1      26.851   1.838  52.290  1.00  0.00     0.066 C 
HETATM   26  C14 UNL     1      25.620   1.315  52.217  1.00  0.00     0.015 C 
HETATM   27  C15 UNL     1      25.008  -0.018  52.424  1.00  0.00     0.041 C 
BRANCH  25  28
HETATM   28  O2  UNL     1      27.024   2.898  51.426  1.00  0.00    -0.358 OA
HETATM   29  C13 UNL     1      26.010   3.269  50.530  1.00  0.00     0.209 C 
ENDBRANCH  25  28
ENDBRANCH  15  16
ENDBRANCH  14  15
ENDBRANCH   3  13
TORSDOF 4
ENDMDL
MODEL 6
REMARK VINA RESULT:      -8.6      1.713      2.901
REMARK  4 active torsions:
REMARK  status: ('A' for Active; 'I' for Inactive)
REMARK    1  A    between atoms: C3_3  and  C4_4 
REMARK    2  A    between atoms: C5_5  and  C6_6 
REMARK    3  A    between atoms: C6_6  and  C7_7 
REMARK    4  A    between atoms: C12_15  and  O2_16 
ROOT
HETATM    1  C1  UNL     1      25.416   3.545  49.711  1.00  0.00     0.097 C 
HETATM    2  C2  UNL     1      25.401   3.090  50.956  1.00  0.00    -0.141 C 
HETATM    3  C3  UNL     1      25.236   2.764  52.221  1.00  0.00     0.041 C 
HETATM    4  C17 UNL     1      26.327   1.943  52.628  1.00  0.00     0.122 C 
HETATM    5  N3  UNL     1      25.918   0.651  52.393  1.00  0.00    -0.252 NA
HETATM    6  C18 UNL     1      26.747  -0.400  52.440  1.00  0.00     0.115 C 
HETATM    7  C19 UNL     1      27.646  -1.467  52.428  1.00  0.00     0.006 C 
HETATM    8  C20 UNL     1      28.713  -1.640  53.347  1.00  0.00     0.074 A 
HETATM    9  C21 UNL     1      30.024  -1.230  53.777  1.00  0.00     0.004 A 
HETATM   10  C22 UNL     1      29.376  -0.146  53.631  1.00  0.00     0.003 A 
HETATM   11  C23 UNL     1      28.796   0.785  53.497  1.00  0.00    -0.070 C 
HETATM   12  S1  UNL     1      27.920   2.144  53.287  1.00  0.00    -0.025 SA
ENDROOT
BRANCH   3  13
HETATM   13  C4  UNL     1      24.092   3.243  52.924  1.00  0.00     0.019 C 
HETATM   14  C5  UNL     1      22.849   2.737  52.812  1.00  0.00    -0.023 C 
BRANCH  14  15
HETATM   15  C6  UNL     1      22.276   1.628  52.012  1.00  0.00     0.055 C 
BRANCH  15  16
HETATM   16  C7  UNL     1      20.774   1.749  51.892  1.00  0.00     0.122 C 
HETATM   17  N1  UNL     1      20.531   2.935  51.087  1.00  0.00    -0.262 NA
HETATM   18  C8  UNL     1      19.507   3.730  51.035  1.00  0.00     0.193 C 
HETATM   19  N2  UNL     1      18.342   3.206  50.784  1.00  0.00    -0.229 NA
HETATM   20  C9  UNL     1      18.071   1.803  50.849  1.00  0.00     0.059 C 
HETATM   21  C10 UNL     1      16.895   1.676  51.450  1.00  0.00     0.162 C 
HETATM   22  C16 UNL     1      19.082   0.817  50.304  1.00  0.00     0.072 C 
HETATM   23  O1  UNL     1      16.395   0.567  52.112  1.00  0.00    -0.355 OA
HETATM   24  C11 UNL     1      16.885  -0.747  52.289  1.00  0.00     0.238 C 
HETATM   25  C12 UNL     1      18.272  -0.856  52.724  1.00  0.00     0.066 C 
HETATM   26  C14 UNL     1      19.444  -0.240  52.520  1.00  0.00     0.015 C 
HETATM   27  C15 UNL     1      20.082   0.510  51.414  1.00  0.00     0.041 C 
BRANCH  25  28
HETATM   28  O2  UNL     1      18.379  -1.911  53.604  1.00  0.00    -0.358 OA
HETATM   29  C13 UNL     1      17.452  -2.965  53.581  1.00  0.00     0.209 C 
ENDBRANCH  25  28
ENDBRANCH  15  16
ENDBRANCH  14  15
ENDBRANCH   3  13
TORSDOF 4
ENDMDL
MODEL 7
REMARK VINA RESULT:      -8.6      3.464      6.079
REMARK  4 active torsions:
REMARK  status: ('A' for Active; 'I' for Inactive)
REMARK    1  A    between atoms: C3_3  and  C4_4 
REMARK    2  A    between atoms: C5_5  and  C6_6 
REMARK    3  A    between atoms: C6_6  and  C7_7 
REMARK    4  A    between atoms: C12_15  and  O2_16 
ROOT
HETATM    1  C1  UNL     1      22.324   5.351  47.649  1.00  0.00     0.097 C 
HETATM    2  C2  UNL     1      23.166   5.522  48.659  1.00  0.00    -0.141 C 
HETATM    3  C3  UNL     1      23.847   5.657  49.778  1.00  0.00     0.041 C 
HETATM    4  C17 UNL     1      25.138   6.173  49.469  1.00  0.00     0.122 C 
HETATM    5  N3  UNL     1      25.937   5.069  49.287  1.00  0.00    -0.252 NA
HETATM    6  C18 UNL     1      27.170   5.135  48.767  1.00  0.00     0.115 C 
HETATM    7  C19 UNL     1      28.423   5.225  48.159  1.00  0.00     0.006 C 
HETATM    8  C20 UNL     1      29.366   6.258  48.392  1.00  0.00     0.074 A 
HETATM    9  C21 UNL     1      29.747   7.628  48.169  1.00  0.00     0.004 A 
HETATM   10  C22 UNL     1      28.527   7.683  48.519  1.00  0.00     0.003 A 
HETATM   11  C23 UNL     1      27.465   7.710  48.824  1.00  0.00    -0.070 C 
HETATM   12  S1  UNL     1      25.897   7.722  49.272  1.00  0.00    -0.025 SA
ENDROOT
BRANCH   3  13
HETATM   13  C4  UNL     1      23.237   5.298  51.016  1.00  0.00     0.019 C 
HETATM   14  C5  UNL     1      22.964   4.039  51.406  1.00  0.00    -0.023 C 
BRANCH  14  15
HETATM   15  C6  UNL     1      23.169   2.716  50.769  1.00  0.00     0.055 C 
BRANCH  15  16
HETATM   16  C7  UNL     1      24.218   1.907  51.498  1.00  0.00     0.122 C 
HETATM   17  N1  UNL     1      25.494   2.526  51.179  1.00  0.00    -0.262 NA
HETATM   18  C8  UNL     1      26.694   2.033  51.156  1.00  0.00     0.193 C 
HETATM   19  N2  UNL     1      27.137   1.457  52.237  1.00  0.00    -0.229 NA
HETATM   20  C9  UNL     1      26.301   1.079  53.334  1.00  0.00     0.059 C 
HETATM   21  C10 UNL     1      26.708  -0.126  53.716  1.00  0.00     0.162 C 
HETATM   22  C16 UNL     1      25.200   2.008  53.795  1.00  0.00     0.072 C 
HETATM   23  O1  UNL     1      25.994  -1.078  54.424  1.00  0.00    -0.355 OA
HETATM   24  C11 UNL     1      24.713  -1.069  55.021  1.00  0.00     0.238 C 
HETATM   25  C12 UNL     1      23.625  -0.575  54.186  1.00  0.00     0.066 C 
HETATM   26  C14 UNL     1      23.412   0.372  53.263  1.00  0.00     0.015 C 
HETATM   27  C15 UNL     1      23.958   1.715  52.960  1.00  0.00     0.041 C 
BRANCH  25  28
HETATM   28  O2  UNL     1      22.495  -1.321  54.444  1.00  0.00    -0.358 OA
HETATM   29  C13 UNL     1      21.218  -0.821  54.146  1.00  0.00     0.209 C 
ENDBRANCH  25  28
ENDBRANCH  15  16
ENDBRANCH  14  15
ENDBRANCH   3  13
TORSDOF 4
ENDMDL
MODEL 8
REMARK VINA RESULT:      -8.5      3.158      7.442
REMARK  4 active torsions:
REMARK  status: ('A' for Active; 'I' for Inactive)
REMARK    1  A    between atoms: C3_3  and  C4_4 
REMARK    2  A    between atoms: C5_5  and  C6_6 
REMARK    3  A    between atoms: C6_6  and  C7_7 
REMARK    4  A    between atoms: C12_15  and  O2_16 
ROOT
HETATM    1  C1  UNL     1      20.103   4.442  50.969  1.00  0.00     0.097 C 
HETATM    2  C2  UNL     1      20.163   3.189  50.541  1.00  0.00    -0.141 C 
HETATM    3  C3  UNL     1      20.350   2.011  49.982  1.00  0.00     0.041 C 
HETATM    4  C17 UNL     1      19.387   1.099  50.502  1.00  0.00     0.122 C 
HETATM    5  N3  UNL     1      19.989   0.515  51.591  1.00  0.00    -0.252 NA
HETATM    6  C18 UNL     1      19.326  -0.238  52.479  1.00  0.00     0.115 C 
HETATM    7  C19 UNL     1      18.598  -0.959  53.426  1.00  0.00     0.006 C 
HETATM    8  C20 UNL     1      17.551  -1.868  53.123  1.00  0.00     0.074 A 
HETATM    9  C21 UNL     1      16.186  -2.054  52.707  1.00  0.00     0.004 A 
HETATM   10  C22 UNL     1      16.667  -1.218  51.880  1.00  0.00     0.003 A 
HETATM   11  C23 UNL     1      17.103  -0.491  51.171  1.00  0.00    -0.070 C 
HETATM   12  S1  UNL     1      17.769   0.583  50.141  1.00  0.00    -0.025 SA
ENDROOT
BRANCH   3  13
HETATM   13  C4  UNL     1      21.396   1.848  49.027  1.00  0.00     0.019 C 
HETATM   14  C5  UNL     1      22.628   2.381  49.131  1.00  0.00    -0.023 C 
BRANCH  14  15
HETATM   15  C6  UNL     1      23.277   3.234  50.155  1.00  0.00     0.055 C 
BRANCH  15  16
HETATM   16  C7  UNL     1      24.317   2.466  50.939  1.00  0.00     0.122 C 
HETATM   17  N1  UNL     1      25.556   3.214  50.799  1.00  0.00    -0.262 NA
HETATM   18  C8  UNL     1      26.793   2.827  50.873  1.00  0.00     0.193 C 
HETATM   19  N2  UNL     1      27.175   2.214  51.957  1.00  0.00    -0.229 NA
HETATM   20  C9  UNL     1      26.271   1.687  52.931  1.00  0.00     0.059 C 
HETATM   21  C10 UNL     1      26.746   0.496  53.277  1.00  0.00     0.162 C 
HETATM   22  C16 UNL     1      25.047   2.482  53.330  1.00  0.00     0.072 C 
HETATM   23  O1  UNL     1      26.054  -0.563  53.842  1.00  0.00    -0.355 OA
HETATM   24  C11 UNL     1      24.725  -0.706  54.297  1.00  0.00     0.238 C 
HETATM   25  C12 UNL     1      23.686  -0.247  53.383  1.00  0.00     0.066 C 
HETATM   26  C14 UNL     1      23.481   0.743  52.505  1.00  0.00     0.015 C 
HETATM   27  C15 UNL     1      23.929   2.146  52.349  1.00  0.00     0.041 C 
BRANCH  25  28
HETATM   28  O2  UNL     1      22.609  -1.104  53.470  1.00  0.00    -0.358 OA
HETATM   29  C13 UNL     1      22.065  -1.454  54.715  1.00  0.00     0.209 C 
ENDBRANCH  25  28
ENDBRANCH  15  16
ENDBRANCH  14  15
ENDBRANCH   3  13
TORSDOF 4
ENDMDL
MODEL 9
REMARK VINA RESULT:      -8.5      3.551      5.973
REMARK  4 active torsions:
REMARK  status: ('A' for Active; 'I' for Inactive)
REMARK    1  A    between atoms: C3_3  and  C4_4 
REMARK    2  A    between atoms: C5_5  and  C6_6 
REMARK    3  A    between atoms: C6_6  and  C7_7 
REMARK    4  A    between atoms: C12_15  and  O2_16 
ROOT
HETATM    1  C1  UNL     1      22.666   4.672  47.695  1.00  0.00     0.097 C 
HETATM    2  C2  UNL     1      23.476   5.215  48.592  1.00  0.00    -0.141 C 
HETATM    3  C3  UNL     1      24.126   5.749  49.606  1.00  0.00     0.041 C 
HETATM    4  C17 UNL     1      25.389   6.218  49.143  1.00  0.00     0.122 C 
HETATM    5  N3  UNL     1      26.258   5.169  49.329  1.00  0.00    -0.252 NA
HETATM    6  C18 UNL     1      27.494   5.141  48.813  1.00  0.00     0.115 C 
HETATM    7  C19 UNL     1      28.750   5.109  48.207  1.00  0.00     0.006 C 
HETATM    8  C20 UNL     1      29.624   6.221  48.090  1.00  0.00     0.074 A 
HETATM    9  C21 UNL     1      29.925   7.465  47.433  1.00  0.00     0.004 A 
HETATM   10  C22 UNL     1      28.697   7.552  47.749  1.00  0.00     0.003 A 
HETATM   11  C23 UNL     1      27.630   7.609  48.030  1.00  0.00    -0.070 C 
HETATM   12  S1  UNL     1      26.056   7.665  48.453  1.00  0.00    -0.025 SA
ENDROOT
BRANCH   3  13
HETATM   13  C4  UNL     1      23.516   5.773  50.895  1.00  0.00     0.019 C 
HETATM   14  C5  UNL     1      23.472   4.732  51.748  1.00  0.00    -0.023 C 
BRANCH  14  15
HETATM   15  C6  UNL     1      23.980   3.341  51.673  1.00  0.00     0.055 C 
BRANCH  15  16
HETATM   16  C7  UNL     1      23.132   2.397  52.494  1.00  0.00     0.122 C 
HETATM   17  N1  UNL     1      21.754   2.657  52.109  1.00  0.00    -0.262 NA
HETATM   18  C8  UNL     1      20.644   2.479  52.757  1.00  0.00     0.193 C 
HETATM   19  N2  UNL     1      20.391   1.286  53.214  1.00  0.00    -0.229 NA
HETATM   20  C9  UNL     1      21.367   0.245  53.302  1.00  0.00     0.059 C 
HETATM   21  C10 UNL     1      21.181  -0.344  54.477  1.00  0.00     0.162 C 
HETATM   22  C16 UNL     1      22.353   0.042  52.173  1.00  0.00     0.072 C 
HETATM   23  O1  UNL     1      22.089  -1.096  55.204  1.00  0.00    -0.355 OA
HETATM   24  C11 UNL     1      23.402  -1.541  54.930  1.00  0.00     0.238 C 
HETATM   25  C12 UNL     1      24.326  -0.531  54.429  1.00  0.00     0.066 C 
HETATM   26  C14 UNL     1      24.312   0.534  53.616  1.00  0.00     0.015 C 
HETATM   27  C15 UNL     1      23.547   0.959  52.422  1.00  0.00     0.041 C 
BRANCH  25  28
HETATM   28  O2  UNL     1      25.573  -0.765  54.968  1.00  0.00    -0.358 OA
HETATM   29  C13 UNL     1      26.561   0.232  54.954  1.00  0.00     0.209 C 
ENDBRANCH  25  28
ENDBRANCH  15  16
ENDBRANCH  14  15
ENDBRANCH   3  13
TORSDOF 4
ENDMDL
