MODEL 1
REMARK VINA RESULT:      -8.3      0.000      0.000
REMARK  1 active torsions:
REMARK  status: ('A' for Active; 'I' for Inactive)
REMARK    1  A    between atoms: C18_24  and  O3_25 
ROOT
HETATM    1  O1  UNL     1      27.784   2.366  52.170  1.00  0.00    -0.279 OA
HETATM    2  C1  UNL     1      26.810   2.897  51.764  1.00  0.00     0.225 C 
HETATM    3  N1  UNL     1      26.796   3.469  50.535  1.00  0.00    -0.335 N 
HETATM    4  C2  UNL     1      26.783   4.052  49.279  1.00  0.00     0.294 C 
HETATM    5  O2  UNL     1      25.388   4.291  48.982  1.00  0.00    -0.368 OA
HETATM    6  C3  UNL     1      24.678   3.096  49.098  1.00  0.00     0.197 C 
HETATM    7  C4  UNL     1      23.255   3.009  48.906  1.00  0.00    -0.001 C 
HETATM    8  C5  UNL     1      22.175   2.636  49.698  1.00  0.00     0.019 C 
HETATM    9  C6  UNL     1      22.604   2.272  50.989  1.00  0.00     0.142 C 
HETATM   10  F1  UNL     1      23.583   1.380  50.757  1.00  0.00    -0.234 F 
HETATM   11  C7  UNL     1      21.893   1.718  52.150  1.00  0.00     0.021 C 
HETATM   12  C8  UNL     1      22.915   1.296  52.967  1.00  0.00     0.008 C 
HETATM   13  C9  UNL     1      24.132   1.923  53.541  1.00  0.00    -0.044 C 
HETATM   14  C10 UNL     1      23.780   3.107  52.916  1.00  0.00    -0.014 C 
HETATM   15  C11 UNL     1      23.122   3.586  51.726  1.00  0.00     0.079 C 
HETATM   16  C12 UNL     1      25.362   2.667  54.078  1.00  0.00     0.168 C 
HETATM   17  N2  UNL     1      26.348   2.487  52.981  1.00  0.00    -0.301 N 
HETATM   18  C13 UNL     1      27.385   1.527  53.343  1.00  0.00     0.218 A 
HETATM   19  C14 UNL     1      28.559   1.704  54.086  1.00  0.00     0.042 A 
HETATM   20  C15 UNL     1      29.365   0.614  54.284  1.00  0.00     0.003 A 
HETATM   21  C16 UNL     1      29.075  -0.638  53.787  1.00  0.00     0.021 A 
HETATM   22  C17 UNL     1      27.925  -0.838  53.053  1.00  0.00     0.045 A 
HETATM   23 BR1  UNL     1      27.558  -2.575  52.387  1.00  0.00    -0.048 Br
HETATM   24  C18 UNL     1      27.097   0.272  52.848  1.00  0.00     0.121 A 
HETATM   25  H1  UNL     1      25.894   3.863  50.794  1.00  0.00     0.165 HD
ENDROOT
BRANCH  24  26
HETATM   26  O3  UNL     1      25.964  -0.054  52.092  1.00  0.00    -0.359 OA
HETATM   27  H18 UNL     1      25.119  -0.244  52.653  1.00  0.00     0.217 HD
ENDBRANCH  24  26
TORSDOF 1
ENDMDL
MODEL 2
REMARK VINA RESULT:      -7.8      3.735      5.509
REMARK  1 active torsions:
REMARK  status: ('A' for Active; 'I' for Inactive)
REMARK    1  A    between atoms: C18_24  and  O3_25 
ROOT
HETATM    1  O1  UNL     1      22.926   6.269  49.600  1.00  0.00    -0.279 OA
HETATM    2  C1  UNL     1      22.222   5.361  49.874  1.00  0.00     0.225 C 
HETATM    3  N1  UNL     1      21.275   4.934  49.002  1.00  0.00    -0.335 N 
HETATM    4  C2  UNL     1      20.309   4.498  48.111  1.00  0.00     0.294 C 
HETATM    5  O2  UNL     1      19.886   3.207  48.606  1.00  0.00    -0.368 OA
HETATM    6  C3  UNL     1      20.998   2.375  48.742  1.00  0.00     0.197 C 
HETATM    7  C4  UNL     1      20.914   1.033  49.254  1.00  0.00    -0.001 C 
HETATM    8  C5  UNL     1      21.450   0.361  50.346  1.00  0.00     0.019 C 
HETATM    9  C6  UNL     1      22.252   1.223  51.120  1.00  0.00     0.142 C 
HETATM   10  F1  UNL     1      23.084   1.774  50.220  1.00  0.00    -0.234 F 
HETATM   11  C7  UNL     1      23.106   0.993  52.293  1.00  0.00     0.021 C 
HETATM   12  C8  UNL     1      23.847   2.148  52.368  1.00  0.00     0.008 C 
HETATM   13  C9  UNL     1      23.535   3.598  52.413  1.00  0.00    -0.044 C 
HETATM   14  C10 UNL     1      22.188   3.280  52.368  1.00  0.00    -0.014 C 
HETATM   15  C11 UNL     1      21.296   2.289  51.819  1.00  0.00     0.079 C 
HETATM   16  C12 UNL     1      23.101   5.070  52.452  1.00  0.00     0.168 C 
HETATM   17  N2  UNL     1      22.978   5.405  51.009  1.00  0.00    -0.301 N 
HETATM   18  C13 UNL     1      24.075   6.253  50.559  1.00  0.00     0.218 A 
HETATM   19  C14 UNL     1      24.240   7.641  50.650  1.00  0.00     0.042 A 
HETATM   20  C15 UNL     1      25.388   8.188  50.142  1.00  0.00     0.003 A 
HETATM   21  C16 UNL     1      26.381   7.439  49.549  1.00  0.00     0.021 A 
HETATM   22  C17 UNL     1      26.243   6.071  49.446  1.00  0.00     0.045 A 
HETATM   23 BR1  UNL     1      27.629   5.073  48.624  1.00  0.00    -0.048 Br
HETATM   24  C18 UNL     1      25.071   5.506  49.964  1.00  0.00     0.121 A 
HETATM   25  H1  UNL     1      20.926   4.351  49.760  1.00  0.00     0.165 HD
ENDROOT
BRANCH  24  26
HETATM   26  O3  UNL     1      25.046   4.116  49.803  1.00  0.00    -0.359 OA
HETATM   27  H18 UNL     1      24.413   3.787  49.057  1.00  0.00     0.217 HD
ENDBRANCH  24  26
TORSDOF 1
ENDMDL
MODEL 3
REMARK VINA RESULT:      -7.5      3.084      6.485
REMARK  1 active torsions:
REMARK  status: ('A' for Active; 'I' for Inactive)
REMARK    1  A    between atoms: C18_24  and  O3_25 
ROOT
HETATM    1  O1  UNL     1      21.062   2.175  52.407  1.00  0.00    -0.279 OA
HETATM    2  C1  UNL     1      22.040   1.808  52.959  1.00  0.00     0.225 C 
HETATM    3  N1  UNL     1      22.071   0.602  53.579  1.00  0.00    -0.335 N 
HETATM    4  C2  UNL     1      22.101  -0.629  54.212  1.00  0.00     0.294 C 
HETATM    5  O2  UNL     1      23.500  -0.893  54.469  1.00  0.00    -0.368 OA
HETATM    6  C3  UNL     1      24.215  -0.812  53.275  1.00  0.00     0.197 C 
HETATM    7  C4  UNL     1      25.642  -0.984  53.202  1.00  0.00    -0.001 C 
HETATM    8  C5  UNL     1      26.710  -0.188  52.803  1.00  0.00     0.019 C 
HETATM    9  C6  UNL     1      26.261   1.080  52.386  1.00  0.00     0.142 C 
HETATM   10  F1  UNL     1      25.292   0.796  51.500  1.00  0.00    -0.234 F 
HETATM   11  C7  UNL     1      26.957   2.230  51.791  1.00  0.00     0.021 C 
HETATM   12  C8  UNL     1      25.924   3.012  51.332  1.00  0.00     0.008 C 
HETATM   13  C9  UNL     1      24.694   3.590  51.929  1.00  0.00    -0.044 C 
HETATM   14  C10 UNL     1      25.049   3.018  53.139  1.00  0.00    -0.014 C 
HETATM   15  C11 UNL     1      25.724   1.859  53.668  1.00  0.00     0.079 C 
HETATM   16  C12 UNL     1      23.451   4.134  52.645  1.00  0.00     0.168 C 
HETATM   17  N2  UNL     1      22.484   3.015  52.504  1.00  0.00    -0.301 N 
HETATM   18  C13 UNL     1      21.447   3.321  51.525  1.00  0.00     0.218 A 
HETATM   19  C14 UNL     1      20.259   4.051  51.666  1.00  0.00     0.042 A 
HETATM   20  C15 UNL     1      19.456   4.191  50.565  1.00  0.00     0.003 A 
HETATM   21  C16 UNL     1      19.762   3.651  49.335  1.00  0.00     0.021 A 
HETATM   22  C17 UNL     1      20.925   2.929  49.170  1.00  0.00     0.045 A 
HETATM   23 BR1  UNL     1      21.313   2.201  47.463  1.00  0.00    -0.048 Br
HETATM   24  C18 UNL     1      21.750   2.782  50.292  1.00  0.00     0.121 A 
HETATM   25  H1  UNL     1      22.967   0.892  53.968  1.00  0.00     0.165 HD
ENDROOT
BRANCH  24  26
HETATM   26  O3  UNL     1      22.897   2.033  50.002  1.00  0.00    -0.359 OA
HETATM   27  H18 UNL     1      23.774   2.576  50.018  1.00  0.00     0.217 HD
ENDBRANCH  24  26
TORSDOF 1
ENDMDL
MODEL 4
REMARK VINA RESULT:      -7.2      3.628      6.586
REMARK  1 active torsions:
REMARK  status: ('A' for Active; 'I' for Inactive)
REMARK    1  A    between atoms: C18_24  and  O3_25 
ROOT
HETATM    1  O1  UNL     1      22.649   3.243  51.438  1.00  0.00    -0.279 OA
HETATM    2  C1  UNL     1      23.676   3.810  51.298  1.00  0.00     0.225 C 
HETATM    3  N1  UNL     1      24.844   3.122  51.257  1.00  0.00    -0.335 N 
HETATM    4  C2  UNL     1      26.036   2.419  51.214  1.00  0.00     0.294 C 
HETATM    5  O2  UNL     1      27.014   3.354  50.705  1.00  0.00    -0.368 OA
HETATM    6  C3  UNL     1      26.575   3.868  49.485  1.00  0.00     0.197 C 
HETATM    7  C4  UNL     1      27.308   4.858  48.742  1.00  0.00    -0.001 C 
HETATM    8  C5  UNL     1      27.052   6.154  48.310  1.00  0.00     0.019 C 
HETATM    9  C6  UNL     1      25.771   6.574  48.719  1.00  0.00     0.142 C 
HETATM   10  F1  UNL     1      24.967   5.579  48.309  1.00  0.00    -0.234 F 
HETATM   11  C7  UNL     1      24.993   7.790  48.445  1.00  0.00     0.021 C 
HETATM   12  C8  UNL     1      23.728   7.449  48.861  1.00  0.00     0.008 C 
HETATM   13  C9  UNL     1      23.141   6.906  50.112  1.00  0.00    -0.044 C 
HETATM   14  C10 UNL     1      24.407   6.913  50.673  1.00  0.00    -0.014 C 
HETATM   15  C11 UNL     1      25.790   6.745  50.303  1.00  0.00     0.079 C 
HETATM   16  C12 UNL     1      22.641   6.342  51.448  1.00  0.00     0.168 C 
HETATM   17  N2  UNL     1      22.828   4.878  51.268  1.00  0.00    -0.301 N 
HETATM   18  C13 UNL     1      21.555   4.195  51.068  1.00  0.00     0.218 A 
HETATM   19  C14 UNL     1      20.614   3.746  52.004  1.00  0.00     0.042 A 
HETATM   20  C15 UNL     1      19.484   3.130  51.535  1.00  0.00     0.003 A 
HETATM   21  C16 UNL     1      19.234   2.934  50.195  1.00  0.00     0.021 A 
HETATM   22  C17 UNL     1      20.143   3.367  49.253  1.00  0.00     0.045 A 
HETATM   23 BR1  UNL     1      19.765   3.080  47.418  1.00  0.00    -0.048 Br
HETATM   24  C18 UNL     1      21.301   3.997  49.726  1.00  0.00     0.121 A 
HETATM   25  H1  UNL     1      25.309   4.027  51.306  1.00  0.00     0.165 HD
ENDROOT
BRANCH  24  26
HETATM   26  O3  UNL     1      22.145   4.391  48.681  1.00  0.00    -0.359 OA
HETATM   27  H18 UNL     1      21.655   4.609  47.799  1.00  0.00     0.217 HD
ENDBRANCH  24  26
TORSDOF 1
ENDMDL
MODEL 5
REMARK VINA RESULT:      -7.2      3.695      5.423
REMARK  1 active torsions:
REMARK  status: ('A' for Active; 'I' for Inactive)
REMARK    1  A    between atoms: C18_24  and  O3_25 
ROOT
HETATM    1  O1  UNL     1      25.007   3.162  50.797  1.00  0.00    -0.279 OA
HETATM    2  C1  UNL     1      25.343   4.268  50.557  1.00  0.00     0.225 C 
HETATM    3  N1  UNL     1      26.418   4.508  49.766  1.00  0.00    -0.335 N 
HETATM    4  C2  UNL     1      27.516   4.750  48.958  1.00  0.00     0.294 C 
HETATM    5  O2  UNL     1      27.432   6.152  48.609  1.00  0.00    -0.368 OA
HETATM    6  C3  UNL     1      26.190   6.413  48.032  1.00  0.00     0.197 C 
HETATM    7  C4  UNL     1      25.782   7.728  47.613  1.00  0.00    -0.001 C 
HETATM    8  C5  UNL     1      24.753   8.596  47.960  1.00  0.00     0.019 C 
HETATM    9  C6  UNL     1      23.942   8.035  48.966  1.00  0.00     0.142 C 
HETATM   10  F1  UNL     1      23.635   6.819  48.482  1.00  0.00    -0.234 F 
HETATM   11  C7  UNL     1      22.696   8.486  49.599  1.00  0.00     0.021 C 
HETATM   12  C8  UNL     1      22.256   7.360  50.255  1.00  0.00     0.008 C 
HETATM   13  C9  UNL     1      22.847   6.412  51.231  1.00  0.00    -0.044 C 
HETATM   14  C10 UNL     1      24.012   7.160  51.207  1.00  0.00    -0.014 C 
HETATM   15  C11 UNL     1      24.796   7.972  50.310  1.00  0.00     0.079 C 
HETATM   16  C12 UNL     1      23.556   5.492  52.234  1.00  0.00     0.168 C 
HETATM   17  N2  UNL     1      24.261   4.532  51.345  1.00  0.00    -0.301 N 
HETATM   18  C13 UNL     1      23.618   3.223  51.351  1.00  0.00     0.218 A 
HETATM   19  C14 UNL     1      23.747   2.158  52.251  1.00  0.00     0.042 A 
HETATM   20  C15 UNL     1      23.011   1.026  52.019  1.00  0.00     0.003 A 
HETATM   21  C16 UNL     1      22.157   0.889  50.946  1.00  0.00     0.021 A 
HETATM   22  C17 UNL     1      22.012   1.923  50.046  1.00  0.00     0.045 A 
HETATM   23 BR1  UNL     1      20.828   1.700  48.582  1.00  0.00    -0.048 Br
HETATM   24  C18 UNL     1      22.762   3.083  50.278  1.00  0.00     0.121 A 
HETATM   25  H1  UNL     1      26.332   5.483  50.046  1.00  0.00     0.165 HD
ENDROOT
BRANCH  24  26
HETATM   26  O3  UNL     1      22.531   4.059  49.300  1.00  0.00    -0.359 OA
HETATM   27  H18 UNL     1      22.001   3.721  48.482  1.00  0.00     0.217 HD
ENDBRANCH  24  26
TORSDOF 1
ENDMDL
MODEL 6
REMARK VINA RESULT:      -7.2      3.752      5.831
REMARK  1 active torsions:
REMARK  status: ('A' for Active; 'I' for Inactive)
REMARK    1  A    between atoms: C18_24  and  O3_25 
ROOT
HETATM    1  O1  UNL     1      24.912   3.016  50.753  1.00  0.00    -0.279 OA
HETATM    2  C1  UNL     1      24.031   2.239  50.878  1.00  0.00     0.225 C 
HETATM    3  N1  UNL     1      23.892   1.532  52.027  1.00  0.00    -0.335 N 
HETATM    4  C2  UNL     1      23.751   0.812  53.201  1.00  0.00     0.294 C 
HETATM    5  O2  UNL     1      22.425   0.238  53.141  1.00  0.00    -0.368 OA
HETATM    6  C3  UNL     1      21.489   1.253  52.942  1.00  0.00     0.197 C 
HETATM    7  C4  UNL     1      20.080   1.002  52.796  1.00  0.00    -0.001 C 
HETATM    8  C5  UNL     1      19.138   1.223  51.798  1.00  0.00     0.019 C 
HETATM    9  C6  UNL     1      19.734   1.827  50.673  1.00  0.00     0.142 C 
HETATM   10  F1  UNL     1      20.394   2.876  51.191  1.00  0.00    -0.234 F 
HETATM   11  C7  UNL     1      19.176   2.348  49.418  1.00  0.00     0.021 C 
HETATM   12  C8  UNL     1      20.217   3.081  48.897  1.00  0.00     0.008 C 
HETATM   13  C9  UNL     1      21.643   2.811  48.587  1.00  0.00    -0.044 C 
HETATM   14  C10 UNL     1      21.462   1.511  49.028  1.00  0.00    -0.014 C 
HETATM   15  C11 UNL     1      20.700   0.758  49.993  1.00  0.00     0.079 C 
HETATM   16  C12 UNL     1      23.102   2.426  48.308  1.00  0.00     0.168 C 
HETATM   17  N2  UNL     1      23.757   2.683  49.617  1.00  0.00    -0.301 N 
HETATM   18  C13 UNL     1      24.583   3.883  49.578  1.00  0.00     0.218 A 
HETATM   19  C14 UNL     1      25.897   4.061  49.125  1.00  0.00     0.042 A 
HETATM   20  C15 UNL     1      26.439   5.317  49.199  1.00  0.00     0.003 A 
HETATM   21  C16 UNL     1      25.755   6.404  49.696  1.00  0.00     0.021 A 
HETATM   22  C17 UNL     1      24.461   6.257  50.148  1.00  0.00     0.045 A 
HETATM   23 BR1  UNL     1      23.551   7.776  50.826  1.00  0.00    -0.048 Br
HETATM   24  C18 UNL     1      23.901   4.975  50.075  1.00  0.00     0.121 A 
HETATM   25  H1  UNL     1      23.189   0.984  51.534  1.00  0.00     0.165 HD
ENDROOT
BRANCH  24  26
HETATM   26  O3  UNL     1      22.588   4.950  50.561  1.00  0.00    -0.359 OA
HETATM   27  H18 UNL     1      21.941   5.583  50.067  1.00  0.00     0.217 HD
ENDBRANCH  24  26
TORSDOF 1
ENDMDL
MODEL 7
REMARK VINA RESULT:      -7.1      8.077     10.651
REMARK  1 active torsions:
REMARK  status: ('A' for Active; 'I' for Inactive)
REMARK    1  A    between atoms: C18_24  and  O3_25 
ROOT
HETATM    1  O1  UNL     1      31.610   5.519  47.058  1.00  0.00    -0.279 OA
HETATM    2  C1  UNL     1      31.046   6.557  47.023  1.00  0.00     0.225 C 
HETATM    3  N1  UNL     1      29.882   6.732  47.696  1.00  0.00    -0.335 N 
HETATM    4  C2  UNL     1      28.694   6.910  48.385  1.00  0.00     0.294 C 
HETATM    5  O2  UNL     1      28.473   8.339  48.404  1.00  0.00    -0.368 OA
HETATM    6  C3  UNL     1      29.587   8.974  48.952  1.00  0.00     0.197 C 
HETATM    7  C4  UNL     1      29.694  10.404  49.071  1.00  0.00    -0.001 C 
HETATM    8  C5  UNL     1      30.559  11.371  48.573  1.00  0.00     0.019 C 
HETATM    9  C6  UNL     1      31.545  10.786  47.755  1.00  0.00     0.142 C 
HETATM   10  F1  UNL     1      32.042   9.798  48.518  1.00  0.00    -0.234 F 
HETATM   11  C7  UNL     1      32.729  11.340  47.083  1.00  0.00     0.021 C 
HETATM   12  C8  UNL     1      33.434  10.216  46.722  1.00  0.00     0.008 C 
HETATM   13  C9  UNL     1      33.124   8.975  45.968  1.00  0.00    -0.044 C 
HETATM   14  C10 UNL     1      31.837   9.450  45.775  1.00  0.00    -0.014 C 
HETATM   15  C11 UNL     1      30.837  10.255  46.431  1.00  0.00     0.079 C 
HETATM   16  C12 UNL     1      32.695   7.731  45.178  1.00  0.00     0.168 C 
HETATM   17  N2  UNL     1      32.119   6.862  46.237  1.00  0.00    -0.301 N 
HETATM   18  C13 UNL     1      33.002   5.748  46.558  1.00  0.00     0.218 A 
HETATM   19  C14 UNL     1      33.161   4.509  45.923  1.00  0.00     0.042 A 
HETATM   20  C15 UNL     1      34.081   3.634  46.438  1.00  0.00     0.003 A 
HETATM   21  C16 UNL     1      34.851   3.917  47.545  1.00  0.00     0.021 A 
HETATM   22  C17 UNL     1      34.715   5.129  48.188  1.00  0.00     0.045 A 
HETATM   23 BR1  UNL     1      35.792   5.483  49.707  1.00  0.00    -0.048 Br
HETATM   24  C18 UNL     1      33.776   6.027  47.666  1.00  0.00     0.121 A 
HETATM   25  H1  UNL     1      29.799   7.619  47.202  1.00  0.00     0.165 HD
ENDROOT
BRANCH  24  26
HETATM   26  O3  UNL     1      33.728   7.218  48.400  1.00  0.00    -0.359 OA
HETATM   27  H18 UNL     1      33.833   8.073  47.831  1.00  0.00     0.217 HD
ENDBRANCH  24  26
TORSDOF 1
ENDMDL
MODEL 8
REMARK VINA RESULT:      -7.0      3.447      5.093
REMARK  1 active torsions:
REMARK  status: ('A' for Active; 'I' for Inactive)
REMARK    1  A    between atoms: C18_24  and  O3_25 
ROOT
HETATM    1  O1  UNL     1      21.907   2.948  52.402  1.00  0.00    -0.279 OA
HETATM    2  C1  UNL     1      21.559   3.585  51.470  1.00  0.00     0.225 C 
HETATM    3  N1  UNL     1      21.550   4.941  51.525  1.00  0.00    -0.335 N 
HETATM    4  C2  UNL     1      21.543   6.324  51.582  1.00  0.00     0.294 C 
HETATM    5  O2  UNL     1      21.399   6.763  50.212  1.00  0.00    -0.368 OA
HETATM    6  C3  UNL     1      22.411   6.198  49.436  1.00  0.00     0.197 C 
HETATM    7  C4  UNL     1      22.519   6.409  48.016  1.00  0.00    -0.001 C 
HETATM    8  C5  UNL     1      22.490   5.588  46.894  1.00  0.00     0.019 C 
HETATM    9  C6  UNL     1      22.298   4.243  47.263  1.00  0.00     0.142 C 
HETATM   10  F1  UNL     1      23.240   4.034  48.199  1.00  0.00    -0.234 F 
HETATM   11  C7  UNL     1      22.292   2.994  46.488  1.00  0.00     0.021 C 
HETATM   12  C8  UNL     1      22.372   2.025  47.460  1.00  0.00     0.008 C 
HETATM   13  C9  UNL     1      21.608   1.702  48.690  1.00  0.00    -0.044 C 
HETATM   14  C10 UNL     1      20.779   2.779  48.422  1.00  0.00    -0.014 C 
HETATM   15  C11 UNL     1      20.816   4.092  47.828  1.00  0.00     0.079 C 
HETATM   16  C12 UNL     1      20.752   1.461  49.941  1.00  0.00     0.168 C 
HETATM   17  N2  UNL     1      21.407   2.333  50.950  1.00  0.00    -0.301 N 
HETATM   18  C13 UNL     1      22.166   1.554  51.922  1.00  0.00     0.218 A 
HETATM   19  C14 UNL     1      21.739   0.893  53.081  1.00  0.00     0.042 A 
HETATM   20  C15 UNL     1      22.675   0.221  53.821  1.00  0.00     0.003 A 
HETATM   21  C16 UNL     1      24.009   0.168  53.479  1.00  0.00     0.021 A 
HETATM   22  C17 UNL     1      24.455   0.810  52.343  1.00  0.00     0.045 A 
HETATM   23 BR1  UNL     1      26.297   0.714  51.905  1.00  0.00    -0.048 Br
HETATM   24  C18 UNL     1      23.502   1.498  51.583  1.00  0.00     0.121 A 
HETATM   25  H1  UNL     1      21.051   4.914  50.638  1.00  0.00     0.165 HD
ENDROOT
BRANCH  24  26
HETATM   26  O3  UNL     1      24.073   2.108  50.458  1.00  0.00    -0.359 OA
HETATM   27  H18 UNL     1      23.585   2.961  50.145  1.00  0.00     0.217 HD
ENDBRANCH  24  26
TORSDOF 1
ENDMDL
MODEL 9
REMARK VINA RESULT:      -6.8      4.562      7.817
REMARK  1 active torsions:
REMARK  status: ('A' for Active; 'I' for Inactive)
REMARK    1  A    between atoms: C18_24  and  O3_25 
ROOT
HETATM    1  O1  UNL     1      19.912   5.053  49.205  1.00  0.00    -0.279 OA
HETATM    2  C1  UNL     1      20.963   4.649  49.565  1.00  0.00     0.225 C 
HETATM    3  N1  UNL     1      21.880   5.493  50.099  1.00  0.00    -0.335 N 
HETATM    4  C2  UNL     1      22.816   6.356  50.645  1.00  0.00     0.294 C 
HETATM    5  O2  UNL     1      23.805   5.503  51.268  1.00  0.00    -0.368 OA
HETATM    6  C3  UNL     1      23.176   4.647  52.172  1.00  0.00     0.197 C 
HETATM    7  C4  UNL     1      23.884   3.646  52.924  1.00  0.00    -0.001 C 
HETATM    8  C5  UNL     1      23.827   2.260  53.016  1.00  0.00     0.019 C 
HETATM    9  C6  UNL     1      22.843   1.742  52.151  1.00  0.00     0.142 C 
HETATM   10  F1  UNL     1      21.748   2.461  52.450  1.00  0.00    -0.234 F 
HETATM   11  C7  UNL     1      22.325   0.382  51.943  1.00  0.00     0.021 C 
HETATM   12  C8  UNL     1      21.181   0.596  51.210  1.00  0.00     0.008 C 
HETATM   13  C9  UNL     1      20.855   1.315  49.953  1.00  0.00    -0.044 C 
HETATM   14  C10 UNL     1      22.192   1.655  49.835  1.00  0.00    -0.014 C 
HETATM   15  C11 UNL     1      23.340   1.959  50.653  1.00  0.00     0.079 C 
HETATM   16  C12 UNL     1      20.629   2.090  48.648  1.00  0.00     0.168 C 
HETATM   17  N2  UNL     1      20.412   3.478  49.134  1.00  0.00    -0.301 N 
HETATM   18  C13 UNL     1      19.011   3.871  49.032  1.00  0.00     0.218 A 
HETATM   19  C14 UNL     1      18.289   4.366  47.938  1.00  0.00     0.042 A 
HETATM   20  C15 UNL     1      16.962   4.654  48.120  1.00  0.00     0.003 A 
HETATM   21  C16 UNL     1      16.312   4.480  49.322  1.00  0.00     0.021 A 
HETATM   22  C17 UNL     1      16.999   3.994  50.414  1.00  0.00     0.045 A 
HETATM   23 BR1  UNL     1      16.071   3.767  52.051  1.00  0.00    -0.048 Br
HETATM   24  C18 UNL     1      18.356   3.697  50.234  1.00  0.00     0.121 A 
HETATM   25  H1  UNL     1      22.538   4.718  50.043  1.00  0.00     0.165 HD
ENDROOT
BRANCH  24  26
HETATM   26  O3  UNL     1      18.945   3.213  51.408  1.00  0.00    -0.359 OA
HETATM   27  H18 UNL     1      18.847   2.195  51.543  1.00  0.00     0.217 HD
ENDBRANCH  24  26
TORSDOF 1
ENDMDL
