MODEL 1
REMARK VINA RESULT:      -8.6      0.000      0.000
REMARK  6 active torsions:
REMARK  status: ('A' for Active; 'I' for Inactive)
REMARK    1  A    between atoms: C2_4  and  N2_5 
REMARK    2  A    between atoms: N2_5  and  O2_6 
REMARK    3  A    between atoms: N2_5  and  C3_7 
REMARK    4  A    between atoms: C4_8  and  C5_9 
REMARK    5  A    between atoms: C8_15  and  N5_16 
REMARK    6  A    between atoms: N5_16  and  C9_17 
ROOT
HETATM    1  C5  UNL     1      24.245   1.542  52.946  1.00  0.00     0.052 A 
HETATM    2  C6  UNL     1      23.764   0.300  53.275  1.00  0.00     0.141 A 
HETATM    3 CL1  UNL     1      24.558  -0.667  54.480  1.00  0.00    -0.061 Cl
HETATM    4  N3  UNL     1      22.666  -0.163  52.654  1.00  0.00    -0.229 NA
HETATM    5  C7  UNL     1      22.053   0.579  51.727  1.00  0.00     0.237 A 
HETATM    6  N4  UNL     1      22.527   1.775  51.418  1.00  0.00    -0.223 NA
HETATM    7  C8  UNL     1      23.617   2.299  51.999  1.00  0.00     0.142 A 
ENDROOT
BRANCH   1   8
HETATM    8  C4  UNL     1      25.403   2.079  53.576  1.00  0.00     0.038 C 
HETATM    9  C3  UNL     1      26.678   2.167  53.791  1.00  0.00     0.120 C 
BRANCH   9  10
HETATM   10  N2  UNL     1      28.007   1.766  53.546  1.00  0.00    -0.246 N 
BRANCH  10  11
HETATM   11  C2  UNL     1      28.462   0.435  53.923  1.00  0.00     0.240 C 
HETATM   12  N1  UNL     1      27.812  -0.611  53.164  1.00  0.00    -0.311 N 
HETATM   13  C1  UNL     1      28.736  -1.707  53.319  1.00  0.00     0.362 C 
HETATM   14  H1  UNL     1      27.004  -0.921  52.574  1.00  0.00     0.167 HD
HETATM   15  O1  UNL     1      28.689  -2.971  53.172  1.00  0.00    -0.238 OA
HETATM   16  O3  UNL     1      29.993  -1.229  53.735  1.00  0.00    -0.300 OA
HETATM   17  C15 UNL     1      29.915   0.194  53.651  1.00  0.00     0.229 C 
ENDBRANCH  10  11
BRANCH  10  18
HETATM   18  O2  UNL     1      28.987   2.527  52.946  1.00  0.00    -0.286 OA
HETATM   19  H3  UNL     1      29.406   3.080  53.663  1.00  0.00     0.244 HD
ENDBRANCH  10  18
ENDBRANCH   9  10
ENDBRANCH   1   8
BRANCH   7  20
HETATM   20  N5  UNL     1      23.936   3.581  51.525  1.00  0.00    -0.340 N 
HETATM   21  H7  UNL     1      23.269   4.238  51.950  1.00  0.00     0.167 HD
BRANCH  20  22
HETATM   22  C9  UNL     1      24.907   4.098  50.649  1.00  0.00     0.033 A 
HETATM   23  C10 UNL     1      24.990   5.403  50.224  1.00  0.00     0.032 A 
HETATM   24  C11 UNL     1      25.953   5.883  49.365  1.00  0.00     0.044 A 
HETATM   25  C12 UNL     1      26.871   4.949  48.932  1.00  0.00     0.116 A 
HETATM   26  F1  UNL     1      27.850   5.345  48.083  1.00  0.00    -0.206 F 
HETATM   27  C13 UNL     1      26.862   3.625  49.307  1.00  0.00     0.044 A 
HETATM   28  C14 UNL     1      25.866   3.233  50.167  1.00  0.00     0.032 A 
ENDBRANCH  20  22
ENDBRANCH   7  20
TORSDOF 6
ENDMDL
MODEL 2
REMARK VINA RESULT:      -8.6      2.999      4.799
REMARK  6 active torsions:
REMARK  status: ('A' for Active; 'I' for Inactive)
REMARK    1  A    between atoms: C2_4  and  N2_5 
REMARK    2  A    between atoms: N2_5  and  O2_6 
REMARK    3  A    between atoms: N2_5  and  C3_7 
REMARK    4  A    between atoms: C4_8  and  C5_9 
REMARK    5  A    between atoms: C8_15  and  N5_16 
REMARK    6  A    between atoms: N5_16  and  C9_17 
ROOT
HETATM    1  C5  UNL     1      25.447   3.613  50.821  1.00  0.00     0.052 A 
HETATM    2  C6  UNL     1      25.657   4.454  49.757  1.00  0.00     0.141 A 
HETATM    3 CL1  UNL     1      27.109   4.341  48.810  1.00  0.00    -0.061 Cl
HETATM    4  N3  UNL     1      24.722   5.370  49.453  1.00  0.00    -0.229 NA
HETATM    5  C7  UNL     1      23.605   5.459  50.179  1.00  0.00     0.237 A 
HETATM    6  N4  UNL     1      23.415   4.643  51.204  1.00  0.00    -0.223 NA
HETATM    7  C8  UNL     1      24.305   3.705  51.562  1.00  0.00     0.142 A 
ENDROOT
BRANCH   1   8
HETATM    8  C4  UNL     1      26.405   2.625  51.184  1.00  0.00     0.038 C 
HETATM    9  C3  UNL     1      27.199   2.016  52.010  1.00  0.00     0.120 C 
BRANCH   9  10
HETATM   10  N2  UNL     1      27.768   1.855  53.289  1.00  0.00    -0.246 N 
BRANCH  10  11
HETATM   11  C2  UNL     1      28.192   0.541  53.752  1.00  0.00     0.240 C 
HETATM   12  N1  UNL     1      27.669  -0.532  52.937  1.00  0.00    -0.311 N 
HETATM   13  C1  UNL     1      28.583  -1.606  53.238  1.00  0.00     0.362 C 
HETATM   14  H1  UNL     1      26.953  -0.870  52.252  1.00  0.00     0.167 HD
HETATM   15  O1  UNL     1      28.579  -2.873  53.115  1.00  0.00    -0.238 OA
HETATM   16  O3  UNL     1      29.764  -1.094  53.808  1.00  0.00    -0.300 OA
HETATM   17  C15 UNL     1      29.673   0.325  53.682  1.00  0.00     0.229 C 
ENDBRANCH  10  11
BRANCH  10  18
HETATM   18  O2  UNL     1      27.996   2.857  54.207  1.00  0.00    -0.286 OA
HETATM   19  H3  UNL     1      28.778   3.381  53.878  1.00  0.00     0.244 HD
ENDBRANCH  10  18
ENDBRANCH   9  10
ENDBRANCH   1   8
BRANCH   7  20
HETATM   20  N5  UNL     1      23.896   2.948  52.670  1.00  0.00    -0.340 N 
HETATM   21  H7  UNL     1      24.086   3.509  53.511  1.00  0.00     0.167 HD
BRANCH  20  22
HETATM   22  C9  UNL     1      23.329   1.673  52.842  1.00  0.00     0.033 A 
HETATM   23  C10 UNL     1      22.053   1.307  52.480  1.00  0.00     0.032 A 
HETATM   24  C11 UNL     1      21.522   0.050  52.661  1.00  0.00     0.044 A 
HETATM   25  C12 UNL     1      22.370  -0.866  53.246  1.00  0.00     0.116 A 
HETATM   26  F1  UNL     1      21.919  -2.127  53.458  1.00  0.00    -0.206 F 
HETATM   27  C13 UNL     1      23.660  -0.586  53.638  1.00  0.00     0.044 A 
HETATM   28  C14 UNL     1      24.107   0.694  53.421  1.00  0.00     0.032 A 
ENDBRANCH  20  22
ENDBRANCH   7  20
TORSDOF 6
ENDMDL
MODEL 3
REMARK VINA RESULT:      -8.5      0.417      1.036
REMARK  6 active torsions:
REMARK  status: ('A' for Active; 'I' for Inactive)
REMARK    1  A    between atoms: C2_4  and  N2_5 
REMARK    2  A    between atoms: N2_5  and  O2_6 
REMARK    3  A    between atoms: N2_5  and  C3_7 
REMARK    4  A    between atoms: C4_8  and  C5_9 
REMARK    5  A    between atoms: C8_15  and  N5_16 
REMARK    6  A    between atoms: N5_16  and  C9_17 
ROOT
HETATM    1  C5  UNL     1      23.810   1.388  52.842  1.00  0.00     0.052 A 
HETATM    2  C6  UNL     1      23.297   0.166  53.198  1.00  0.00     0.141 A 
HETATM    3 CL1  UNL     1      23.991  -0.738  54.510  1.00  0.00    -0.061 Cl
HETATM    4  N3  UNL     1      22.248  -0.327  52.519  1.00  0.00    -0.229 NA
HETATM    5  C7  UNL     1      21.714   0.366  51.511  1.00  0.00     0.237 A 
HETATM    6  N4  UNL     1      22.217   1.543  51.176  1.00  0.00    -0.223 NA
HETATM    7  C8  UNL     1      23.262   2.095  51.812  1.00  0.00     0.142 A 
ENDROOT
BRANCH   1   8
HETATM    8  C4  UNL     1      24.920   1.955  53.531  1.00  0.00     0.038 C 
HETATM    9  C3  UNL     1      26.183   2.132  53.761  1.00  0.00     0.120 C 
BRANCH   9  10
HETATM   10  N2  UNL     1      27.541   1.877  53.482  1.00  0.00    -0.246 N 
BRANCH  10  11
HETATM   11  C2  UNL     1      28.160   0.624  53.891  1.00  0.00     0.240 C 
HETATM   12  N1  UNL     1      27.659  -0.512  53.151  1.00  0.00    -0.311 N 
HETATM   13  C1  UNL     1      28.716  -1.476  53.337  1.00  0.00     0.362 C 
HETATM   14  H1  UNL     1      26.905  -0.937  52.562  1.00  0.00     0.167 HD
HETATM   15  O1  UNL     1      28.835  -2.738  53.218  1.00  0.00    -0.238 OA
HETATM   16  O3  UNL     1      29.896  -0.830  53.751  1.00  0.00    -0.300 OA
HETATM   17  C15 UNL     1      29.635   0.569  53.635  1.00  0.00     0.229 C 
ENDBRANCH  10  11
BRANCH  10  18
HETATM   18  O2  UNL     1      28.405   2.721  52.816  1.00  0.00    -0.286 OA
HETATM   19  H3  UNL     1      28.984   3.147  53.507  1.00  0.00     0.244 HD
ENDBRANCH  10  18
ENDBRANCH   9  10
ENDBRANCH   1   8
BRANCH   7  20
HETATM   20  N5  UNL     1      23.624   3.349  51.297  1.00  0.00    -0.340 N 
HETATM   21  H7  UNL     1      22.907   4.022  51.597  1.00  0.00     0.167 HD
BRANCH  20  22
HETATM   22  C9  UNL     1      24.688   3.825  50.510  1.00  0.00     0.033 A 
HETATM   23  C10 UNL     1      25.809   3.110  50.159  1.00  0.00     0.032 A 
HETATM   24  C11 UNL     1      26.838   3.602  49.387  1.00  0.00     0.044 A 
HETATM   25  C12 UNL     1      26.681   4.905  48.963  1.00  0.00     0.116 A 
HETATM   26  F1  UNL     1      27.652   5.461  48.198  1.00  0.00    -0.206 F 
HETATM   27  C13 UNL     1      25.593   5.692  49.267  1.00  0.00     0.044 A 
HETATM   28  C14 UNL     1      24.615   5.120  50.043  1.00  0.00     0.032 A 
ENDBRANCH  20  22
ENDBRANCH   7  20
TORSDOF 6
ENDMDL
MODEL 4
REMARK VINA RESULT:      -8.4      3.323      5.882
REMARK  6 active torsions:
REMARK  status: ('A' for Active; 'I' for Inactive)
REMARK    1  A    between atoms: C2_4  and  N2_5 
REMARK    2  A    between atoms: N2_5  and  O2_6 
REMARK    3  A    between atoms: N2_5  and  C3_7 
REMARK    4  A    between atoms: C4_8  and  C5_9 
REMARK    5  A    between atoms: C8_15  and  N5_16 
REMARK    6  A    between atoms: N5_16  and  C9_17 
ROOT
HETATM    1  C5  UNL     1      22.942   0.322  53.594  1.00  0.00     0.052 A 
HETATM    2  C6  UNL     1      21.847  -0.209  54.228  1.00  0.00     0.141 A 
HETATM    3 CL1  UNL     1      20.244   0.324  53.824  1.00  0.00    -0.061 Cl
HETATM    4  N3  UNL     1      22.028  -1.152  55.168  1.00  0.00    -0.229 NA
HETATM    5  C7  UNL     1      23.260  -1.564  55.480  1.00  0.00     0.237 A 
HETATM    6  N4  UNL     1      24.308  -1.043  54.862  1.00  0.00    -0.223 NA
HETATM    7  C8  UNL     1      24.199  -0.101  53.914  1.00  0.00     0.142 A 
ENDROOT
BRANCH   1   8
HETATM    8  C4  UNL     1      22.804   1.321  52.589  1.00  0.00     0.038 C 
HETATM    9  C3  UNL     1      23.166   2.388  51.947  1.00  0.00     0.120 C 
BRANCH   9  10
HETATM   10  N2  UNL     1      24.048   3.466  51.735  1.00  0.00    -0.246 N 
BRANCH  10  11
HETATM   11  C2  UNL     1      24.916   3.497  50.566  1.00  0.00     0.240 C 
HETATM   12  N1  UNL     1      25.400   4.826  50.268  1.00  0.00    -0.311 N 
HETATM   13  C1  UNL     1      26.567   4.544  49.469  1.00  0.00     0.362 C 
HETATM   14  H1  UNL     1      25.291   5.863  50.365  1.00  0.00     0.167 HD
HETATM   15  O1  UNL     1      27.299   5.195  48.655  1.00  0.00    -0.238 OA
HETATM   16  O3  UNL     1      26.975   3.210  49.658  1.00  0.00    -0.300 OA
HETATM   17  C15 UNL     1      26.179   2.709  50.731  1.00  0.00     0.229 C 
ENDBRANCH  10  11
BRANCH  10  18
HETATM   18  O2  UNL     1      24.190   4.570  52.549  1.00  0.00    -0.286 OA
HETATM   19  H3  UNL     1      24.358   4.232  53.472  1.00  0.00     0.244 HD
ENDBRANCH  10  18
ENDBRANCH   9  10
ENDBRANCH   1   8
BRANCH   7  20
HETATM   20  N5  UNL     1      25.437   0.301  53.388  1.00  0.00    -0.340 N 
HETATM   21  H7  UNL     1      25.267   1.130  52.803  1.00  0.00     0.167 HD
BRANCH  20  22
HETATM   22  C9  UNL     1      26.757  -0.173  53.493  1.00  0.00     0.033 A 
HETATM   23  C10 UNL     1      27.260  -1.289  52.867  1.00  0.00     0.032 A 
HETATM   24  C11 UNL     1      28.558  -1.732  52.988  1.00  0.00     0.044 A 
HETATM   25  C12 UNL     1      29.365  -0.966  53.804  1.00  0.00     0.116 A 
HETATM   26  F1  UNL     1      30.657  -1.338  53.974  1.00  0.00    -0.206 F 
HETATM   27  C13 UNL     1      28.944   0.164  54.468  1.00  0.00     0.044 A 
HETATM   28  C14 UNL     1      27.633   0.532  54.290  1.00  0.00     0.032 A 
ENDBRANCH  20  22
ENDBRANCH   7  20
TORSDOF 6
ENDMDL
MODEL 5
REMARK VINA RESULT:      -8.4      1.593      2.448
REMARK  6 active torsions:
REMARK  status: ('A' for Active; 'I' for Inactive)
REMARK    1  A    between atoms: C2_4  and  N2_5 
REMARK    2  A    between atoms: N2_5  and  O2_6 
REMARK    3  A    between atoms: N2_5  and  C3_7 
REMARK    4  A    between atoms: C4_8  and  C5_9 
REMARK    5  A    between atoms: C8_15  and  N5_16 
REMARK    6  A    between atoms: N5_16  and  C9_17 
ROOT
HETATM    1  C5  UNL     1      22.871   0.313  53.362  1.00  0.00     0.052 A 
HETATM    2  C6  UNL     1      21.729  -0.448  53.331  1.00  0.00     0.141 A 
HETATM    3 CL1  UNL     1      21.677  -2.001  54.108  1.00  0.00    -0.061 Cl
HETATM    4  N3  UNL     1      20.646   0.023  52.690  1.00  0.00    -0.229 NA
HETATM    5  C7  UNL     1      20.684   1.217  52.092  1.00  0.00     0.237 A 
HETATM    6  N4  UNL     1      21.791   1.941  52.128  1.00  0.00    -0.223 NA
HETATM    7  C8  UNL     1      22.907   1.532  52.751  1.00  0.00     0.142 A 
ENDROOT
BRANCH   1   8
HETATM    8  C4  UNL     1      24.044  -0.140  54.029  1.00  0.00     0.038 C 
HETATM    9  C3  UNL     1      25.267  -0.567  54.077  1.00  0.00     0.120 C 
BRANCH   9  10
HETATM   10  N2  UNL     1      26.474  -0.942  53.453  1.00  0.00    -0.246 N 
BRANCH  10  11
HETATM   11  C2  UNL     1      27.593  -0.014  53.381  1.00  0.00     0.240 C 
HETATM   12  N1  UNL     1      27.614   0.920  54.484  1.00  0.00    -0.311 N 
HETATM   13  C1  UNL     1      28.991   1.346  54.486  1.00  0.00     0.362 C 
HETATM   14  H1  UNL     1      27.100   1.409  55.255  1.00  0.00     0.167 HD
HETATM   15  O1  UNL     1      29.646   2.324  54.972  1.00  0.00    -0.238 OA
HETATM   16  O3  UNL     1      29.784   0.433  53.765  1.00  0.00    -0.300 OA
HETATM   17  C15 UNL     1      28.933  -0.676  53.475  1.00  0.00     0.229 C 
ENDBRANCH  10  11
BRANCH  10  18
HETATM   18  O2  UNL     1      26.741  -2.165  52.875  1.00  0.00    -0.286 OA
HETATM   19  H3  UNL     1      26.072  -2.810  53.237  1.00  0.00     0.244 HD
ENDBRANCH  10  18
ENDBRANCH   9  10
ENDBRANCH   1   8
BRANCH   7  20
HETATM   20  N5  UNL     1      23.957   2.460  52.671  1.00  0.00    -0.340 N 
HETATM   21  H7  UNL     1      24.189   2.743  53.632  1.00  0.00     0.167 HD
BRANCH  20  22
HETATM   22  C9  UNL     1      24.690   3.036  51.618  1.00  0.00     0.033 A 
HETATM   23  C10 UNL     1      24.368   4.199  50.959  1.00  0.00     0.032 A 
HETATM   24  C11 UNL     1      25.105   4.740  49.929  1.00  0.00     0.044 A 
HETATM   25  C12 UNL     1      26.232   4.028  49.577  1.00  0.00     0.116 A 
HETATM   26  F1  UNL     1      27.009   4.497  48.570  1.00  0.00    -0.206 F 
HETATM   27  C13 UNL     1      26.628   2.857  50.182  1.00  0.00     0.044 A 
HETATM   28  C14 UNL     1      25.833   2.389  51.200  1.00  0.00     0.032 A 
ENDBRANCH  20  22
ENDBRANCH   7  20
TORSDOF 6
ENDMDL
MODEL 6
REMARK VINA RESULT:      -8.0      4.281      6.736
REMARK  6 active torsions:
REMARK  status: ('A' for Active; 'I' for Inactive)
REMARK    1  A    between atoms: C2_4  and  N2_5 
REMARK    2  A    between atoms: N2_5  and  O2_6 
REMARK    3  A    between atoms: N2_5  and  C3_7 
REMARK    4  A    between atoms: C4_8  and  C5_9 
REMARK    5  A    between atoms: C8_15  and  N5_16 
REMARK    6  A    between atoms: N5_16  and  C9_17 
ROOT
HETATM    1  C5  UNL     1      22.413  -0.078  53.412  1.00  0.00     0.052 A 
HETATM    2  C6  UNL     1      21.356  -0.737  53.988  1.00  0.00     0.141 A 
HETATM    3 CL1  UNL     1      19.737  -0.496  53.404  1.00  0.00    -0.061 Cl
HETATM    4  N3  UNL     1      21.587  -1.576  55.012  1.00  0.00    -0.229 NA
HETATM    5  C7  UNL     1      22.831  -1.762  55.462  1.00  0.00     0.237 A 
HETATM    6  N4  UNL     1      23.842  -1.120  54.899  1.00  0.00    -0.223 NA
HETATM    7  C8  UNL     1      23.683  -0.270  53.873  1.00  0.00     0.142 A 
ENDROOT
BRANCH   1   8
HETATM    8  C4  UNL     1      22.222   0.820  52.323  1.00  0.00     0.038 C 
HETATM    9  C3  UNL     1      21.843   1.937  51.785  1.00  0.00     0.120 C 
BRANCH   9  10
HETATM   10  N2  UNL     1      21.283   3.228  51.873  1.00  0.00    -0.246 N 
BRANCH  10  11
HETATM   11  C2  UNL     1      21.943   4.368  51.254  1.00  0.00     0.240 C 
HETATM   12  N1  UNL     1      22.638   5.197  52.213  1.00  0.00    -0.311 N 
HETATM   13  C1  UNL     1      23.581   5.894  51.374  1.00  0.00     0.362 C 
HETATM   14  H1  UNL     1      22.761   5.510  53.205  1.00  0.00     0.167 HD
HETATM   15  O1  UNL     1      24.293   6.945  51.475  1.00  0.00    -0.238 OA
HETATM   16  O3  UNL     1      23.730   5.221  50.147  1.00  0.00    -0.300 OA
HETATM   17  C15 UNL     1      23.026   3.988  50.292  1.00  0.00     0.229 C 
ENDBRANCH  10  11
BRANCH  10  18
HETATM   18  O2  UNL     1      20.105   3.558  52.508  1.00  0.00    -0.286 OA
HETATM   19  H3  UNL     1      19.576   4.113  51.870  1.00  0.00     0.244 HD
ENDBRANCH  10  18
ENDBRANCH   9  10
ENDBRANCH   1   8
BRANCH   7  20
HETATM   20  N5  UNL     1      24.889   0.293  53.427  1.00  0.00    -0.340 N 
HETATM   21  H7  UNL     1      24.650   1.082  52.814  1.00  0.00     0.167 HD
BRANCH  20  22
HETATM   22  C9  UNL     1      26.250   0.006  53.636  1.00  0.00     0.033 A 
HETATM   23  C10 UNL     1      27.056   0.589  54.585  1.00  0.00     0.032 A 
HETATM   24  C11 UNL     1      28.388   0.290  54.767  1.00  0.00     0.044 A 
HETATM   25  C12 UNL     1      28.895  -0.667  53.914  1.00  0.00     0.116 A 
HETATM   26  F1  UNL     1      30.200  -1.016  54.030  1.00  0.00    -0.206 F 
HETATM   27  C13 UNL     1      28.161  -1.301  52.937  1.00  0.00     0.044 A 
HETATM   28  C14 UNL     1      26.840  -0.940  52.826  1.00  0.00     0.032 A 
ENDBRANCH  20  22
ENDBRANCH   7  20
TORSDOF 6
ENDMDL
MODEL 7
REMARK VINA RESULT:      -8.0      3.472      5.699
REMARK  6 active torsions:
REMARK  status: ('A' for Active; 'I' for Inactive)
REMARK    1  A    between atoms: C2_4  and  N2_5 
REMARK    2  A    between atoms: N2_5  and  O2_6 
REMARK    3  A    between atoms: N2_5  and  C3_7 
REMARK    4  A    between atoms: C4_8  and  C5_9 
REMARK    5  A    between atoms: C8_15  and  N5_16 
REMARK    6  A    between atoms: N5_16  and  C9_17 
ROOT
HETATM    1  C5  UNL     1      27.276   0.471  53.620  1.00  0.00     0.052 A 
HETATM    2  C6  UNL     1      28.558  -0.017  53.650  1.00  0.00     0.141 A 
HETATM    3 CL1  UNL     1      28.866  -1.714  53.438  1.00  0.00    -0.061 Cl
HETATM    4  N3  UNL     1      29.579   0.835  53.845  1.00  0.00    -0.229 NA
HETATM    5  C7  UNL     1      29.345   2.139  54.009  1.00  0.00     0.237 A 
HETATM    6  N4  UNL     1      28.103   2.598  53.979  1.00  0.00    -0.223 NA
HETATM    7  C8  UNL     1      27.039   1.804  53.787  1.00  0.00     0.142 A 
ENDROOT
BRANCH   1   8
HETATM    8  C4  UNL     1      26.161  -0.389  53.415  1.00  0.00     0.038 C 
HETATM    9  C3  UNL     1      24.992  -0.873  53.701  1.00  0.00     0.120 C 
BRANCH   9  10
HETATM   10  N2  UNL     1      23.834  -0.922  54.503  1.00  0.00    -0.246 N 
BRANCH  10  11
HETATM   11  C2  UNL     1      22.585  -0.333  54.041  1.00  0.00     0.240 C 
HETATM   12  N1  UNL     1      22.595  -0.049  52.624  1.00  0.00    -0.311 N 
HETATM   13  C1  UNL     1      21.186   0.018  52.325  1.00  0.00     0.362 C 
HETATM   14  H1  UNL     1      23.143   0.123  51.747  1.00  0.00     0.167 HD
HETATM   15  O1  UNL     1      20.472   0.491  51.383  1.00  0.00    -0.238 OA
HETATM   16  O3  UNL     1      20.442  -0.602  53.347  1.00  0.00    -0.300 OA
HETATM   17  C15 UNL     1      21.400  -1.235  54.195  1.00  0.00     0.229 C 
ENDBRANCH  10  11
BRANCH  10  18
HETATM   18  O2  UNL     1      23.734  -1.507  55.748  1.00  0.00    -0.286 OA
HETATM   19  H3  UNL     1      23.692  -0.766  56.415  1.00  0.00     0.244 HD
ENDBRANCH  10  18
ENDBRANCH   9  10
ENDBRANCH   1   8
BRANCH   7  20
HETATM   20  N5  UNL     1      25.821   2.502  53.784  1.00  0.00    -0.340 N 
HETATM   21  H7  UNL     1      25.663   2.846  54.741  1.00  0.00     0.167 HD
BRANCH  20  22
HETATM   22  C9  UNL     1      24.852   2.794  52.809  1.00  0.00     0.033 A 
HETATM   23  C10 UNL     1      23.615   3.347  53.047  1.00  0.00     0.032 A 
HETATM   24  C11 UNL     1      22.683   3.622  52.072  1.00  0.00     0.044 A 
HETATM   25  C12 UNL     1      23.068   3.303  50.787  1.00  0.00     0.116 A 
HETATM   26  F1  UNL     1      22.204   3.544  49.771  1.00  0.00    -0.206 F 
HETATM   27  C13 UNL     1      24.284   2.747  50.459  1.00  0.00     0.044 A 
HETATM   28  C14 UNL     1      25.152   2.506  51.495  1.00  0.00     0.032 A 
ENDBRANCH  20  22
ENDBRANCH   7  20
TORSDOF 6
ENDMDL
MODEL 8
REMARK VINA RESULT:      -7.8      1.981      2.754
REMARK  6 active torsions:
REMARK  status: ('A' for Active; 'I' for Inactive)
REMARK    1  A    between atoms: C2_4  and  N2_5 
REMARK    2  A    between atoms: N2_5  and  O2_6 
REMARK    3  A    between atoms: N2_5  and  C3_7 
REMARK    4  A    between atoms: C4_8  and  C5_9 
REMARK    5  A    between atoms: C8_15  and  N5_16 
REMARK    6  A    between atoms: N5_16  and  C9_17 
ROOT
HETATM    1  C5  UNL     1      22.659   2.717  51.228  1.00  0.00     0.052 A 
HETATM    2  C6  UNL     1      21.342   2.367  51.067  1.00  0.00     0.141 A 
HETATM    3 CL1  UNL     1      20.837   0.713  51.240  1.00  0.00    -0.061 Cl
HETATM    4  N3  UNL     1      20.442   3.321  50.774  1.00  0.00    -0.229 NA
HETATM    5  C7  UNL     1      20.828   4.592  50.642  1.00  0.00     0.237 A 
HETATM    6  N4  UNL     1      22.102   4.917  50.798  1.00  0.00    -0.223 NA
HETATM    7  C8  UNL     1      23.051   4.016  51.092  1.00  0.00     0.142 A 
ENDROOT
BRANCH   1   8
HETATM    8  C4  UNL     1      23.651   1.745  51.540  1.00  0.00     0.038 C 
HETATM    9  C3  UNL     1      24.760   1.340  52.076  1.00  0.00     0.120 C 
BRANCH   9  10
HETATM   10  N2  UNL     1      25.933   1.573  52.822  1.00  0.00    -0.246 N 
BRANCH  10  11
HETATM   11  C2  UNL     1      26.739   0.461  53.305  1.00  0.00     0.240 C 
HETATM   12  N1  UNL     1      28.131   0.580  52.931  1.00  0.00    -0.311 N 
HETATM   13  C1  UNL     1      28.771  -0.279  53.897  1.00  0.00     0.362 C 
HETATM   14  H1  UNL     1      28.858   0.992  52.300  1.00  0.00     0.167 HD
HETATM   15  O1  UNL     1      29.899  -0.861  53.998  1.00  0.00    -0.238 OA
HETATM   16  O3  UNL     1      27.911  -0.512  54.987  1.00  0.00    -0.300 OA
HETATM   17  C15 UNL     1      26.799   0.364  54.798  1.00  0.00     0.229 C 
ENDBRANCH  10  11
BRANCH  10  18
HETATM   18  O2  UNL     1      26.445   2.807  53.163  1.00  0.00    -0.286 OA
HETATM   19  H3  UNL     1      25.782   3.240  53.769  1.00  0.00     0.244 HD
ENDBRANCH  10  18
ENDBRANCH   9  10
ENDBRANCH   1   8
BRANCH   7  20
HETATM   20  N5  UNL     1      24.330   4.582  51.220  1.00  0.00    -0.340 N 
HETATM   21  H7  UNL     1      24.467   4.804  52.215  1.00  0.00     0.167 HD
BRANCH  20  22
HETATM   22  C9  UNL     1      25.371   4.884  50.325  1.00  0.00     0.033 A 
HETATM   23  C10 UNL     1      26.262   3.979  49.796  1.00  0.00     0.032 A 
HETATM   24  C11 UNL     1      27.275   4.303  48.921  1.00  0.00     0.044 A 
HETATM   25  C12 UNL     1      27.355   5.638  48.586  1.00  0.00     0.116 A 
HETATM   26  F1  UNL     1      28.328   6.035  47.729  1.00  0.00    -0.206 F 
HETATM   27  C13 UNL     1      26.507   6.609  49.068  1.00  0.00     0.044 A 
HETATM   28  C14 UNL     1      25.526   6.197  49.936  1.00  0.00     0.032 A 
ENDBRANCH  20  22
ENDBRANCH   7  20
TORSDOF 6
ENDMDL
MODEL 9
REMARK VINA RESULT:      -7.8      3.440      5.450
REMARK  6 active torsions:
REMARK  status: ('A' for Active; 'I' for Inactive)
REMARK    1  A    between atoms: C2_4  and  N2_5 
REMARK    2  A    between atoms: N2_5  and  O2_6 
REMARK    3  A    between atoms: N2_5  and  C3_7 
REMARK    4  A    between atoms: C4_8  and  C5_9 
REMARK    5  A    between atoms: C8_15  and  N5_16 
REMARK    6  A    between atoms: N5_16  and  C9_17 
ROOT
HETATM    1  C5  UNL     1      26.290   1.144  53.028  1.00  0.00     0.052 A 
HETATM    2  C6  UNL     1      26.797   0.854  54.270  1.00  0.00     0.141 A 
HETATM    3 CL1  UNL     1      25.905  -0.139  55.382  1.00  0.00    -0.061 Cl
HETATM    4  N3  UNL     1      27.997   1.348  54.619  1.00  0.00    -0.229 NA
HETATM    5  C7  UNL     1      28.684   2.111  53.766  1.00  0.00     0.237 A 
HETATM    6  N4  UNL     1      28.185   2.385  52.571  1.00  0.00    -0.223 NA
HETATM    7  C8  UNL     1      26.994   1.924  52.158  1.00  0.00     0.142 A 
ENDROOT
BRANCH   1   8
HETATM    8  C4  UNL     1      25.024   0.644  52.609  1.00  0.00     0.038 C 
HETATM    9  C3  UNL     1      23.733   0.681  52.504  1.00  0.00     0.120 C 
BRANCH   9  10
HETATM   10  N2  UNL     1      22.487   1.295  52.743  1.00  0.00    -0.246 N 
BRANCH  10  11
HETATM   11  C2  UNL     1      21.436   0.588  53.460  1.00  0.00     0.240 C 
HETATM   12  N1  UNL     1      20.203   0.513  52.708  1.00  0.00    -0.311 N 
HETATM   13  C1  UNL     1      19.539  -0.603  53.336  1.00  0.00     0.362 C 
HETATM   14  H1  UNL     1      19.596   0.888  51.941  1.00  0.00     0.167 HD
HETATM   15  O1  UNL     1      18.347  -1.047  53.389  1.00  0.00    -0.238 OA
HETATM   16  O3  UNL     1      20.466  -1.373  54.064  1.00  0.00    -0.300 OA
HETATM   17  C15 UNL     1      21.752  -0.851  53.730  1.00  0.00     0.229 C 
ENDBRANCH  10  11
BRANCH  10  18
HETATM   18  O2  UNL     1      22.126   2.571  52.364  1.00  0.00    -0.286 OA
HETATM   19  H3  UNL     1      22.335   3.172  53.131  1.00  0.00     0.244 HD
ENDBRANCH  10  18
ENDBRANCH   9  10
ENDBRANCH   1   8
BRANCH   7  20
HETATM   20  N5  UNL     1      26.665   2.330  50.856  1.00  0.00    -0.340 N 
HETATM   21  H7  UNL     1      26.845   1.532  50.232  1.00  0.00     0.167 HD
BRANCH  20  22
HETATM   22  C9  UNL     1      26.183   3.520  50.283  1.00  0.00     0.033 A 
HETATM   23  C10 UNL     1      24.983   4.124  50.579  1.00  0.00     0.032 A 
HETATM   24  C11 UNL     1      24.534   5.290  50.002  1.00  0.00     0.044 A 
HETATM   25  C12 UNL     1      25.385   5.850  49.072  1.00  0.00     0.116 A 
HETATM   26  F1  UNL     1      25.012   7.000  48.459  1.00  0.00    -0.206 F 
HETATM   27  C13 UNL     1      26.602   5.314  48.716  1.00  0.00     0.044 A 
HETATM   28  C14 UNL     1      26.970   4.148  49.341  1.00  0.00     0.032 A 
ENDBRANCH  20  22
ENDBRANCH   7  20
TORSDOF 6
ENDMDL
