MODEL 1
REMARK VINA RESULT:      -8.2      0.000      0.000
REMARK  2 active torsions:
REMARK  status: ('A' for Active; 'I' for Inactive)
REMARK    1  A    between atoms: C9_10  and  N2_11 
REMARK    2  A    between atoms: N2_11  and  C10_12 
ROOT
HETATM    1  C1  UNL     1      21.354   0.657  49.778  1.00  0.00     0.045 C 
HETATM    2  C2  UNL     1      21.975   1.343  50.939  1.00  0.00    -0.061 C 
HETATM    3  C3  UNL     1      22.025   0.486  51.999  1.00  0.00     0.005 C 
HETATM    4  C4  UNL     1      22.957   0.912  53.114  1.00  0.00     0.010 C 
HETATM    5  C5  UNL     1      23.418   2.079  52.618  1.00  0.00    -0.025 C 
HETATM    6  C6  UNL     1      22.497   3.249  52.223  1.00  0.00     0.070 C 
HETATM    7  C7  UNL     1      22.415   2.773  50.715  1.00  0.00     0.115 C 
HETATM    8  N1  UNL     1      23.795   2.911  50.269  1.00  0.00    -0.376 N 
HETATM    9  C8  UNL     1      25.017   2.724  51.015  1.00  0.00     0.105 A 
HETATM   10  C9  UNL     1      26.348   2.863  50.691  1.00  0.00     0.158 A 
HETATM   11  N3  UNL     1      27.276   2.559  51.599  1.00  0.00    -0.222 NA
HETATM   12  C16 UNL     1      27.041   2.111  52.863  1.00  0.00     0.236 A 
HETATM   13  N4  UNL     1      25.744   1.930  53.320  1.00  0.00    -0.239 NA
HETATM   14  C17 UNL     1      24.873   2.258  52.340  1.00  0.00     0.094 A 
HETATM   15  H9  UNL     1      24.044   3.182  49.286  1.00  0.00     0.160 HD
ENDROOT
BRANCH  10  16
HETATM   16  N2  UNL     1      26.548   3.335  49.372  1.00  0.00    -0.339 N 
HETATM   17  H10 UNL     1      26.463   2.621  48.627  1.00  0.00     0.167 HD
BRANCH  16  18
HETATM   18  C10 UNL     1      26.849   4.678  49.010  1.00  0.00     0.035 A 
HETATM   19  C11 UNL     1      25.896   5.667  49.089  1.00  0.00     0.029 A 
HETATM   20  C12 UNL     1      26.205   6.965  48.715  1.00  0.00     0.004 A 
HETATM   21  C13 UNL     1      27.510   7.206  48.264  1.00  0.00     0.019 A 
HETATM   22  C14 UNL     1      28.468   6.212  48.185  1.00  0.00     0.013 A 
HETATM   23 BR1  UNL     1      30.246   6.578  47.559  1.00  0.00    -0.051 Br
HETATM   24  C15 UNL     1      28.146   4.928  48.560  1.00  0.00     0.048 A 
ENDBRANCH  16  18
ENDBRANCH  10  16
TORSDOF 2
ENDMDL
MODEL 2
REMARK VINA RESULT:      -8.1      2.279      4.359
REMARK  2 active torsions:
REMARK  status: ('A' for Active; 'I' for Inactive)
REMARK    1  A    between atoms: C9_10  and  N2_11 
REMARK    2  A    between atoms: N2_11  and  C10_12 
ROOT
HETATM    1  C1  UNL     1      28.694   1.539  53.779  1.00  0.00     0.045 C 
HETATM    2  C2  UNL     1      27.587   0.553  53.699  1.00  0.00    -0.061 C 
HETATM    3  C3  UNL     1      27.163   0.243  54.957  1.00  0.00     0.005 C 
HETATM    4  C4  UNL     1      25.817  -0.446  55.020  1.00  0.00     0.010 C 
HETATM    5  C5  UNL     1      25.515  -0.518  53.708  1.00  0.00    -0.025 C 
HETATM    6  C6  UNL     1      26.417  -1.217  52.673  1.00  0.00     0.070 C 
HETATM    7  C7  UNL     1      27.168   0.129  52.309  1.00  0.00     0.115 C 
HETATM    8  N1  UNL     1      26.100   0.936  51.734  1.00  0.00    -0.376 N 
HETATM    9  C8  UNL     1      24.697   0.966  52.073  1.00  0.00     0.105 A 
HETATM   10  C9  UNL     1      23.622   1.662  51.569  1.00  0.00     0.158 A 
HETATM   11  N3  UNL     1      22.425   1.518  52.139  1.00  0.00    -0.222 NA
HETATM   12  C16 UNL     1      22.139   0.723  53.206  1.00  0.00     0.236 A 
HETATM   13  N4  UNL     1      23.131  -0.036  53.809  1.00  0.00    -0.239 NA
HETATM   14  C17 UNL     1      24.305   0.171  53.172  1.00  0.00     0.094 A 
HETATM   15  H9  UNL     1      26.269   1.622  50.957  1.00  0.00     0.160 HD
ENDROOT
BRANCH  10  16
HETATM   16  N2  UNL     1      23.960   2.472  50.458  1.00  0.00    -0.339 N 
HETATM   17  H10 UNL     1      23.971   1.989  49.543  1.00  0.00     0.167 HD
BRANCH  16  18
HETATM   18  C10 UNL     1      24.278   3.858  50.510  1.00  0.00     0.035 A 
HETATM   19  C11 UNL     1      23.573   4.720  51.318  1.00  0.00     0.029 A 
HETATM   20  C12 UNL     1      23.887   6.069  51.341  1.00  0.00     0.004 A 
HETATM   21  C13 UNL     1      24.936   6.495  50.516  1.00  0.00     0.019 A 
HETATM   22  C14 UNL     1      25.646   5.629  49.703  1.00  0.00     0.013 A 
HETATM   23 BR1  UNL     1      27.076   6.248  48.582  1.00  0.00    -0.051 Br
HETATM   24  C15 UNL     1      25.322   4.291  49.692  1.00  0.00     0.048 A 
ENDBRANCH  16  18
ENDBRANCH  10  16
TORSDOF 2
ENDMDL
MODEL 3
REMARK VINA RESULT:      -7.7      3.688      6.229
REMARK  2 active torsions:
REMARK  status: ('A' for Active; 'I' for Inactive)
REMARK    1  A    between atoms: C9_10  and  N2_11 
REMARK    2  A    between atoms: N2_11  and  C10_12 
ROOT
HETATM    1  C1  UNL     1      27.258   2.551  51.940  1.00  0.00     0.045 C 
HETATM    2  C2  UNL     1      27.188   1.249  52.649  1.00  0.00    -0.061 C 
HETATM    3  C3  UNL     1      27.733   1.380  53.892  1.00  0.00     0.005 C 
HETATM    4  C4  UNL     1      27.397   0.258  54.852  1.00  0.00     0.010 C 
HETATM    5  C5  UNL     1      26.636  -0.525  54.060  1.00  0.00    -0.025 C 
HETATM    6  C6  UNL     1      27.133  -1.106  52.722  1.00  0.00     0.070 C 
HETATM    7  C7  UNL     1      26.546   0.107  51.892  1.00  0.00     0.115 C 
HETATM    8  N1  UNL     1      25.112  -0.027  52.115  1.00  0.00    -0.376 N 
HETATM    9  C8  UNL     1      24.413  -0.501  53.285  1.00  0.00     0.105 A 
HETATM   10  C9  UNL     1      23.080  -0.691  53.572  1.00  0.00     0.158 A 
HETATM   11  N3  UNL     1      22.726  -1.100  54.791  1.00  0.00    -0.222 NA
HETATM   12  C16 UNL     1      23.574  -1.362  55.824  1.00  0.00     0.236 A 
HETATM   13  N4  UNL     1      24.945  -1.214  55.669  1.00  0.00    -0.239 NA
HETATM   14  C17 UNL     1      25.212  -0.798  54.411  1.00  0.00     0.094 A 
HETATM   15  H9  UNL     1      24.403   0.228  51.384  1.00  0.00     0.160 HD
ENDROOT
BRANCH  10  16
HETATM   16  N2  UNL     1      22.234  -0.413  52.472  1.00  0.00    -0.339 N 
HETATM   17  H10 UNL     1      21.937  -1.237  51.920  1.00  0.00     0.167 HD
BRANCH  16  18
HETATM   18  C10 UNL     1      21.778   0.878  52.084  1.00  0.00     0.035 A 
HETATM   19  C11 UNL     1      20.893   1.585  52.865  1.00  0.00     0.029 A 
HETATM   20  C12 UNL     1      20.449   2.833  52.460  1.00  0.00     0.004 A 
HETATM   21  C13 UNL     1      20.939   3.322  51.242  1.00  0.00     0.019 A 
HETATM   22  C14 UNL     1      21.828   2.611  50.456  1.00  0.00     0.013 A 
HETATM   23 BR1  UNL     1      22.476   3.310  48.789  1.00  0.00    -0.051 Br
HETATM   24  C15 UNL     1      22.260   1.373  50.872  1.00  0.00     0.048 A 
ENDBRANCH  16  18
ENDBRANCH  10  16
TORSDOF 2
ENDMDL
MODEL 4
REMARK VINA RESULT:      -7.6      3.991      5.189
REMARK  2 active torsions:
REMARK  status: ('A' for Active; 'I' for Inactive)
REMARK    1  A    between atoms: C9_10  and  N2_11 
REMARK    2  A    between atoms: N2_11  and  C10_12 
ROOT
HETATM    1  C1  UNL     1      22.805   2.617  48.046  1.00  0.00     0.045 C 
HETATM    2  C2  UNL     1      22.107   2.249  49.304  1.00  0.00    -0.061 C 
HETATM    3  C3  UNL     1      21.334   1.147  49.087  1.00  0.00     0.005 C 
HETATM    4  C4  UNL     1      20.868   0.443  50.345  1.00  0.00     0.010 C 
HETATM    5  C5  UNL     1      21.418   1.234  51.288  1.00  0.00    -0.025 C 
HETATM    6  C6  UNL     1      21.135   2.745  51.393  1.00  0.00     0.070 C 
HETATM    7  C7  UNL     1      22.394   3.118  50.508  1.00  0.00     0.115 C 
HETATM    8  N1  UNL     1      23.502   2.652  51.331  1.00  0.00    -0.376 N 
HETATM    9  C8  UNL     1      23.561   1.517  52.222  1.00  0.00     0.105 A 
HETATM   10  C9  UNL     1      24.541   1.025  53.055  1.00  0.00     0.158 A 
HETATM   11  N3  UNL     1      24.317  -0.103  53.731  1.00  0.00    -0.222 NA
HETATM   12  C16 UNL     1      23.178  -0.848  53.688  1.00  0.00     0.236 A 
HETATM   13  N4  UNL     1      22.110  -0.463  52.890  1.00  0.00    -0.239 NA
HETATM   14  C17 UNL     1      22.423   0.682  52.244  1.00  0.00     0.094 A 
HETATM   15  H9  UNL     1      24.431   3.140  51.353  1.00  0.00     0.160 HD
ENDROOT
BRANCH  10  16
HETATM   16  N2  UNL     1      25.704   1.831  53.075  1.00  0.00    -0.339 N 
HETATM   17  H10 UNL     1      25.550   2.839  52.896  1.00  0.00     0.167 HD
BRANCH  16  18
HETATM   18  C10 UNL     1      27.028   1.367  53.315  1.00  0.00     0.035 A 
HETATM   19  C11 UNL     1      28.032   2.237  53.673  1.00  0.00     0.029 A 
HETATM   20  C12 UNL     1      29.318   1.767  53.885  1.00  0.00     0.004 A 
HETATM   21  C13 UNL     1      29.532   0.393  53.719  1.00  0.00     0.019 A 
HETATM   22  C14 UNL     1      28.523  -0.482  53.360  1.00  0.00     0.013 A 
HETATM   23 BR1  UNL     1      28.853  -2.360  53.139  1.00  0.00    -0.051 Br
HETATM   24  C15 UNL     1      27.251  -0.000  53.153  1.00  0.00     0.048 A 
ENDBRANCH  16  18
ENDBRANCH  10  16
TORSDOF 2
ENDMDL
MODEL 5
REMARK VINA RESULT:      -7.4      3.087      6.547
REMARK  2 active torsions:
REMARK  status: ('A' for Active; 'I' for Inactive)
REMARK    1  A    between atoms: C9_10  and  N2_11 
REMARK    2  A    between atoms: N2_11  and  C10_12 
ROOT
HETATM    1  C1  UNL     1      26.697   6.408  48.384  1.00  0.00     0.045 C 
HETATM    2  C2  UNL     1      25.412   6.918  48.925  1.00  0.00    -0.061 C 
HETATM    3  C3  UNL     1      24.490   6.979  47.921  1.00  0.00     0.005 C 
HETATM    4  C4  UNL     1      23.056   7.118  48.386  1.00  0.00     0.010 C 
HETATM    5  C5  UNL     1      23.231   7.146  49.723  1.00  0.00    -0.025 C 
HETATM    6  C6  UNL     1      24.119   8.185  50.435  1.00  0.00     0.070 C 
HETATM    7  C7  UNL     1      25.385   7.234  50.404  1.00  0.00     0.115 C 
HETATM    8  N1  UNL     1      24.961   6.123  51.245  1.00  0.00    -0.376 N 
HETATM    9  C8  UNL     1      23.643   5.558  51.412  1.00  0.00     0.105 A 
HETATM   10  C9  UNL     1      23.147   4.543  52.199  1.00  0.00     0.158 A 
HETATM   11  N3  UNL     1      21.862   4.203  52.093  1.00  0.00    -0.222 NA
HETATM   12  C16 UNL     1      20.949   4.776  51.261  1.00  0.00     0.236 A 
HETATM   13  N4  UNL     1      21.316   5.813  50.415  1.00  0.00    -0.239 NA
HETATM   14  C17 UNL     1      22.628   6.090  50.587  1.00  0.00     0.094 A 
HETATM   15  H9  UNL     1      25.630   5.592  51.856  1.00  0.00     0.160 HD
ENDROOT
BRANCH  10  16
HETATM   16  N2  UNL     1      24.125   3.979  53.053  1.00  0.00    -0.339 N 
HETATM   17  H10 UNL     1      24.649   4.655  53.636  1.00  0.00     0.167 HD
BRANCH  16  18
HETATM   18  C10 UNL     1      24.429   2.593  53.161  1.00  0.00     0.035 A 
HETATM   19  C11 UNL     1      23.500   1.632  52.833  1.00  0.00     0.029 A 
HETATM   20  C12 UNL     1      23.812   0.289  52.962  1.00  0.00     0.004 A 
HETATM   21  C13 UNL     1      25.092  -0.028  53.433  1.00  0.00     0.019 A 
HETATM   22  C14 UNL     1      26.026   0.937  53.763  1.00  0.00     0.013 A 
HETATM   23 BR1  UNL     1      27.772   0.466  54.409  1.00  0.00    -0.051 Br
HETATM   24  C15 UNL     1      25.702   2.267  53.629  1.00  0.00     0.048 A 
ENDBRANCH  16  18
ENDBRANCH  10  16
TORSDOF 2
ENDMDL
MODEL 6
REMARK VINA RESULT:      -7.4      2.864      5.849
REMARK  2 active torsions:
REMARK  status: ('A' for Active; 'I' for Inactive)
REMARK    1  A    between atoms: C9_10  and  N2_11 
REMARK    2  A    between atoms: N2_11  and  C10_12 
ROOT
HETATM    1  C1  UNL     1      26.294   3.686  49.473  1.00  0.00     0.045 C 
HETATM    2  C2  UNL     1      24.858   3.657  49.845  1.00  0.00    -0.061 C 
HETATM    3  C3  UNL     1      24.107   3.388  48.739  1.00  0.00     0.005 C 
HETATM    4  C4  UNL     1      22.683   2.960  49.027  1.00  0.00     0.010 C 
HETATM    5  C5  UNL     1      22.676   3.022  50.374  1.00  0.00    -0.025 C 
HETATM    6  C6  UNL     1      23.012   4.303  51.161  1.00  0.00     0.070 C 
HETATM    7  C7  UNL     1      24.538   3.905  51.303  1.00  0.00     0.115 C 
HETATM    8  N1  UNL     1      24.470   2.696  52.114  1.00  0.00    -0.376 N 
HETATM    9  C8  UNL     1      23.455   1.670  52.137  1.00  0.00     0.105 A 
HETATM   10  C9  UNL     1      23.292   0.525  52.883  1.00  0.00     0.158 A 
HETATM   11  N3  UNL     1      22.254  -0.275  52.634  1.00  0.00    -0.222 NA
HETATM   12  C16 UNL     1      21.298  -0.072  51.686  1.00  0.00     0.236 A 
HETATM   13  N4  UNL     1      21.342   1.047  50.866  1.00  0.00    -0.239 NA
HETATM   14  C17 UNL     1      22.420   1.796  51.185  1.00  0.00     0.094 A 
HETATM   15  H9  UNL     1      25.213   2.445  52.812  1.00  0.00     0.160 HD
ENDROOT
BRANCH  10  16
HETATM   16  N2  UNL     1      24.302   0.354  53.860  1.00  0.00    -0.339 N 
HETATM   17  H10 UNL     1      24.015   0.547  54.835  1.00  0.00     0.167 HD
BRANCH  16  18
HETATM   18  C10 UNL     1      25.643  -0.049  53.603  1.00  0.00     0.035 A 
HETATM   19  C11 UNL     1      25.918  -1.226  52.944  1.00  0.00     0.029 A 
HETATM   20  C12 UNL     1      27.231  -1.608  52.720  1.00  0.00     0.004 A 
HETATM   21  C13 UNL     1      28.235  -0.752  53.188  1.00  0.00     0.019 A 
HETATM   22  C14 UNL     1      27.959   0.431  53.850  1.00  0.00     0.013 A 
HETATM   23 BR1  UNL     1      29.362   1.580  54.482  1.00  0.00    -0.051 Br
HETATM   24  C15 UNL     1      26.650   0.797  54.066  1.00  0.00     0.048 A 
ENDBRANCH  16  18
ENDBRANCH  10  16
TORSDOF 2
ENDMDL
MODEL 7
REMARK VINA RESULT:      -7.3      5.518      8.647
REMARK  2 active torsions:
REMARK  status: ('A' for Active; 'I' for Inactive)
REMARK    1  A    between atoms: C9_10  and  N2_11 
REMARK    2  A    between atoms: N2_11  and  C10_12 
ROOT
HETATM    1  C1  UNL     1      23.068   4.710  52.788  1.00  0.00     0.045 C 
HETATM    2  C2  UNL     1      23.501   3.311  52.547  1.00  0.00    -0.061 C 
HETATM    3  C3  UNL     1      24.718   3.106  53.130  1.00  0.00     0.005 C 
HETATM    4  C4  UNL     1      25.106   1.651  53.290  1.00  0.00     0.010 C 
HETATM    5  C5  UNL     1      24.031   1.047  52.744  1.00  0.00    -0.025 C 
HETATM    6  C6  UNL     1      23.558   1.311  51.301  1.00  0.00     0.070 C 
HETATM    7  C7  UNL     1      22.548   2.440  51.760  1.00  0.00     0.115 C 
HETATM    8  N1  UNL     1      21.601   1.696  52.581  1.00  0.00    -0.376 N 
HETATM    9  C8  UNL     1      21.834   0.553  53.430  1.00  0.00     0.105 A 
HETATM   10  C9  UNL     1      21.006  -0.226  54.207  1.00  0.00     0.158 A 
HETATM   11  N3  UNL     1      21.533  -1.206  54.943  1.00  0.00    -0.222 NA
HETATM   12  C16 UNL     1      22.852  -1.534  55.011  1.00  0.00     0.236 A 
HETATM   13  N4  UNL     1      23.795  -0.830  54.275  1.00  0.00    -0.239 NA
HETATM   14  C17 UNL     1      23.177   0.139  53.564  1.00  0.00     0.094 A 
HETATM   15  H9  UNL     1      20.582   1.945  52.629  1.00  0.00     0.160 HD
ENDROOT
BRANCH  10  16
HETATM   16  N2  UNL     1      19.644   0.144  54.104  1.00  0.00    -0.339 N 
HETATM   17  H10 UNL     1      19.367   0.978  54.651  1.00  0.00     0.167 HD
BRANCH  16  18
HETATM   18  C10 UNL     1      18.659  -0.529  53.327  1.00  0.00     0.035 A 
HETATM   19  C11 UNL     1      18.098   0.065  52.220  1.00  0.00     0.029 A 
HETATM   20  C12 UNL     1      17.128  -0.601  51.488  1.00  0.00     0.004 A 
HETATM   21  C13 UNL     1      16.762  -1.880  51.927  1.00  0.00     0.019 A 
HETATM   22  C14 UNL     1      17.327  -2.478  53.039  1.00  0.00     0.013 A 
HETATM   23 BR1  UNL     1      16.798  -4.232  53.614  1.00  0.00    -0.051 Br
HETATM   24  C15 UNL     1      18.288  -1.804  53.756  1.00  0.00     0.048 A 
ENDBRANCH  16  18
ENDBRANCH  10  16
TORSDOF 2
ENDMDL
MODEL 8
REMARK VINA RESULT:      -7.3      3.298      6.769
REMARK  2 active torsions:
REMARK  status: ('A' for Active; 'I' for Inactive)
REMARK    1  A    between atoms: C9_10  and  N2_11 
REMARK    2  A    between atoms: N2_11  and  C10_12 
ROOT
HETATM    1  C1  UNL     1      27.396   7.792  48.907  1.00  0.00     0.045 C 
HETATM    2  C2  UNL     1      25.939   7.514  48.957  1.00  0.00    -0.061 C 
HETATM    3  C3  UNL     1      25.427   7.549  47.694  1.00  0.00     0.005 C 
HETATM    4  C4  UNL     1      24.055   6.924  47.549  1.00  0.00     0.010 C 
HETATM    5  C5  UNL     1      23.821   6.546  48.822  1.00  0.00    -0.025 C 
HETATM    6  C6  UNL     1      23.830   7.529  50.008  1.00  0.00     0.070 C 
HETATM    7  C7  UNL     1      25.355   7.247  50.326  1.00  0.00     0.115 C 
HETATM    8  N1  UNL     1      25.339   5.841  50.706  1.00  0.00    -0.376 N 
HETATM    9  C8  UNL     1      24.499   4.774  50.216  1.00  0.00     0.105 A 
HETATM   10  C9  UNL     1      24.391   3.439  50.536  1.00  0.00     0.158 A 
HETATM   11  N3  UNL     1      23.538   2.672  49.855  1.00  0.00    -0.222 NA
HETATM   12  C16 UNL     1      22.729   3.082  48.840  1.00  0.00     0.236 A 
HETATM   13  N4  UNL     1      22.736   4.405  48.420  1.00  0.00    -0.239 NA
HETATM   14  C17 UNL     1      23.624   5.106  49.159  1.00  0.00     0.094 A 
HETATM   15  H9  UNL     1      25.989   5.446  51.431  1.00  0.00     0.160 HD
ENDROOT
BRANCH  10  16
HETATM   16  N2  UNL     1      25.244   3.055  51.597  1.00  0.00    -0.339 N 
HETATM   17  H10 UNL     1      25.779   3.824  52.039  1.00  0.00     0.167 HD
BRANCH  16  18
HETATM   18  C10 UNL     1      25.414   1.729  52.084  1.00  0.00     0.035 A 
HETATM   19  C11 UNL     1      26.542   1.000  51.785  1.00  0.00     0.029 A 
HETATM   20  C12 UNL     1      26.680  -0.296  52.255  1.00  0.00     0.004 A 
HETATM   21  C13 UNL     1      25.633  -0.809  53.033  1.00  0.00     0.019 A 
HETATM   22  C14 UNL     1      24.499  -0.076  53.334  1.00  0.00     0.013 A 
HETATM   23 BR1  UNL     1      23.081  -0.812  54.399  1.00  0.00    -0.051 Br
HETATM   24  C15 UNL     1      24.377   1.210  52.859  1.00  0.00     0.048 A 
ENDBRANCH  16  18
ENDBRANCH  10  16
TORSDOF 2
ENDMDL
MODEL 9
REMARK VINA RESULT:      -7.2      2.113      3.997
REMARK  2 active torsions:
REMARK  status: ('A' for Active; 'I' for Inactive)
REMARK    1  A    between atoms: C9_10  and  N2_11 
REMARK    2  A    between atoms: N2_11  and  C10_12 
ROOT
HETATM    1  C1  UNL     1      22.425  -0.596  54.857  1.00  0.00     0.045 C 
HETATM    2  C2  UNL     1      21.736  -0.167  53.614  1.00  0.00    -0.061 C 
HETATM    3  C3  UNL     1      20.393  -0.092  53.843  1.00  0.00     0.005 C 
HETATM    4  C4  UNL     1      19.616   0.683  52.799  1.00  0.00     0.010 C 
HETATM    5  C5  UNL     1      20.610   1.027  51.956  1.00  0.00    -0.025 C 
HETATM    6  C6  UNL     1      21.530  -0.002  51.272  1.00  0.00     0.070 C 
HETATM    7  C7  UNL     1      22.620   0.101  52.416  1.00  0.00     0.115 C 
HETATM    8  N1  UNL     1      23.065   1.484  52.299  1.00  0.00    -0.376 N 
HETATM    9  C8  UNL     1      22.312   2.654  51.918  1.00  0.00     0.105 A 
HETATM   10  C9  UNL     1      22.651   3.978  51.749  1.00  0.00     0.158 A 
HETATM   11  N3  UNL     1      21.701   4.861  51.437  1.00  0.00    -0.222 NA
HETATM   12  C16 UNL     1      20.380   4.584  51.257  1.00  0.00     0.236 A 
HETATM   13  N4  UNL     1      19.904   3.288  51.395  1.00  0.00    -0.239 NA
HETATM   14  C17 UNL     1      20.928   2.464  51.711  1.00  0.00     0.094 A 
HETATM   15  H9  UNL     1      24.055   1.774  52.495  1.00  0.00     0.160 HD
ENDROOT
BRANCH  10  16
HETATM   16  N2  UNL     1      24.032   4.222  51.939  1.00  0.00    -0.339 N 
HETATM   17  H10 UNL     1      24.331   4.341  52.923  1.00  0.00     0.167 HD
BRANCH  16  18
HETATM   18  C10 UNL     1      25.007   4.313  50.906  1.00  0.00     0.035 A 
HETATM   19  C11 UNL     1      25.809   3.242  50.587  1.00  0.00     0.029 A 
HETATM   20  C12 UNL     1      26.763   3.358  49.590  1.00  0.00     0.004 A 
HETATM   21  C13 UNL     1      26.862   4.596  48.941  1.00  0.00     0.019 A 
HETATM   22  C14 UNL     1      26.056   5.673  49.262  1.00  0.00     0.013 A 
HETATM   23 BR1  UNL     1      26.222   7.357  48.354  1.00  0.00    -0.051 Br
HETATM   24  C15 UNL     1      25.113   5.542  50.255  1.00  0.00     0.048 A 
ENDBRANCH  16  18
ENDBRANCH  10  16
TORSDOF 2
ENDMDL
