MODEL 1
REMARK VINA RESULT:      -8.0      0.000      0.000
REMARK  3 active torsions:
REMARK  status: ('A' for Active; 'I' for Inactive)
REMARK    1  A    between atoms: C5_6  and  N1_7 
REMARK    2  A    between atoms: N1_7  and  C6_8 
REMARK    3  A    between atoms: C18_23  and  O2_24 
ROOT
HETATM    1  C1  UNL     1      21.892   6.676  50.491  1.00  0.00     0.000 C 
HETATM    2  O1  UNL     1      22.752   5.502  50.936  1.00  0.00     0.000 OA
HETATM    3  C2  UNL     1      23.105   4.808  49.755  1.00  0.00     0.059 A 
HETATM    4  C3  UNL     1      24.024   4.404  48.869  1.00  0.00    -0.020 C 
HETATM    5  C4  UNL     1      24.433   3.225  49.403  1.00  0.00     0.032 C 
HETATM    6  C5  UNL     1      23.452   2.775  50.250  1.00  0.00     0.141 C 
HETATM    7  N3  UNL     1      22.067   2.917  50.021  1.00  0.00    -0.224 NA
HETATM    8  C15 UNL     1      21.087   3.356  50.679  1.00  0.00     0.234 C 
HETATM    9  N4  UNL     1      20.968   3.927  51.997  1.00  0.00    -0.254 NA
HETATM   10  C16 UNL     1      21.897   4.773  52.360  1.00  0.00     0.117 C 
HETATM   11  C17 UNL     1      23.117   5.354  51.735  1.00  0.00     0.035 C 
HETATM   12  C18 UNL     1      23.948   5.548  50.652  1.00  0.00     0.129 A 
ENDROOT
BRANCH   6  13
HETATM   13  N1  UNL     1      23.975   2.080  51.378  1.00  0.00    -0.338 N 
HETATM   14  H4  UNL     1      24.074   3.072  51.751  1.00  0.00     0.167 HD
BRANCH  13  15
HETATM   15  C6  UNL     1      24.379   1.051  52.248  1.00  0.00     0.062 A 
HETATM   16  C7  UNL     1      25.703   0.710  52.167  1.00  0.00     0.146 A 
HETATM   17  N2  UNL     1      26.168  -0.260  52.986  1.00  0.00    -0.270 NA
HETATM   18  C8  UNL     1      25.308  -0.838  53.836  1.00  0.00     0.128 A 
HETATM   19  C9  UNL     1      23.989  -0.485  53.908  1.00  0.00    -0.006 A 
HETATM   20  C10 UNL     1      23.127  -1.103  54.808  1.00  0.00     0.014 A 
HETATM   21  C14 UNL     1      23.466   0.490  53.101  1.00  0.00     0.004 A 
HETATM   22  C11 UNL     1      21.788  -0.764  54.908  1.00  0.00     0.001 A 
HETATM   23  C12 UNL     1      21.264   0.227  54.092  1.00  0.00     0.001 A 
HETATM   24  C13 UNL     1      22.141   0.820  53.211  1.00  0.00     0.014 A 
ENDBRANCH  13  15
ENDBRANCH   6  13
BRANCH  12  25
HETATM   25  O2  UNL     1      25.134   6.237  50.628  1.00  0.00    -0.376 OA
HETATM   26  C19 UNL     1      25.401   7.522  50.201  1.00  0.00     0.203 C 
ENDBRANCH  12  25
TORSDOF 3
ENDMDL
MODEL 2
REMARK VINA RESULT:      -7.9      1.670      2.893
REMARK  3 active torsions:
REMARK  status: ('A' for Active; 'I' for Inactive)
REMARK    1  A    between atoms: C5_6  and  N1_7 
REMARK    2  A    between atoms: N1_7  and  C6_8 
REMARK    3  A    between atoms: C18_23  and  O2_24 
ROOT
HETATM    1  C1  UNL     1      21.179   5.553  50.507  1.00  0.00     0.000 C 
HETATM    2  O1  UNL     1      22.358   4.779  51.076  1.00  0.00     0.000 OA
HETATM    3  C2  UNL     1      23.170   4.434  49.970  1.00  0.00     0.059 A 
HETATM    4  C3  UNL     1      24.313   4.544  49.282  1.00  0.00    -0.020 C 
HETATM    5  C4  UNL     1      25.076   3.573  49.843  1.00  0.00     0.032 C 
HETATM    6  C5  UNL     1      24.241   2.668  50.448  1.00  0.00     0.141 C 
HETATM    7  N3  UNL     1      22.987   2.269  49.939  1.00  0.00    -0.224 NA
HETATM    8  C15 UNL     1      21.815   2.193  50.393  1.00  0.00     0.234 C 
HETATM    9  N4  UNL     1      21.240   2.503  51.678  1.00  0.00    -0.254 NA
HETATM   10  C16 UNL     1      21.651   3.600  52.260  1.00  0.00     0.117 C 
HETATM   11  C17 UNL     1      22.606   4.693  51.929  1.00  0.00     0.035 C 
HETATM   12  C18 UNL     1      23.455   5.335  51.051  1.00  0.00     0.129 A 
ENDROOT
BRANCH   6  13
HETATM   13  N1  UNL     1      24.801   2.109  51.633  1.00  0.00    -0.338 N 
HETATM   14  H4  UNL     1      25.130   3.112  51.768  1.00  0.00     0.167 HD
BRANCH  13  15
HETATM   15  C6  UNL     1      25.146   1.205  52.655  1.00  0.00     0.062 A 
HETATM   16  C7  UNL     1      24.161   0.320  53.001  1.00  0.00     0.146 A 
HETATM   17  N2  UNL     1      24.426  -0.591  53.965  1.00  0.00    -0.270 NA
HETATM   18  C8  UNL     1      25.640  -0.581  54.530  1.00  0.00     0.128 A 
HETATM   19  C9  UNL     1      26.616   0.308  54.171  1.00  0.00    -0.006 A 
HETATM   20  C10 UNL     1      27.869   0.284  54.776  1.00  0.00     0.014 A 
HETATM   21  C14 UNL     1      26.401   1.252  53.202  1.00  0.00     0.004 A 
HETATM   22  C11 UNL     1      28.879   1.167  54.430  1.00  0.00     0.001 A 
HETATM   23  C12 UNL     1      28.657   2.118  53.446  1.00  0.00     0.001 A 
HETATM   24  C13 UNL     1      27.407   2.117  52.866  1.00  0.00     0.014 A 
ENDBRANCH  13  15
ENDBRANCH   6  13
BRANCH  12  25
HETATM   25  O2  UNL     1      24.229   6.439  51.303  1.00  0.00    -0.376 OA
HETATM   26  C19 UNL     1      24.041   7.754  50.929  1.00  0.00     0.203 C 
ENDBRANCH  12  25
TORSDOF 3
ENDMDL
MODEL 3
REMARK VINA RESULT:      -7.9      2.184      3.230
REMARK  3 active torsions:
REMARK  status: ('A' for Active; 'I' for Inactive)
REMARK    1  A    between atoms: C5_6  and  N1_7 
REMARK    2  A    between atoms: N1_7  and  C6_8 
REMARK    3  A    between atoms: C18_23  and  O2_24 
ROOT
HETATM    1  C1  UNL     1      20.984   4.917  49.590  1.00  0.00     0.000 C 
HETATM    2  O1  UNL     1      21.287   3.679  50.422  1.00  0.00     0.000 OA
HETATM    3  C2  UNL     1      21.030   2.571  49.582  1.00  0.00     0.059 A 
HETATM    4  C3  UNL     1      21.456   1.507  48.891  1.00  0.00    -0.020 C 
HETATM    5  C4  UNL     1      21.385   0.519  49.819  1.00  0.00     0.032 C 
HETATM    6  C5  UNL     1      20.509   0.913  50.798  1.00  0.00     0.141 C 
HETATM    7  N3  UNL     1      19.326   1.648  50.567  1.00  0.00    -0.224 NA
HETATM    8  C15 UNL     1      18.815   2.699  51.036  1.00  0.00     0.234 C 
HETATM    9  N4  UNL     1      19.248   3.634  52.044  1.00  0.00    -0.254 NA
HETATM   10  C16 UNL     1      20.512   3.967  52.037  1.00  0.00     0.117 C 
HETATM   11  C17 UNL     1      21.703   3.628  51.210  1.00  0.00     0.035 C 
HETATM   12  C18 UNL     1      22.284   3.029  50.112  1.00  0.00     0.129 A 
ENDROOT
BRANCH   6  13
HETATM   13  N1  UNL     1      20.881   0.445  52.091  1.00  0.00    -0.338 N 
HETATM   14  H4  UNL     1      20.002   0.978  52.369  1.00  0.00     0.167 HD
BRANCH  13  15
HETATM   15  C6  UNL     1      21.559  -0.213  53.133  1.00  0.00     0.062 A 
HETATM   16  C7  UNL     1      20.770  -0.999  53.930  1.00  0.00     0.146 A 
HETATM   17  N2  UNL     1      21.355  -1.677  54.943  1.00  0.00    -0.270 NA
HETATM   18  C8  UNL     1      22.678  -1.546  55.114  1.00  0.00     0.128 A 
HETATM   19  C9  UNL     1      23.453  -0.759  54.308  1.00  0.00    -0.006 A 
HETATM   20  C10 UNL     1      24.825  -0.652  54.511  1.00  0.00     0.014 A 
HETATM   21  C14 UNL     1      22.912  -0.050  53.268  1.00  0.00     0.004 A 
HETATM   22  C11 UNL     1      25.637   0.132  53.709  1.00  0.00     0.001 A 
HETATM   23  C12 UNL     1      25.085   0.845  52.656  1.00  0.00     0.001 A 
HETATM   24  C13 UNL     1      23.725   0.719  52.479  1.00  0.00     0.014 A 
ENDBRANCH  13  15
ENDBRANCH   6  13
BRANCH  12  25
HETATM   25  O2  UNL     1      23.619   2.984  49.800  1.00  0.00    -0.376 OA
HETATM   26  C19 UNL     1      24.421   3.940  49.209  1.00  0.00     0.203 C 
ENDBRANCH  12  25
TORSDOF 3
ENDMDL
MODEL 4
REMARK VINA RESULT:      -7.7      1.478      2.523
REMARK  3 active torsions:
REMARK  status: ('A' for Active; 'I' for Inactive)
REMARK    1  A    between atoms: C5_6  and  N1_7 
REMARK    2  A    between atoms: N1_7  and  C6_8 
REMARK    3  A    between atoms: C18_23  and  O2_24 
ROOT
HETATM    1  C1  UNL     1      23.548   6.805  50.746  1.00  0.00     0.000 C 
HETATM    2  O1  UNL     1      23.664   5.289  50.814  1.00  0.00     0.000 OA
HETATM    3  C2  UNL     1      23.119   4.801  49.603  1.00  0.00     0.059 A 
HETATM    4  C3  UNL     1      23.262   4.185  48.423  1.00  0.00    -0.020 C 
HETATM    5  C4  UNL     1      23.070   2.884  48.759  1.00  0.00     0.032 C 
HETATM    6  C5  UNL     1      22.377   2.844  49.942  1.00  0.00     0.141 C 
HETATM    7  N3  UNL     1      21.352   3.745  50.301  1.00  0.00    -0.224 NA
HETATM    8  C15 UNL     1      21.105   4.474  51.298  1.00  0.00     0.234 C 
HETATM    9  N4  UNL     1      21.800   4.706  52.539  1.00  0.00    -0.254 NA
HETATM   10  C16 UNL     1      23.101   4.824  52.475  1.00  0.00     0.117 C 
HETATM   11  C17 UNL     1      24.125   4.794  51.394  1.00  0.00     0.035 C 
HETATM   12  C18 UNL     1      24.479   4.758  50.062  1.00  0.00     0.129 A 
ENDROOT
BRANCH   6  13
HETATM   13  N1  UNL     1      22.754   1.743  50.764  1.00  0.00    -0.338 N 
HETATM   14  H4  UNL     1      23.269   1.455  49.878  1.00  0.00     0.167 HD
BRANCH  13  15
HETATM   15  C6  UNL     1      22.904   0.887  51.871  1.00  0.00     0.062 A 
HETATM   16  C7  UNL     1      21.738   0.360  52.356  1.00  0.00     0.146 A 
HETATM   17  N2  UNL     1      21.806  -0.486  53.410  1.00  0.00    -0.270 NA
HETATM   18  C8  UNL     1      23.012  -0.765  53.922  1.00  0.00     0.128 A 
HETATM   19  C9  UNL     1      24.169  -0.232  53.424  1.00  0.00    -0.006 A 
HETATM   20  C10 UNL     1      25.405  -0.549  53.979  1.00  0.00     0.014 A 
HETATM   21  C14 UNL     1      24.157   0.631  52.360  1.00  0.00     0.004 A 
HETATM   22  C11 UNL     1      26.593  -0.030  53.493  1.00  0.00     0.001 A 
HETATM   23  C12 UNL     1      26.577   0.839  52.413  1.00  0.00     0.001 A 
HETATM   24  C13 UNL     1      25.339   1.135  51.886  1.00  0.00     0.014 A 
ENDBRANCH  13  15
ENDBRANCH   6  13
BRANCH  12  25
HETATM   25  O2  UNL     1      25.747   4.699  49.541  1.00  0.00    -0.376 OA
HETATM   26  C19 UNL     1      26.660   3.664  49.555  1.00  0.00     0.203 C 
ENDBRANCH  12  25
TORSDOF 3
ENDMDL
MODEL 5
REMARK VINA RESULT:      -7.7      1.620      2.142
REMARK  3 active torsions:
REMARK  status: ('A' for Active; 'I' for Inactive)
REMARK    1  A    between atoms: C5_6  and  N1_7 
REMARK    2  A    between atoms: N1_7  and  C6_8 
REMARK    3  A    between atoms: C18_23  and  O2_24 
ROOT
HETATM    1  C1  UNL     1      19.207   4.122  50.522  1.00  0.00     0.000 C 
HETATM    2  O1  UNL     1      20.531   3.603  51.065  1.00  0.00     0.000 OA
HETATM    3  C2  UNL     1      21.392   3.486  49.949  1.00  0.00     0.059 A 
HETATM    4  C3  UNL     1      22.479   3.869  49.268  1.00  0.00    -0.020 C 
HETATM    5  C4  UNL     1      23.439   3.067  49.795  1.00  0.00     0.032 C 
HETATM    6  C5  UNL     1      22.825   1.979  50.363  1.00  0.00     0.141 C 
HETATM    7  N3  UNL     1      21.686   1.335  49.835  1.00  0.00    -0.224 NA
HETATM    8  C15 UNL     1      20.561   0.989  50.282  1.00  0.00     0.234 C 
HETATM    9  N4  UNL     1      19.939   1.117  51.576  1.00  0.00    -0.254 NA
HETATM   10  C16 UNL     1      20.104   2.254  52.201  1.00  0.00     0.117 C 
HETATM   11  C17 UNL     1      20.796   3.541  51.914  1.00  0.00     0.035 C 
HETATM   12  C18 UNL     1      21.479   4.386  51.065  1.00  0.00     0.129 A 
ENDROOT
BRANCH   6  13
HETATM   13  N1  UNL     1      23.500   1.512  51.527  1.00  0.00    -0.338 N 
HETATM   14  H4  UNL     1      22.729   2.064  52.010  1.00  0.00     0.167 HD
BRANCH  13  15
HETATM   15  C6  UNL     1      24.404   0.845  52.375  1.00  0.00     0.062 A 
HETATM   16  C7  UNL     1      25.726   1.038  52.078  1.00  0.00     0.146 A 
HETATM   17  N2  UNL     1      26.653   0.442  52.861  1.00  0.00    -0.270 NA
HETATM   18  C8  UNL     1      26.230  -0.307  53.888  1.00  0.00     0.128 A 
HETATM   19  C9  UNL     1      24.905  -0.487  54.175  1.00  0.00    -0.006 A 
HETATM   20  C10 UNL     1      24.502  -1.266  55.255  1.00  0.00     0.014 A 
HETATM   21  C14 UNL     1      23.924   0.092  53.414  1.00  0.00     0.004 A 
HETATM   22  C11 UNL     1      23.169  -1.464  55.574  1.00  0.00     0.001 A 
HETATM   23  C12 UNL     1      22.180  -0.872  54.803  1.00  0.00     0.001 A 
HETATM   24  C13 UNL     1      22.609  -0.107  53.740  1.00  0.00     0.014 A 
ENDBRANCH  13  15
ENDBRANCH   6  13
BRANCH  12  25
HETATM   25  O2  UNL     1      21.995   5.622  51.361  1.00  0.00    -0.376 OA
HETATM   26  C19 UNL     1      21.610   6.870  50.914  1.00  0.00     0.203 C 
ENDBRANCH  12  25
TORSDOF 3
ENDMDL
MODEL 6
REMARK VINA RESULT:      -7.6      1.804      3.239
REMARK  3 active torsions:
REMARK  status: ('A' for Active; 'I' for Inactive)
REMARK    1  A    between atoms: C5_6  and  N1_7 
REMARK    2  A    between atoms: N1_7  and  C6_8 
REMARK    3  A    between atoms: C18_23  and  O2_24 
ROOT
HETATM    1  C1  UNL     1      22.796   4.777  47.956  1.00  0.00     0.000 C 
HETATM    2  O1  UNL     1      23.067   4.153  49.317  1.00  0.00     0.000 OA
HETATM    3  C2  UNL     1      22.430   4.989  50.264  1.00  0.00     0.059 A 
HETATM    4  C3  UNL     1      21.482   5.196  51.187  1.00  0.00    -0.020 C 
HETATM    5  C4  UNL     1      22.098   4.778  52.322  1.00  0.00     0.032 C 
HETATM    6  C5  UNL     1      23.453   4.812  52.112  1.00  0.00     0.141 C 
HETATM    7  N3  UNL     1      24.123   5.799  51.358  1.00  0.00    -0.224 NA
HETATM    8  C15 UNL     1      24.952   5.797  50.410  1.00  0.00     0.234 C 
HETATM    9  N4  UNL     1      25.583   4.739  49.662  1.00  0.00    -0.254 NA
HETATM   10  C16 UNL     1      24.830   3.725  49.322  1.00  0.00     0.117 C 
HETATM   11  C17 UNL     1      23.401   3.347  49.501  1.00  0.00     0.035 C 
HETATM   12  C18 UNL     1      22.111   3.638  49.895  1.00  0.00     0.129 A 
ENDROOT
BRANCH   6  13
HETATM   13  N1  UNL     1      24.142   3.769  52.796  1.00  0.00    -0.338 N 
HETATM   14  H4  UNL     1      24.384   4.569  53.456  1.00  0.00     0.167 HD
BRANCH  13  15
HETATM   15  C6  UNL     1      24.639   2.502  53.155  1.00  0.00     0.062 A 
HETATM   16  C7  UNL     1      25.948   2.486  53.553  1.00  0.00     0.146 A 
HETATM   17  N2  UNL     1      26.490   1.305  53.929  1.00  0.00    -0.270 NA
HETATM   18  C8  UNL     1      25.717   0.212  53.894  1.00  0.00     0.128 A 
HETATM   19  C9  UNL     1      24.408   0.245  53.496  1.00  0.00    -0.006 A 
HETATM   20  C10 UNL     1      23.633  -0.910  53.478  1.00  0.00     0.014 A 
HETATM   21  C14 UNL     1      23.810   1.413  53.104  1.00  0.00     0.004 A 
HETATM   22  C11 UNL     1      22.305  -0.908  53.086  1.00  0.00     0.001 A 
HETATM   23  C12 UNL     1      21.703   0.277  52.694  1.00  0.00     0.001 A 
HETATM   24  C13 UNL     1      22.495   1.404  52.721  1.00  0.00     0.014 A 
ENDBRANCH  13  15
ENDBRANCH   6  13
BRANCH  12  25
HETATM   25  O2  UNL     1      21.027   2.798  49.873  1.00  0.00    -0.376 OA
HETATM   26  C19 UNL     1      20.022   2.676  48.935  1.00  0.00     0.203 C 
ENDBRANCH  12  25
TORSDOF 3
ENDMDL
MODEL 7
REMARK VINA RESULT:      -7.4      1.762      3.090
REMARK  3 active torsions:
REMARK  status: ('A' for Active; 'I' for Inactive)
REMARK    1  A    between atoms: C5_6  and  N1_7 
REMARK    2  A    between atoms: N1_7  and  C6_8 
REMARK    3  A    between atoms: C18_23  and  O2_24 
ROOT
HETATM    1  C1  UNL     1      23.671   5.969  51.146  1.00  0.00     0.000 C 
HETATM    2  O1  UNL     1      23.285   4.498  51.209  1.00  0.00     0.000 OA
HETATM    3  C2  UNL     1      23.263   4.042  49.871  1.00  0.00     0.059 A 
HETATM    4  C3  UNL     1      23.759   3.278  48.890  1.00  0.00    -0.020 C 
HETATM    5  C4  UNL     1      23.055   2.128  49.044  1.00  0.00     0.032 C 
HETATM    6  C5  UNL     1      21.907   2.418  49.737  1.00  0.00     0.141 C 
HETATM    7  N3  UNL     1      21.155   3.601  49.583  1.00  0.00    -0.224 NA
HETATM    8  C15 UNL     1      20.693   4.480  50.357  1.00  0.00     0.234 C 
HETATM    9  N4  UNL     1      20.749   4.654  51.787  1.00  0.00    -0.254 NA
HETATM   10  C16 UNL     1      21.893   4.402  52.369  1.00  0.00     0.117 C 
HETATM   11  C17 UNL     1      23.245   3.966  51.923  1.00  0.00     0.035 C 
HETATM   12  C18 UNL     1      24.161   3.680  50.932  1.00  0.00     0.129 A 
ENDROOT
BRANCH   6  13
HETATM   13  N1  UNL     1      21.503   1.358  50.600  1.00  0.00    -0.338 N 
HETATM   14  H4  UNL     1      22.273   0.843  50.076  1.00  0.00     0.167 HD
BRANCH  13  15
HETATM   15  C6  UNL     1      20.846   0.627  51.606  1.00  0.00     0.062 A 
HETATM   16  C7  UNL     1      19.488   0.534  51.460  1.00  0.00     0.146 A 
HETATM   17  N2  UNL     1      18.790  -0.169  52.381  1.00  0.00    -0.270 NA
HETATM   18  C8  UNL     1      19.464  -0.739  53.388  1.00  0.00     0.128 A 
HETATM   19  C9  UNL     1      20.822  -0.640  53.520  1.00  0.00    -0.006 A 
HETATM   20  C10 UNL     1      21.489  -1.251  54.576  1.00  0.00     0.014 A 
HETATM   21  C14 UNL     1      21.577   0.061  52.617  1.00  0.00     0.004 A 
HETATM   22  C11 UNL     1      22.863  -1.172  54.733  1.00  0.00     0.001 A 
HETATM   23  C12 UNL     1      23.623  -0.465  53.815  1.00  0.00     0.001 A 
HETATM   24  C13 UNL     1      22.935   0.129  52.780  1.00  0.00     0.014 A 
ENDBRANCH  13  15
ENDBRANCH   6  13
BRANCH  12  25
HETATM   25  O2  UNL     1      25.440   3.214  51.093  1.00  0.00    -0.376 OA
HETATM   26  C19 UNL     1      25.896   2.095  51.760  1.00  0.00     0.203 C 
ENDBRANCH  12  25
TORSDOF 3
ENDMDL
MODEL 8
REMARK VINA RESULT:      -7.2      1.905      3.709
REMARK  3 active torsions:
REMARK  status: ('A' for Active; 'I' for Inactive)
REMARK    1  A    between atoms: C5_6  and  N1_7 
REMARK    2  A    between atoms: N1_7  and  C6_8 
REMARK    3  A    between atoms: C18_23  and  O2_24 
ROOT
HETATM    1  C1  UNL     1      22.555   5.996  48.314  1.00  0.00     0.000 C 
HETATM    2  O1  UNL     1      22.489   4.751  49.187  1.00  0.00     0.000 OA
HETATM    3  C2  UNL     1      21.514   5.019  50.176  1.00  0.00     0.059 A 
HETATM    4  C3  UNL     1      20.323   4.776  50.737  1.00  0.00    -0.020 C 
HETATM    5  C4  UNL     1      20.626   3.805  51.636  1.00  0.00     0.032 C 
HETATM    6  C5  UNL     1      21.971   3.870  51.898  1.00  0.00     0.141 C 
HETATM    7  N3  UNL     1      22.714   5.066  51.987  1.00  0.00    -0.224 NA
HETATM    8  C15 UNL     1      23.776   5.505  51.473  1.00  0.00     0.234 C 
HETATM    9  N4  UNL     1      24.713   4.944  50.532  1.00  0.00    -0.254 NA
HETATM   10  C16 UNL     1      24.212   4.287  49.518  1.00  0.00     0.117 C 
HETATM   11  C17 UNL     1      22.845   3.948  49.036  1.00  0.00     0.035 C 
HETATM   12  C18 UNL     1      21.472   4.065  49.104  1.00  0.00     0.129 A 
ENDROOT
BRANCH   6  13
HETATM   13  N1  UNL     1      22.546   2.589  52.141  1.00  0.00    -0.338 N 
HETATM   14  H4  UNL     1      22.882   2.720  51.140  1.00  0.00     0.167 HD
BRANCH  13  15
HETATM   15  C6  UNL     1      22.947   1.399  52.777  1.00  0.00     0.062 A 
HETATM   16  C7  UNL     1      21.971   0.773  53.503  1.00  0.00     0.146 A 
HETATM   17  N2  UNL     1      22.278  -0.386  54.128  1.00  0.00    -0.270 NA
HETATM   18  C8  UNL     1      23.525  -0.862  54.003  1.00  0.00     0.128 A 
HETATM   19  C9  UNL     1      24.489  -0.226  53.271  1.00  0.00    -0.006 A 
HETATM   20  C10 UNL     1      25.771  -0.755  53.158  1.00  0.00     0.014 A 
HETATM   21  C14 UNL     1      24.232   0.950  52.619  1.00  0.00     0.004 A 
HETATM   22  C11 UNL     1      26.768  -0.137  52.420  1.00  0.00     0.001 A 
HETATM   23  C12 UNL     1      26.501   1.052  51.759  1.00  0.00     0.001 A 
HETATM   24  C13 UNL     1      25.223   1.550  51.890  1.00  0.00     0.014 A 
ENDBRANCH  13  15
ENDBRANCH   6  13
BRANCH  12  25
HETATM   25  O2  UNL     1      20.544   3.412  48.333  1.00  0.00    -0.376 OA
HETATM   26  C19 UNL     1      19.915   3.818  47.174  1.00  0.00     0.203 C 
ENDBRANCH  12  25
TORSDOF 3
ENDMDL
MODEL 9
REMARK VINA RESULT:      -7.1      2.407      4.527
REMARK  3 active torsions:
REMARK  status: ('A' for Active; 'I' for Inactive)
REMARK    1  A    between atoms: C5_6  and  N1_7 
REMARK    2  A    between atoms: N1_7  and  C6_8 
REMARK    3  A    between atoms: C18_23  and  O2_24 
ROOT
HETATM    1  C1  UNL     1      20.012   2.799  47.630  1.00  0.00     0.000 C 
HETATM    2  O1  UNL     1      20.552   2.446  49.008  1.00  0.00     0.000 OA
HETATM    3  C2  UNL     1      20.127   3.482  49.872  1.00  0.00     0.059 A 
HETATM    4  C3  UNL     1      19.390   3.913  50.904  1.00  0.00    -0.020 C 
HETATM    5  C4  UNL     1      20.222   3.700  51.954  1.00  0.00     0.032 C 
HETATM    6  C5  UNL     1      21.506   3.627  51.476  1.00  0.00     0.141 C 
HETATM    7  N3  UNL     1      22.014   4.412  50.419  1.00  0.00    -0.224 NA
HETATM    8  C15 UNL     1      22.630   4.182  49.345  1.00  0.00     0.234 C 
HETATM    9  N4  UNL     1      23.089   2.968  48.718  1.00  0.00    -0.254 NA
HETATM   10  C16 UNL     1      22.276   1.944  48.749  1.00  0.00     0.117 C 
HETATM   11  C17 UNL     1      20.912   1.678  49.283  1.00  0.00     0.035 C 
HETATM   12  C18 UNL     1      19.732   2.101  49.857  1.00  0.00     0.129 A 
ENDROOT
BRANCH   6  13
HETATM   13  N1  UNL     1      22.314   2.709  52.207  1.00  0.00    -0.338 N 
HETATM   14  H4  UNL     1      22.722   3.613  52.594  1.00  0.00     0.167 HD
BRANCH  13  15
HETATM   15  C6  UNL     1      22.854   1.517  52.724  1.00  0.00     0.062 A 
HETATM   16  C7  UNL     1      21.975   0.744  53.433  1.00  0.00     0.146 A 
HETATM   17  N2  UNL     1      22.418  -0.426  53.947  1.00  0.00    -0.270 NA
HETATM   18  C8  UNL     1      23.696  -0.768  53.734  1.00  0.00     0.128 A 
HETATM   19  C9  UNL     1      24.562   0.014  53.021  1.00  0.00    -0.006 A 
HETATM   20  C10 UNL     1      25.881  -0.377  52.815  1.00  0.00     0.014 A 
HETATM   21  C14 UNL     1      24.166   1.208  52.480  1.00  0.00     0.004 A 
HETATM   22  C11 UNL     1      26.781   0.391  52.094  1.00  0.00     0.001 A 
HETATM   23  C12 UNL     1      26.373   1.597  51.545  1.00  0.00     0.001 A 
HETATM   24  C13 UNL     1      25.062   1.957  51.766  1.00  0.00     0.014 A 
ENDBRANCH  13  15
ENDBRANCH   6  13
BRANCH  12  25
HETATM   25  O2  UNL     1      18.662   1.326  50.224  1.00  0.00    -0.376 OA
HETATM   26  C19 UNL     1      18.614   0.215  51.042  1.00  0.00     0.203 C 
ENDBRANCH  12  25
TORSDOF 3
ENDMDL
