MODEL 1
REMARK VINA RESULT:      -7.9      0.000      0.000
REMARK  4 active torsions:
REMARK  status: ('A' for Active; 'I' for Inactive)
REMARK    1  A    between atoms: O1_2  and  C2_3 
REMARK    2  A    between atoms: C5_6  and  N1_7 
REMARK    3  A    between atoms: N1_7  and  C6_8 
REMARK    4  A    between atoms: C14_19  and  O2_20 
ROOT
HETATM    1  C2  UNL     1      24.342   0.200  53.371  1.00  0.00     0.104 C 
HETATM    2  C3  UNL     1      24.632   0.895  52.217  1.00  0.00     0.051 C 
HETATM    3  C4  UNL     1      26.092   1.110  51.984  1.00  0.00    -0.004 C 
HETATM    4  C5  UNL     1      26.687   2.294  51.835  1.00  0.00     0.136 C 
HETATM    5  N2  UNL     1      28.088   2.427  52.374  1.00  0.00    -0.226 NA
HETATM    6  C12 UNL     1      28.350   2.045  53.669  1.00  0.00     0.209 C 
HETATM    7  N3  UNL     1      27.760   0.876  54.424  1.00  0.00    -0.351 N 
HETATM    8  C13 UNL     1      26.735   0.107  53.723  1.00  0.00     0.051 C 
HETATM    9  C14 UNL     1      25.522  -0.233  54.225  1.00  0.00     0.124 C 
HETATM   10  C16 UNL     1      26.861  -0.239  52.177  1.00  0.00     0.102 C 
HETATM   11  H11 UNL     1      27.754   0.350  55.319  1.00  0.00     0.166 HD
ENDROOT
BRANCH   4  12
HETATM   12  N1  UNL     1      25.672   3.076  51.211  1.00  0.00    -0.341 N 
HETATM   13  H5  UNL     1      24.706   2.728  51.368  1.00  0.00     0.167 HD
BRANCH  12  14
HETATM   14  C6  UNL     1      25.772   4.255  50.390  1.00  0.00     0.033 A 
HETATM   15  C7  UNL     1      26.893   4.089  49.562  1.00  0.00     0.031 A 
HETATM   16  C8  UNL     1      27.233   5.098  48.647  1.00  0.00     0.026 A 
HETATM   17  C9  UNL     1      26.504   6.259  48.524  1.00  0.00     0.034 A 
HETATM   18 CL1  UNL     1      26.914   7.523  47.392  1.00  0.00    -0.084 Cl
HETATM   19  C10 UNL     1      25.432   6.349  49.358  1.00  0.00     0.026 A 
HETATM   20  C11 UNL     1      25.037   5.412  50.274  1.00  0.00     0.031 A 
ENDBRANCH  12  14
ENDBRANCH   4  12
BRANCH   1  21
HETATM   21  O1  UNL     1      23.107  -0.111  53.781  1.00  0.00    -0.353 OA
HETATM   22  C1  UNL     1      22.350  -1.072  53.068  1.00  0.00     0.210 C 
ENDBRANCH   1  21
BRANCH   9  23
HETATM   23  O2  UNL     1      25.864  -0.858  55.379  1.00  0.00    -0.351 OA
HETATM   24  C15 UNL     1      24.923  -0.901  56.434  1.00  0.00     0.210 C 
ENDBRANCH   9  23
TORSDOF 4
ENDMDL
MODEL 2
REMARK VINA RESULT:      -7.8      4.329      6.761
REMARK  4 active torsions:
REMARK  status: ('A' for Active; 'I' for Inactive)
REMARK    1  A    between atoms: O1_2  and  C2_3 
REMARK    2  A    between atoms: C5_6  and  N1_7 
REMARK    3  A    between atoms: N1_7  and  C6_8 
REMARK    4  A    between atoms: C14_19  and  O2_20 
ROOT
HETATM    1  C2  UNL     1      21.993   3.381  52.348  1.00  0.00     0.104 C 
HETATM    2  C3  UNL     1      23.098   2.560  52.294  1.00  0.00     0.051 C 
HETATM    3  C4  UNL     1      22.774   1.104  52.219  1.00  0.00    -0.004 C 
HETATM    4  C5  UNL     1      23.181   0.174  53.084  1.00  0.00     0.136 C 
HETATM    5  N2  UNL     1      22.235  -0.968  53.354  1.00  0.00    -0.226 NA
HETATM    6  C12 UNL     1      20.931  -0.694  53.696  1.00  0.00     0.209 C 
HETATM    7  N3  UNL     1      20.050   0.414  53.166  1.00  0.00    -0.351 N 
HETATM    8  C13 UNL     1      20.681   1.350  52.238  1.00  0.00     0.051 C 
HETATM    9  C14 UNL     1      20.633   2.703  52.329  1.00  0.00     0.124 C 
HETATM   10  C16 UNL     1      21.692   0.860  51.115  1.00  0.00     0.102 C 
HETATM   11  H11 UNL     1      19.109   0.849  53.199  1.00  0.00     0.166 HD
ENDROOT
BRANCH   4  12
HETATM   12  N1  UNL     1      24.448   0.672  53.503  1.00  0.00    -0.341 N 
HETATM   13  H5  UNL     1      24.414   1.609  53.950  1.00  0.00     0.167 HD
BRANCH  12  14
HETATM   14  C6  UNL     1      25.763   0.096  53.392  1.00  0.00     0.033 A 
HETATM   15  C7  UNL     1      26.573   0.723  54.353  1.00  0.00     0.031 A 
HETATM   16  C8  UNL     1      27.922   0.352  54.470  1.00  0.00     0.026 A 
HETATM   17  C9  UNL     1      28.494  -0.614  53.674  1.00  0.00     0.034 A 
HETATM   18 CL1  UNL     1      30.169  -1.085  53.808  1.00  0.00    -0.084 Cl
HETATM   19  C10 UNL     1      27.649  -1.177  52.768  1.00  0.00     0.026 A 
HETATM   20  C11 UNL     1      26.327  -0.871  52.592  1.00  0.00     0.031 A 
ENDBRANCH  12  14
ENDBRANCH   4  12
BRANCH   1  21
HETATM   21  O1  UNL     1      22.040   4.716  52.416  1.00  0.00    -0.353 OA
HETATM   22  C1  UNL     1      21.889   5.487  51.237  1.00  0.00     0.210 C 
ENDBRANCH   1  21
BRANCH   9  23
HETATM   23  O2  UNL     1      19.298   2.931  52.384  1.00  0.00    -0.351 OA
HETATM   24  C15 UNL     1      18.668   3.554  51.281  1.00  0.00     0.210 C 
ENDBRANCH   9  23
TORSDOF 4
ENDMDL
MODEL 3
REMARK VINA RESULT:      -7.5      4.268      6.549
REMARK  4 active torsions:
REMARK  status: ('A' for Active; 'I' for Inactive)
REMARK    1  A    between atoms: O1_2  and  C2_3 
REMARK    2  A    between atoms: C5_6  and  N1_7 
REMARK    3  A    between atoms: N1_7  and  C6_8 
REMARK    4  A    between atoms: C14_19  and  O2_20 
ROOT
HETATM    1  C2  UNL     1      27.453  -0.625  53.313  1.00  0.00     0.104 C 
HETATM    2  C3  UNL     1      26.187  -0.917  52.854  1.00  0.00     0.051 C 
HETATM    3  C4  UNL     1      25.433   0.268  52.347  1.00  0.00    -0.004 C 
HETATM    4  C5  UNL     1      24.250   0.685  52.800  1.00  0.00     0.136 C 
HETATM    5  N2  UNL     1      24.004   2.172  52.799  1.00  0.00    -0.226 NA
HETATM    6  C12 UNL     1      24.932   3.008  53.375  1.00  0.00     0.209 C 
HETATM    7  N3  UNL     1      26.437   2.870  53.354  1.00  0.00    -0.351 N 
HETATM    8  C13 UNL     1      26.965   1.668  52.712  1.00  0.00     0.051 C 
HETATM    9  C14 UNL     1      27.888   0.829  53.246  1.00  0.00     0.124 C 
HETATM   10  C16 UNL     1      26.337   1.092  51.371  1.00  0.00     0.102 C 
HETATM   11  H11 UNL     1      27.340   3.290  53.647  1.00  0.00     0.166 HD
ENDROOT
BRANCH   4  12
HETATM   12  N1  UNL     1      23.622  -0.531  53.195  1.00  0.00    -0.341 N 
HETATM   13  H5  UNL     1      24.275  -1.327  53.329  1.00  0.00     0.167 HD
BRANCH  12  14
HETATM   14  C6  UNL     1      22.232  -0.836  53.421  1.00  0.00     0.033 A 
HETATM   15  C7  UNL     1      21.489  -0.102  52.484  1.00  0.00     0.031 A 
HETATM   16  C8  UNL     1      20.089  -0.208  52.474  1.00  0.00     0.026 A 
HETATM   17  C9  UNL     1      19.403  -1.012  53.355  1.00  0.00     0.034 A 
HETATM   18 CL1  UNL     1      17.664  -1.154  53.356  1.00  0.00    -0.084 Cl
HETATM   19  C10 UNL     1      20.190  -1.693  54.233  1.00  0.00     0.026 A 
HETATM   20  C11 UNL     1      21.555  -1.643  54.306  1.00  0.00     0.031 A 
ENDBRANCH  12  14
ENDBRANCH   4  12
BRANCH   1  21
HETATM   21  O1  UNL     1      28.309  -1.527  53.809  1.00  0.00    -0.353 OA
HETATM   22  C1  UNL     1      29.617  -1.622  53.274  1.00  0.00     0.210 C 
ENDBRANCH   1  21
BRANCH   9  23
HETATM   23  O2  UNL     1      28.901   1.681  53.543  1.00  0.00    -0.351 OA
HETATM   24  C15 UNL     1      29.448   1.660  54.847  1.00  0.00     0.210 C 
ENDBRANCH   9  23
TORSDOF 4
ENDMDL
MODEL 4
REMARK VINA RESULT:      -7.3      1.963      3.361
REMARK  4 active torsions:
REMARK  status: ('A' for Active; 'I' for Inactive)
REMARK    1  A    between atoms: O1_2  and  C2_3 
REMARK    2  A    between atoms: C5_6  and  N1_7 
REMARK    3  A    between atoms: N1_7  and  C6_8 
REMARK    4  A    between atoms: C14_19  and  O2_20 
ROOT
HETATM    1  C2  UNL     1      26.584   0.696  52.339  1.00  0.00     0.104 C 
HETATM    2  C3  UNL     1      26.735   1.888  51.665  1.00  0.00     0.051 C 
HETATM    3  C4  UNL     1      25.467   2.662  51.502  1.00  0.00    -0.004 C 
HETATM    4  C5  UNL     1      24.941   3.051  50.340  1.00  0.00     0.136 C 
HETATM    5  N2  UNL     1      23.437   3.087  50.250  1.00  0.00    -0.226 NA
HETATM    6  C12 UNL     1      22.714   1.980  50.627  1.00  0.00     0.209 C 
HETATM    7  N3  UNL     1      23.005   1.033  51.768  1.00  0.00    -0.351 N 
HETATM    8  C13 UNL     1      24.240   1.276  52.509  1.00  0.00     0.051 C 
HETATM    9  C14 UNL     1      25.181   0.344  52.803  1.00  0.00     0.124 C 
HETATM   10  C16 UNL     1      24.720   2.746  52.874  1.00  0.00     0.102 C 
HETATM   11  H11 UNL     1      22.686   0.190  52.285  1.00  0.00     0.166 HD
ENDROOT
BRANCH   4  12
HETATM   12  N1  UNL     1      26.095   3.261  49.531  1.00  0.00    -0.341 N 
HETATM   13  H5  UNL     1      26.597   2.391  49.267  1.00  0.00     0.167 HD
BRANCH  12  14
HETATM   14  C6  UNL     1      26.682   4.479  49.036  1.00  0.00     0.033 A 
HETATM   15  C7  UNL     1      25.657   5.436  48.968  1.00  0.00     0.031 A 
HETATM   16  C8  UNL     1      25.947   6.732  48.514  1.00  0.00     0.026 A 
HETATM   17  C9  UNL     1      27.212   7.113  48.128  1.00  0.00     0.034 A 
HETATM   18 CL1  UNL     1      27.590   8.719  47.561  1.00  0.00    -0.084 Cl
HETATM   19  C10 UNL     1      28.154   6.134  48.222  1.00  0.00     0.026 A 
HETATM   20  C11 UNL     1      27.950   4.851  48.653  1.00  0.00     0.031 A 
ENDBRANCH  12  14
ENDBRANCH   4  12
BRANCH   1  21
HETATM   21  O1  UNL     1      27.579  -0.159  52.603  1.00  0.00    -0.353 OA
HETATM   22  C1  UNL     1      28.336  -0.011  53.792  1.00  0.00     0.210 C 
ENDBRANCH   1  21
BRANCH   9  23
HETATM   23  O2  UNL     1      24.444  -0.608  53.428  1.00  0.00    -0.351 OA
HETATM   24  C15 UNL     1      24.748  -0.932  54.771  1.00  0.00     0.210 C 
ENDBRANCH   9  23
TORSDOF 4
ENDMDL
MODEL 5
REMARK VINA RESULT:      -7.3      2.016      3.635
REMARK  4 active torsions:
REMARK  status: ('A' for Active; 'I' for Inactive)
REMARK    1  A    between atoms: O1_2  and  C2_3 
REMARK    2  A    between atoms: C5_6  and  N1_7 
REMARK    3  A    between atoms: N1_7  and  C6_8 
REMARK    4  A    between atoms: C14_19  and  O2_20 
ROOT
HETATM    1  C2  UNL     1      24.431   0.310  53.237  1.00  0.00     0.104 C 
HETATM    2  C3  UNL     1      24.695   1.533  52.660  1.00  0.00     0.051 C 
HETATM    3  C4  UNL     1      23.546   2.109  51.899  1.00  0.00    -0.004 C 
HETATM    4  C5  UNL     1      23.564   2.452  50.611  1.00  0.00     0.136 C 
HETATM    5  N2  UNL     1      22.285   2.262  49.836  1.00  0.00    -0.226 NA
HETATM    6  C12 UNL     1      21.645   1.046  49.883  1.00  0.00     0.209 C 
HETATM    7  N3  UNL     1      21.515   0.116  51.067  1.00  0.00    -0.351 N 
HETATM    8  C13 UNL     1      22.216   0.520  52.284  1.00  0.00     0.051 C 
HETATM    9  C14 UNL     1      23.043  -0.268  53.016  1.00  0.00     0.124 C 
HETATM   10  C16 UNL     1      22.246   2.032  52.768  1.00  0.00     0.102 C 
HETATM   11  H11 UNL     1      21.125  -0.782  51.412  1.00  0.00     0.166 HD
ENDROOT
BRANCH   4  12
HETATM   12  N1  UNL     1      24.914   2.862  50.417  1.00  0.00    -0.341 N 
HETATM   13  H5  UNL     1      25.621   2.216  50.819  1.00  0.00     0.167 HD
BRANCH  12  14
HETATM   14  C6  UNL     1      25.454   4.031  49.770  1.00  0.00     0.033 A 
HETATM   15  C7  UNL     1      26.781   3.736  49.421  1.00  0.00     0.031 A 
HETATM   16  C8  UNL     1      27.558   4.706  48.769  1.00  0.00     0.026 A 
HETATM   17  C9  UNL     1      27.068   5.952  48.451  1.00  0.00     0.034 A 
HETATM   18 CL1  UNL     1      28.021   7.170  47.641  1.00  0.00    -0.084 Cl
HETATM   19  C10 UNL     1      25.775   6.166  48.819  1.00  0.00     0.026 A 
HETATM   20  C11 UNL     1      24.956   5.274  49.456  1.00  0.00     0.031 A 
ENDBRANCH  12  14
ENDBRANCH   4  12
BRANCH   1  21
HETATM   21  O1  UNL     1      25.308  -0.392  53.965  1.00  0.00    -0.353 OA
HETATM   22  C1  UNL     1      26.425   0.261  54.542  1.00  0.00     0.210 C 
ENDBRANCH   1  21
BRANCH   9  23
HETATM   23  O2  UNL     1      22.254  -1.341  53.269  1.00  0.00    -0.351 OA
HETATM   24  C15 UNL     1      21.657  -1.461  54.546  1.00  0.00     0.210 C 
ENDBRANCH   9  23
TORSDOF 4
ENDMDL
MODEL 6
REMARK VINA RESULT:      -7.3      5.052      8.308
REMARK  4 active torsions:
REMARK  status: ('A' for Active; 'I' for Inactive)
REMARK    1  A    between atoms: O1_2  and  C2_3 
REMARK    2  A    between atoms: C5_6  and  N1_7 
REMARK    3  A    between atoms: N1_7  and  C6_8 
REMARK    4  A    between atoms: C14_19  and  O2_20 
ROOT
HETATM    1  C2  UNL     1      30.300   5.889  48.476  1.00  0.00     0.104 C 
HETATM    2  C3  UNL     1      29.040   5.461  48.121  1.00  0.00     0.051 C 
HETATM    3  C4  UNL     1      28.012   6.544  48.096  1.00  0.00    -0.004 C 
HETATM    4  C5  UNL     1      26.882   6.556  48.804  1.00  0.00     0.136 C 
HETATM    5  N2  UNL     1      26.389   7.899  49.279  1.00  0.00    -0.226 NA
HETATM    6  C12 UNL     1      27.252   8.733  49.951  1.00  0.00     0.209 C 
HETATM    7  N3  UNL     1      28.727   8.938  49.691  1.00  0.00    -0.351 N 
HETATM    8  C13 UNL     1      29.323   8.096  48.657  1.00  0.00     0.051 C 
HETATM    9  C14 UNL     1      30.460   7.367  48.790  1.00  0.00     0.124 C 
HETATM   10  C16 UNL     1      28.561   7.774  47.300  1.00  0.00     0.102 C 
HETATM   11  H11 UNL     1      29.584   9.452  49.976  1.00  0.00     0.166 HD
ENDROOT
BRANCH   4  12
HETATM   12  N1  UNL     1      26.557   5.172  48.897  1.00  0.00    -0.341 N 
HETATM   13  H5  UNL     1      26.902   4.597  48.104  1.00  0.00     0.167 HD
BRANCH  12  14
HETATM   14  C6  UNL     1      25.818   4.450  49.900  1.00  0.00     0.033 A 
HETATM   15  C7  UNL     1      26.510   3.252  50.141  1.00  0.00     0.031 A 
HETATM   16  C8  UNL     1      26.009   2.342  51.086  1.00  0.00     0.026 A 
HETATM   17  C9  UNL     1      24.854   2.576  51.797  1.00  0.00     0.034 A 
HETATM   18 CL1  UNL     1      24.219   1.455  52.974  1.00  0.00    -0.084 Cl
HETATM   19  C10 UNL     1      24.239   3.757  51.510  1.00  0.00     0.026 A 
HETATM   20  C11 UNL     1      24.663   4.692  50.606  1.00  0.00     0.031 A 
ENDBRANCH  12  14
ENDBRANCH   4  12
BRANCH   1  21
HETATM   21  O1  UNL     1      31.376   5.097  48.564  1.00  0.00    -0.353 OA
HETATM   22  C1  UNL     1      32.392   5.180  47.579  1.00  0.00     0.210 C 
ENDBRANCH   1  21
BRANCH   9  23
HETATM   23  O2  UNL     1      31.349   8.309  49.191  1.00  0.00    -0.351 OA
HETATM   24  C15 UNL     1      32.179   8.917  48.221  1.00  0.00     0.210 C 
ENDBRANCH   9  23
TORSDOF 4
ENDMDL
MODEL 7
REMARK VINA RESULT:      -7.3      3.370      5.767
REMARK  4 active torsions:
REMARK  status: ('A' for Active; 'I' for Inactive)
REMARK    1  A    between atoms: O1_2  and  C2_3 
REMARK    2  A    between atoms: C5_6  and  N1_7 
REMARK    3  A    between atoms: N1_7  and  C6_8 
REMARK    4  A    between atoms: C14_19  and  O2_20 
ROOT
HETATM    1  C2  UNL     1      22.261   0.749  52.149  1.00  0.00     0.104 C 
HETATM    2  C3  UNL     1      23.066   1.542  52.937  1.00  0.00     0.051 C 
HETATM    3  C4  UNL     1      23.548   2.784  52.262  1.00  0.00    -0.004 C 
HETATM    4  C5  UNL     1      24.825   3.128  52.093  1.00  0.00     0.136 C 
HETATM    5  N2  UNL     1      25.168   3.879  50.831  1.00  0.00    -0.226 NA
HETATM    6  C12 UNL     1      24.759   3.377  49.618  1.00  0.00     0.209 C 
HETATM    7  N3  UNL     1      23.460   2.672  49.301  1.00  0.00    -0.351 N 
HETATM    8  C13 UNL     1      22.568   2.426  50.431  1.00  0.00     0.051 C 
HETATM    9  C14 UNL     1      21.990   1.237  50.736  1.00  0.00     0.124 C 
HETATM   10  C16 UNL     1      22.346   3.510  51.571  1.00  0.00     0.102 C 
HETATM   11  H11 UNL     1      22.888   2.224  48.559  1.00  0.00     0.166 HD
ENDROOT
BRANCH   4  12
HETATM   12  N1  UNL     1      25.454   2.570  53.243  1.00  0.00    -0.341 N 
HETATM   13  H5  UNL     1      24.920   2.692  54.125  1.00  0.00     0.167 HD
BRANCH  12  14
HETATM   14  C6  UNL     1      26.711   1.881  53.380  1.00  0.00     0.033 A 
HETATM   15  C7  UNL     1      26.440   0.505  53.305  1.00  0.00     0.031 A 
HETATM   16  C8  UNL     1      27.495  -0.415  53.410  1.00  0.00     0.026 A 
HETATM   17  C9  UNL     1      28.802  -0.023  53.585  1.00  0.00     0.034 A 
HETATM   18 CL1  UNL     1      30.124  -1.155  53.718  1.00  0.00    -0.084 Cl
HETATM   19  C10 UNL     1      28.988   1.324  53.648  1.00  0.00     0.026 A 
HETATM   20  C11 UNL     1      28.015   2.282  53.554  1.00  0.00     0.031 A 
ENDBRANCH  12  14
ENDBRANCH   4  12
BRANCH   1  21
HETATM   21  O1  UNL     1      21.714  -0.407  52.543  1.00  0.00    -0.353 OA
HETATM   22  C1  UNL     1      22.338  -1.171  53.560  1.00  0.00     0.210 C 
ENDBRANCH   1  21
BRANCH   9  23
HETATM   23  O2  UNL     1      21.365   0.926  49.574  1.00  0.00    -0.351 OA
HETATM   24  C15 UNL     1      20.018   1.321  49.398  1.00  0.00     0.210 C 
ENDBRANCH   9  23
TORSDOF 4
ENDMDL
MODEL 8
REMARK VINA RESULT:      -7.1      3.965      5.964
REMARK  4 active torsions:
REMARK  status: ('A' for Active; 'I' for Inactive)
REMARK    1  A    between atoms: O1_2  and  C2_3 
REMARK    2  A    between atoms: C5_6  and  N1_7 
REMARK    3  A    between atoms: N1_7  and  C6_8 
REMARK    4  A    between atoms: C14_19  and  O2_20 
ROOT
HETATM    1  C2  UNL     1      26.369   2.678  51.229  1.00  0.00     0.104 C 
HETATM    2  C3  UNL     1      24.998   2.619  51.356  1.00  0.00     0.051 C 
HETATM    3  C4  UNL     1      24.529   1.906  52.581  1.00  0.00    -0.004 C 
HETATM    4  C5  UNL     1      23.725   0.842  52.599  1.00  0.00     0.136 C 
HETATM    5  N2  UNL     1      23.959  -0.173  53.687  1.00  0.00    -0.226 NA
HETATM    6  C12 UNL     1      25.227  -0.669  53.883  1.00  0.00     0.209 C 
HETATM    7  N3  UNL     1      26.538   0.076  53.767  1.00  0.00    -0.351 N 
HETATM    8  C13 UNL     1      26.453   1.464  53.321  1.00  0.00     0.051 C 
HETATM    9  C14 UNL     1      27.189   2.019  52.325  1.00  0.00     0.124 C 
HETATM   10  C16 UNL     1      25.306   2.437  53.832  1.00  0.00     0.102 C 
HETATM   11  H11 UNL     1      27.570   0.010  53.854  1.00  0.00     0.166 HD
ENDROOT
BRANCH   4  12
HETATM   12  N1  UNL     1      22.903   1.055  51.455  1.00  0.00    -0.341 N 
HETATM   13  H5  UNL     1      23.404   1.444  50.633  1.00  0.00     0.167 HD
BRANCH  12  14
HETATM   14  C6  UNL     1      21.493   0.834  51.262  1.00  0.00     0.033 A 
HETATM   15  C7  UNL     1      21.152   1.389  50.018  1.00  0.00     0.031 A 
HETATM   16  C8  UNL     1      19.825   1.317  49.568  1.00  0.00     0.026 A 
HETATM   17  C9  UNL     1      18.827   0.717  50.302  1.00  0.00     0.034 A 
HETATM   18 CL1  UNL     1      17.172   0.620  49.756  1.00  0.00    -0.084 Cl
HETATM   19  C10 UNL     1      19.231   0.202  51.496  1.00  0.00     0.026 A 
HETATM   20  C11 UNL     1      20.502   0.232  52.003  1.00  0.00     0.031 A 
ENDBRANCH  12  14
ENDBRANCH   4  12
BRANCH   1  21
HETATM   21  O1  UNL     1      27.014   3.268  50.215  1.00  0.00    -0.353 OA
HETATM   22  C1  UNL     1      26.353   4.254  49.440  1.00  0.00     0.210 C 
ENDBRANCH   1  21
BRANCH   9  23
HETATM   23  O2  UNL     1      28.454   1.735  52.722  1.00  0.00    -0.351 OA
HETATM   24  C15 UNL     1      29.011   2.470  53.794  1.00  0.00     0.210 C 
ENDBRANCH   9  23
TORSDOF 4
ENDMDL
MODEL 9
REMARK VINA RESULT:      -6.8      4.488      8.005
REMARK  4 active torsions:
REMARK  status: ('A' for Active; 'I' for Inactive)
REMARK    1  A    between atoms: O1_2  and  C2_3 
REMARK    2  A    between atoms: C5_6  and  N1_7 
REMARK    3  A    between atoms: N1_7  and  C6_8 
REMARK    4  A    between atoms: C14_19  and  O2_20 
ROOT
HETATM    1  C2  UNL     1      28.016   6.503  48.510  1.00  0.00     0.104 C 
HETATM    2  C3  UNL     1      27.310   5.323  48.577  1.00  0.00     0.051 C 
HETATM    3  C4  UNL     1      25.890   5.484  49.012  1.00  0.00    -0.004 C 
HETATM    4  C5  UNL     1      25.331   4.890  50.067  1.00  0.00     0.136 C 
HETATM    5  N2  UNL     1      24.274   5.668  50.808  1.00  0.00    -0.226 NA
HETATM    6  C12 UNL     1      24.546   6.954  51.213  1.00  0.00     0.209 C 
HETATM    7  N3  UNL     1      25.347   8.004  50.477  1.00  0.00    -0.351 N 
HETATM    8  C13 UNL     1      25.970   7.579  49.226  1.00  0.00     0.051 C 
HETATM    9  C14 UNL     1      27.269   7.772  48.886  1.00  0.00     0.124 C 
HETATM   10  C16 UNL     1      25.215   6.635  48.195  1.00  0.00     0.102 C 
HETATM   11  H11 UNL     1      25.696   8.981  50.493  1.00  0.00     0.166 HD
ENDROOT
BRANCH   4  12
HETATM   12  N1  UNL     1      26.034   3.653  50.136  1.00  0.00    -0.341 N 
HETATM   13  H5  UNL     1      26.740   3.518  49.386  1.00  0.00     0.167 HD
BRANCH  12  14
HETATM   14  C6  UNL     1      25.912   2.558  51.064  1.00  0.00     0.033 A 
HETATM   15  C7  UNL     1      24.541   2.291  51.212  1.00  0.00     0.031 A 
HETATM   16  C8  UNL     1      24.125   1.260  52.068  1.00  0.00     0.026 A 
HETATM   17  C9  UNL     1      25.014   0.486  52.779  1.00  0.00     0.034 A 
HETATM   18 CL1  UNL     1      24.513  -0.799  53.848  1.00  0.00    -0.084 Cl
HETATM   19  C10 UNL     1      26.325   0.802  52.585  1.00  0.00     0.026 A 
HETATM   20  C11 UNL     1      26.808   1.790  51.770  1.00  0.00     0.031 A 
ENDBRANCH  12  14
ENDBRANCH   4  12
BRANCH   1  21
HETATM   21  O1  UNL     1      29.299   6.602  48.143  1.00  0.00    -0.353 OA
HETATM   22  C1  UNL     1      29.641   7.310  46.964  1.00  0.00     0.210 C 
ENDBRANCH   1  21
BRANCH   9  23
HETATM   23  O2  UNL     1      27.402   9.113  49.040  1.00  0.00    -0.351 OA
HETATM   24  C15 UNL     1      28.565   9.614  49.670  1.00  0.00     0.210 C 
ENDBRANCH   9  23
TORSDOF 4
ENDMDL
