MODEL 1
REMARK VINA RESULT:      -9.7      0.000      0.000
REMARK  4 active torsions:
REMARK  status: ('A' for Active; 'I' for Inactive)
REMARK    1  A    between atoms: C4_4  and  C5_5 
REMARK    2  A    between atoms: C9_9  and  N1_10 
REMARK    3  A    between atoms: N1_10  and  C10_11 
REMARK    4  A    between atoms: C12_13  and  N2_14 
ROOT
HETATM    1  C5  UNL     1      22.421   2.341  49.838  1.00  0.00    -0.030 C 
HETATM    2  C6  UNL     1      23.484   2.852  49.238  1.00  0.00     0.009 C 
HETATM    3  C7  UNL     1      24.743   3.281  49.821  1.00  0.00    -0.001 C 
HETATM    4  C8  UNL     1      24.946   3.471  51.113  1.00  0.00     0.002 C 
HETATM    5  C9  UNL     1      24.213   3.385  52.406  1.00  0.00     0.128 C 
HETATM    6  C18 UNL     1      22.997   2.515  52.252  1.00  0.00     0.003 C 
HETATM    7  C19 UNL     1      22.259   2.080  51.258  1.00  0.00     0.008 C 
ENDROOT
BRANCH   5   8
HETATM    8  N1  UNL     1      25.092   2.800  53.403  1.00  0.00    -0.379 N 
HETATM    9  H10 UNL     1      25.012   3.065  54.420  1.00  0.00     0.160 HD
BRANCH   8  10
HETATM   10  C10 UNL     1      26.099   1.871  53.195  1.00  0.00     0.027 C 
HETATM   11  C11 UNL     1      27.379   2.185  53.320  1.00  0.00     0.041 C 
HETATM   12  C12 UNL     1      28.726   1.583  53.492  1.00  0.00     0.274 C 
HETATM   13  C13 UNL     1      28.717   0.123  53.428  1.00  0.00    -0.015 A 
HETATM   14  C14 UNL     1      29.844  -0.608  53.628  1.00  0.00     0.152 A 
HETATM   15  N5  UNL     1      28.346  -1.202  53.294  1.00  0.00     0.000 N 
HETATM   16  N3  UNL     1      29.294  -1.819  53.462  1.00  0.00    -0.131 NA
HETATM   17  N4  UNL     1      28.065  -2.028  53.200  1.00  0.00    -0.105 NA
HETATM   18  C15 UNL     1      27.031  -1.303  53.019  1.00  0.00     0.070 A 
HETATM   19  C16 UNL     1      25.778  -0.655  52.792  1.00  0.00     0.030 C 
HETATM   20  C17 UNL     1      25.454   0.614  52.853  1.00  0.00     0.031 C 
BRANCH  12  21
HETATM   21  N2  UNL     1      29.448   2.100  54.629  1.00  0.00     0.090 N 
HETATM   22  H13 UNL     1      29.551   3.121  54.628  1.00  0.00     0.314 HD
HETATM   23  H14 UNL     1      29.080   1.727  55.542  1.00  0.00     0.314 HD
ENDBRANCH  12  21
ENDBRANCH   8  10
ENDBRANCH   5   8
BRANCH   1  24
HETATM   24  C4  UNL     1      21.326   2.025  48.904  1.00  0.00     0.160 C 
HETATM   25  C3  UNL     1      20.731   3.234  48.297  1.00  0.00     0.030 C 
HETATM   26  C2  UNL     1      20.878   3.898  47.165  1.00  0.00    -0.004 C 
HETATM   27  N7  UNL     1      19.758   3.792  49.209  1.00  0.00    -0.385 N 
HETATM   28  C1  UNL     1      21.814   3.515  46.091  1.00  0.00     0.038 C 
HETATM   29  C21 UNL     1      18.965   2.981  50.146  1.00  0.00     0.141 C 
HETATM   30  C22 UNL     1      19.424   5.200  49.340  1.00  0.00     0.149 C 
HETATM   31  C20 UNL     1      19.061   1.557  49.656  1.00  0.00     0.134 C 
HETATM   32  N6  UNL     1      20.373   1.111  49.412  1.00  0.00    -0.407 N 
HETATM   33  H20 UNL     1      20.641   0.159  49.615  1.00  0.00     0.154 HD
ENDBRANCH   1  24
TORSDOF 4
ENDMDL
MODEL 2
REMARK VINA RESULT:      -9.4      3.724      5.269
REMARK  4 active torsions:
REMARK  status: ('A' for Active; 'I' for Inactive)
REMARK    1  A    between atoms: C4_4  and  C5_5 
REMARK    2  A    between atoms: C9_9  and  N1_10 
REMARK    3  A    between atoms: N1_10  and  C10_11 
REMARK    4  A    between atoms: C12_13  and  N2_14 
ROOT
HETATM    1  C5  UNL     1      25.958   5.982  49.075  1.00  0.00    -0.030 C 
HETATM    2  C6  UNL     1      24.866   6.401  49.694  1.00  0.00     0.009 C 
HETATM    3  C7  UNL     1      24.156   5.794  50.805  1.00  0.00    -0.001 C 
HETATM    4  C8  UNL     1      24.345   4.557  51.232  1.00  0.00     0.002 C 
HETATM    5  C9  UNL     1      25.173   3.359  50.921  1.00  0.00     0.128 C 
HETATM    6  C18 UNL     1      26.377   3.761  50.115  1.00  0.00     0.003 C 
HETATM    7  C19 UNL     1      26.726   4.785  49.373  1.00  0.00     0.008 C 
ENDROOT
BRANCH   5   8
HETATM    8  N1  UNL     1      25.616   2.761  52.168  1.00  0.00    -0.379 N 
HETATM    9  H10 UNL     1      25.182   3.041  53.088  1.00  0.00     0.160 HD
BRANCH   8  10
HETATM   10  C10 UNL     1      26.602   1.804  52.339  1.00  0.00     0.027 C 
HETATM   11  C11 UNL     1      27.813   2.114  52.777  1.00  0.00     0.041 C 
HETATM   12  C12 UNL     1      29.036   1.518  53.370  1.00  0.00     0.274 C 
HETATM   13  C13 UNL     1      28.985   0.059  53.454  1.00  0.00    -0.015 A 
HETATM   14  C14 UNL     1      29.984  -0.659  54.028  1.00  0.00     0.152 A 
HETATM   15  N5  UNL     1      28.610  -1.268  53.358  1.00  0.00     0.000 N 
HETATM   16  N3  UNL     1      29.450  -1.874  53.841  1.00  0.00    -0.131 NA
HETATM   17  N4  UNL     1      28.331  -2.096  53.275  1.00  0.00    -0.105 NA
HETATM   18  C15 UNL     1      27.415  -1.382  52.746  1.00  0.00     0.070 A 
HETATM   19  C16 UNL     1      26.299  -0.747  52.120  1.00  0.00     0.030 C 
HETATM   20  C17 UNL     1      26.022   0.525  51.962  1.00  0.00     0.031 C 
BRANCH  12  21
HETATM   21  N2  UNL     1      29.444   2.146  54.604  1.00  0.00     0.090 N 
HETATM   22  H13 UNL     1      28.801   2.875  54.932  1.00  0.00     0.314 HD
HETATM   23  H14 UNL     1      29.684   1.444  55.351  1.00  0.00     0.314 HD
ENDBRANCH  12  21
ENDBRANCH   8  10
ENDBRANCH   5   8
BRANCH   1  24
HETATM   24  C4  UNL     1      26.384   6.875  47.984  1.00  0.00     0.160 C 
HETATM   25  C3  UNL     1      27.561   7.693  48.347  1.00  0.00     0.030 C 
HETATM   26  C2  UNL     1      28.866   7.613  48.163  1.00  0.00    -0.004 C 
HETATM   27  N7  UNL     1      27.120   8.852  49.091  1.00  0.00    -0.385 N 
HETATM   28  C1  UNL     1      29.538   6.517  47.439  1.00  0.00     0.038 C 
HETATM   29  C21 UNL     1      25.817   9.502  48.883  1.00  0.00     0.141 C 
HETATM   30  C22 UNL     1      27.874   9.534  50.128  1.00  0.00     0.149 C 
HETATM   31  C20 UNL     1      25.309   9.013  47.549  1.00  0.00     0.134 C 
HETATM   32  N6  UNL     1      25.333   7.614  47.392  1.00  0.00    -0.407 N 
HETATM   33  H20 UNL     1      24.603   7.139  46.884  1.00  0.00     0.154 HD
ENDBRANCH   1  24
TORSDOF 4
ENDMDL
MODEL 3
REMARK VINA RESULT:      -9.3      5.061      7.276
REMARK  4 active torsions:
REMARK  status: ('A' for Active; 'I' for Inactive)
REMARK    1  A    between atoms: C4_4  and  C5_5 
REMARK    2  A    between atoms: C9_9  and  N1_10 
REMARK    3  A    between atoms: N1_10  and  C10_11 
REMARK    4  A    between atoms: C12_13  and  N2_14 
ROOT
HETATM    1  C5  UNL     1      28.271   6.377  47.850  1.00  0.00    -0.030 C 
HETATM    2  C6  UNL     1      27.304   7.280  47.866  1.00  0.00     0.009 C 
HETATM    3  C7  UNL     1      26.029   7.241  48.561  1.00  0.00    -0.001 C 
HETATM    4  C8  UNL     1      25.503   6.157  49.105  1.00  0.00     0.002 C 
HETATM    5  C9  UNL     1      25.810   4.712  49.289  1.00  0.00     0.128 C 
HETATM    6  C18 UNL     1      27.283   4.470  49.106  1.00  0.00     0.003 C 
HETATM    7  C19 UNL     1      28.288   5.102  48.545  1.00  0.00     0.008 C 
ENDROOT
BRANCH   5   8
HETATM    8  N1  UNL     1      25.430   4.321  50.635  1.00  0.00    -0.379 N 
HETATM    9  H10 UNL     1      24.923   4.992  51.271  1.00  0.00     0.160 HD
BRANCH   8  10
HETATM   10  C10 UNL     1      25.655   3.102  51.253  1.00  0.00     0.027 C 
HETATM   11  C11 UNL     1      26.828   2.790  51.783  1.00  0.00     0.041 C 
HETATM   12  C12 UNL     1      27.476   1.849  52.732  1.00  0.00     0.274 C 
HETATM   13  C13 UNL     1      26.567   0.822  53.236  1.00  0.00    -0.015 A 
HETATM   14  C14 UNL     1      26.962  -0.089  54.163  1.00  0.00     0.152 A 
HETATM   15  N5  UNL     1      25.470   0.015  53.476  1.00  0.00     0.000 N 
HETATM   16  N3  UNL     1      25.801  -0.752  54.257  1.00  0.00    -0.131 NA
HETATM   17  N4  UNL     1      24.749  -0.470  53.596  1.00  0.00    -0.105 NA
HETATM   18  C15 UNL     1      24.420   0.404  52.727  1.00  0.00     0.070 A 
HETATM   19  C16 UNL     1      23.879   1.301  51.755  1.00  0.00     0.030 C 
HETATM   20  C17 UNL     1      24.412   2.353  51.179  1.00  0.00     0.031 C 
BRANCH  12  21
HETATM   21  N2  UNL     1      28.228   2.506  53.774  1.00  0.00     0.090 N 
HETATM   22  H13 UNL     1      27.761   3.331  54.167  1.00  0.00     0.314 HD
HETATM   23  H14 UNL     1      28.563   1.835  54.511  1.00  0.00     0.314 HD
ENDBRANCH  12  21
ENDBRANCH   8  10
ENDBRANCH   5   8
BRANCH   1  24
HETATM   24  C4  UNL     1      29.423   6.778  47.024  1.00  0.00     0.160 C 
HETATM   25  C3  UNL     1      30.703   6.703  47.761  1.00  0.00     0.030 C 
HETATM   26  C2  UNL     1      31.683   5.826  47.873  1.00  0.00    -0.004 C 
HETATM   27  N7  UNL     1      30.872   7.910  48.539  1.00  0.00    -0.385 N 
HETATM   28  C1  UNL     1      31.720   4.526  47.175  1.00  0.00     0.038 C 
HETATM   29  C21 UNL     1      30.342   9.220  48.130  1.00  0.00     0.141 C 
HETATM   30  C22 UNL     1      31.571   8.012  49.807  1.00  0.00     0.149 C 
HETATM   31  C20 UNL     1      30.023   9.107  46.660  1.00  0.00     0.134 C 
HETATM   32  N6  UNL     1      29.239   7.989  46.316  1.00  0.00    -0.407 N 
HETATM   33  H20 UNL     1      28.540   8.052  45.591  1.00  0.00     0.154 HD
ENDBRANCH   1  24
TORSDOF 4
ENDMDL
MODEL 4
REMARK VINA RESULT:      -8.9      3.103      4.441
REMARK  4 active torsions:
REMARK  status: ('A' for Active; 'I' for Inactive)
REMARK    1  A    between atoms: C4_4  and  C5_5 
REMARK    2  A    between atoms: C9_9  and  N1_10 
REMARK    3  A    between atoms: N1_10  and  C10_11 
REMARK    4  A    between atoms: C12_13  and  N2_14 
ROOT
HETATM    1  C5  UNL     1      23.370   5.713  50.386  1.00  0.00    -0.030 C 
HETATM    2  C6  UNL     1      23.549   5.772  51.696  1.00  0.00     0.009 C 
HETATM    3  C7  UNL     1      23.494   4.701  52.674  1.00  0.00    -0.001 C 
HETATM    4  C8  UNL     1      22.995   3.499  52.445  1.00  0.00     0.002 C 
HETATM    5  C9  UNL     1      22.358   2.720  51.346  1.00  0.00     0.128 C 
HETATM    6  C18 UNL     1      22.670   3.353  50.019  1.00  0.00     0.003 C 
HETATM    7  C19 UNL     1      23.071   4.530  49.597  1.00  0.00     0.008 C 
ENDROOT
BRANCH   5   8
HETATM    8  N1  UNL     1      22.889   1.369  51.363  1.00  0.00    -0.379 N 
HETATM    9  H10 UNL     1      22.385   0.582  50.875  1.00  0.00     0.160 HD
BRANCH   8  10
HETATM   10  C10 UNL     1      24.051   0.929  51.975  1.00  0.00     0.027 C 
HETATM   11  C11 UNL     1      25.247   1.360  51.603  1.00  0.00     0.041 C 
HETATM   12  C12 UNL     1      26.658   1.448  52.056  1.00  0.00     0.274 C 
HETATM   13  C13 UNL     1      26.901   0.759  53.322  1.00  0.00    -0.015 A 
HETATM   14  C14 UNL     1      28.117   0.785  53.928  1.00  0.00     0.152 A 
HETATM   15  N5  UNL     1      26.771   0.014  54.479  1.00  0.00     0.000 N 
HETATM   16  N3  UNL     1      27.794   0.035  54.990  1.00  0.00    -0.131 NA
HETATM   17  N4  UNL     1      26.642  -0.467  55.202  1.00  0.00    -0.105 NA
HETATM   18  C15 UNL     1      25.517  -0.464  54.599  1.00  0.00     0.070 A 
HETATM   19  C16 UNL     1      24.195  -0.568  54.070  1.00  0.00     0.030 C 
HETATM   20  C17 UNL     1      23.657  -0.012  53.010  1.00  0.00     0.031 C 
BRANCH  12  21
HETATM   21  N2  UNL     1      27.193   2.788  52.024  1.00  0.00     0.090 N 
HETATM   22  H13 UNL     1      27.362   3.190  52.953  1.00  0.00     0.314 HD
HETATM   23  H14 UNL     1      28.023   2.874  51.383  1.00  0.00     0.314 HD
ENDBRANCH  12  21
ENDBRANCH   8  10
ENDBRANCH   5   8
BRANCH   1  24
HETATM   24  C4  UNL     1      23.507   7.021  49.724  1.00  0.00     0.160 C 
HETATM   25  C3  UNL     1      24.359   6.959  48.517  1.00  0.00     0.030 C 
HETATM   26  C2  UNL     1      24.157   6.846  47.217  1.00  0.00    -0.004 C 
HETATM   27  N7  UNL     1      25.747   7.042  48.913  1.00  0.00    -0.385 N 
HETATM   28  C1  UNL     1      22.826   6.742  46.588  1.00  0.00     0.038 C 
HETATM   29  C21 UNL     1      26.211   7.784  50.096  1.00  0.00     0.141 C 
HETATM   30  C22 UNL     1      26.866   6.422  48.226  1.00  0.00     0.149 C 
HETATM   31  C20 UNL     1      25.084   8.711  50.481  1.00  0.00     0.134 C 
HETATM   32  N6  UNL     1      23.828   8.086  50.598  1.00  0.00    -0.407 N 
HETATM   33  H20 UNL     1      23.171   8.376  51.307  1.00  0.00     0.154 HD
ENDBRANCH   1  24
TORSDOF 4
ENDMDL
MODEL 5
REMARK VINA RESULT:      -8.8      3.816      5.149
REMARK  4 active torsions:
REMARK  status: ('A' for Active; 'I' for Inactive)
REMARK    1  A    between atoms: C4_4  and  C5_5 
REMARK    2  A    between atoms: C9_9  and  N1_10 
REMARK    3  A    between atoms: N1_10  and  C10_11 
REMARK    4  A    between atoms: C12_13  and  N2_14 
ROOT
HETATM    1  C5  UNL     1      24.334   6.533  48.892  1.00  0.00    -0.030 C 
HETATM    2  C6  UNL     1      23.429   5.964  48.112  1.00  0.00     0.009 C 
HETATM    3  C7  UNL     1      22.919   4.605  48.147  1.00  0.00    -0.001 C 
HETATM    4  C8  UNL     1      23.471   3.612  48.823  1.00  0.00     0.002 C 
HETATM    5  C9  UNL     1      24.633   3.351  49.716  1.00  0.00     0.128 C 
HETATM    6  C18 UNL     1      25.140   4.642  50.294  1.00  0.00     0.003 C 
HETATM    7  C19 UNL     1      25.045   5.918  49.999  1.00  0.00     0.008 C 
ENDROOT
BRANCH   5   8
HETATM    8  N1  UNL     1      24.204   2.484  50.799  1.00  0.00    -0.379 N 
HETATM    9  H10 UNL     1      23.182   2.372  51.032  1.00  0.00     0.160 HD
BRANCH   8  10
HETATM   10  C10 UNL     1      25.004   1.724  51.637  1.00  0.00     0.027 C 
HETATM   11  C11 UNL     1      26.309   1.926  51.733  1.00  0.00     0.041 C 
HETATM   12  C12 UNL     1      27.482   1.642  52.599  1.00  0.00     0.274 C 
HETATM   13  C13 UNL     1      27.169   0.761  53.722  1.00  0.00    -0.015 A 
HETATM   14  C14 UNL     1      28.099   0.441  54.660  1.00  0.00     0.152 A 
HETATM   15  N5  UNL     1      26.537  -0.079  54.621  1.00  0.00     0.000 N 
HETATM   16  N3  UNL     1      27.319  -0.349  55.411  1.00  0.00    -0.131 NA
HETATM   17  N4  UNL     1      26.096  -0.608  55.164  1.00  0.00    -0.105 NA
HETATM   18  C15 UNL     1      25.254  -0.281  54.263  1.00  0.00     0.070 A 
HETATM   19  C16 UNL     1      24.187  -0.022  53.349  1.00  0.00     0.030 C 
HETATM   20  C17 UNL     1      24.135   0.769  52.304  1.00  0.00     0.031 C 
BRANCH  12  21
HETATM   21  N2  UNL     1      28.212   2.825  52.988  1.00  0.00     0.090 N 
HETATM   22  H13 UNL     1      29.225   2.755  52.840  1.00  0.00     0.314 HD
HETATM   23  H14 UNL     1      27.798   3.704  52.583  1.00  0.00     0.314 HD
ENDBRANCH  12  21
ENDBRANCH   8  10
ENDBRANCH   5   8
BRANCH   1  24
HETATM   24  C4  UNL     1      24.592   7.942  48.546  1.00  0.00     0.160 C 
HETATM   25  C3  UNL     1      25.587   8.086  47.462  1.00  0.00     0.030 C 
HETATM   26  C2  UNL     1      25.547   8.258  46.154  1.00  0.00    -0.004 C 
HETATM   27  N7  UNL     1      26.916   8.006  48.026  1.00  0.00    -0.385 N 
HETATM   28  C1  UNL     1      24.304   8.363  45.366  1.00  0.00     0.038 C 
HETATM   29  C21 UNL     1      27.249   8.458  49.386  1.00  0.00     0.141 C 
HETATM   30  C22 UNL     1      28.094   7.483  47.357  1.00  0.00     0.149 C 
HETATM   31  C20 UNL     1      26.110   9.345  49.827  1.00  0.00     0.134 C 
HETATM   32  N6  UNL     1      24.831   8.781  49.659  1.00  0.00    -0.407 N 
HETATM   33  H20 UNL     1      24.100   8.952  50.332  1.00  0.00     0.154 HD
ENDBRANCH   1  24
TORSDOF 4
ENDMDL
MODEL 6
REMARK VINA RESULT:      -8.7      3.383      5.106
REMARK  4 active torsions:
REMARK  status: ('A' for Active; 'I' for Inactive)
REMARK    1  A    between atoms: C4_4  and  C5_5 
REMARK    2  A    between atoms: C9_9  and  N1_10 
REMARK    3  A    between atoms: N1_10  and  C10_11 
REMARK    4  A    between atoms: C12_13  and  N2_14 
ROOT
HETATM    1  C5  UNL     1      25.379   5.460  49.026  1.00  0.00    -0.030 C 
HETATM    2  C6  UNL     1      24.066   5.398  49.174  1.00  0.00     0.009 C 
HETATM    3  C7  UNL     1      23.283   4.533  50.039  1.00  0.00    -0.001 C 
HETATM    4  C8  UNL     1      23.754   3.462  50.653  1.00  0.00     0.002 C 
HETATM    5  C9  UNL     1      25.023   2.696  50.797  1.00  0.00     0.128 C 
HETATM    6  C18 UNL     1      26.192   3.560  50.412  1.00  0.00     0.003 C 
HETATM    7  C19 UNL     1      26.375   4.657  49.715  1.00  0.00     0.008 C 
ENDROOT
BRANCH   5   8
HETATM    8  N1  UNL     1      25.170   2.291  52.184  1.00  0.00    -0.379 N 
HETATM    9  H10 UNL     1      24.503   2.637  52.923  1.00  0.00     0.160 HD
BRANCH   8  10
HETATM   10  C10 UNL     1      26.134   1.452  52.718  1.00  0.00     0.027 C 
HETATM   11  C11 UNL     1      25.992   0.135  52.725  1.00  0.00     0.041 C 
HETATM   12  C12 UNL     1      26.757  -1.128  52.877  1.00  0.00     0.274 C 
HETATM   13  C13 UNL     1      28.160  -0.915  53.227  1.00  0.00    -0.015 A 
HETATM   14  C14 UNL     1      29.032  -1.949  53.345  1.00  0.00     0.152 A 
HETATM   15  N5  UNL     1      29.378  -0.354  53.565  1.00  0.00     0.000 N 
HETATM   16  N3  UNL     1      30.114  -1.224  53.665  1.00  0.00    -0.131 NA
HETATM   17  N4  UNL     1      30.130   0.045  53.778  1.00  0.00    -0.105 NA
HETATM   18  C15 UNL     1      29.277   0.986  53.656  1.00  0.00     0.070 A 
HETATM   19  C16 UNL     1      28.465   2.158  53.563  1.00  0.00     0.030 C 
HETATM   20  C17 UNL     1      27.212   2.298  53.203  1.00  0.00     0.031 C 
BRANCH  12  21
HETATM   21  N2  UNL     1      26.577  -2.048  51.779  1.00  0.00     0.090 N 
HETATM   22  H13 UNL     1      25.668  -2.525  51.781  1.00  0.00     0.314 HD
HETATM   23  H14 UNL     1      26.810  -1.614  50.849  1.00  0.00     0.314 HD
ENDBRANCH  12  21
ENDBRANCH   8  10
ENDBRANCH   5   8
BRANCH   1  24
HETATM   24  C4  UNL     1      25.804   6.475  48.047  1.00  0.00     0.160 C 
HETATM   25  C3  UNL     1      26.888   7.340  48.561  1.00  0.00     0.030 C 
HETATM   26  C2  UNL     1      28.204   7.370  48.465  1.00  0.00    -0.004 C 
HETATM   27  N7  UNL     1      26.311   8.393  49.366  1.00  0.00    -0.385 N 
HETATM   28  C1  UNL     1      29.005   6.395  47.701  1.00  0.00     0.038 C 
HETATM   29  C21 UNL     1      24.977   8.964  49.121  1.00  0.00     0.141 C 
HETATM   30  C22 UNL     1      26.940   9.032  50.508  1.00  0.00     0.149 C 
HETATM   31  C20 UNL     1      24.597   8.560  47.718  1.00  0.00     0.134 C 
HETATM   32  N6  UNL     1      24.740   7.186  47.446  1.00  0.00    -0.407 N 
HETATM   33  H20 UNL     1      24.083   6.708  46.848  1.00  0.00     0.154 HD
ENDBRANCH   1  24
TORSDOF 4
ENDMDL
MODEL 7
REMARK VINA RESULT:      -8.6      5.278      7.647
REMARK  4 active torsions:
REMARK  status: ('A' for Active; 'I' for Inactive)
REMARK    1  A    between atoms: C4_4  and  C5_5 
REMARK    2  A    between atoms: C9_9  and  N1_10 
REMARK    3  A    between atoms: N1_10  and  C10_11 
REMARK    4  A    between atoms: C12_13  and  N2_14 
ROOT
HETATM    1  C5  UNL     1      27.773   7.102  47.985  1.00  0.00    -0.030 C 
HETATM    2  C6  UNL     1      26.670   7.586  48.532  1.00  0.00     0.009 C 
HETATM    3  C7  UNL     1      25.760   6.950  49.469  1.00  0.00    -0.001 C 
HETATM    4  C8  UNL     1      25.747   5.658  49.743  1.00  0.00     0.002 C 
HETATM    5  C9  UNL     1      26.461   4.406  49.366  1.00  0.00     0.128 C 
HETATM    6  C18 UNL     1      27.794   4.737  48.756  1.00  0.00     0.003 C 
HETATM    7  C19 UNL     1      28.352   5.788  48.200  1.00  0.00     0.008 C 
ENDROOT
BRANCH   5   8
HETATM    8  N1  UNL     1      26.671   3.610  50.562  1.00  0.00    -0.379 N 
HETATM    9  H10 UNL     1      27.626   3.535  51.003  1.00  0.00     0.160 HD
BRANCH   8  10
HETATM   10  C10 UNL     1      25.727   2.875  51.260  1.00  0.00     0.027 C 
HETATM   11  C11 UNL     1      24.445   2.882  50.927  1.00  0.00     0.041 C 
HETATM   12  C12 UNL     1      23.178   2.132  51.115  1.00  0.00     0.274 C 
HETATM   13  C13 UNL     1      23.299   1.024  52.060  1.00  0.00    -0.015 A 
HETATM   14  C14 UNL     1      22.262   0.183  52.312  1.00  0.00     0.152 A 
HETATM   15  N5  UNL     1      23.760   0.111  52.991  1.00  0.00     0.000 N 
HETATM   16  N3  UNL     1      22.888  -0.597  53.204  1.00  0.00    -0.131 NA
HETATM   17  N4  UNL     1      24.096  -0.445  53.581  1.00  0.00    -0.105 NA
HETATM   18  C15 UNL     1      25.043   0.367  53.314  1.00  0.00     0.070 A 
HETATM   19  C16 UNL     1      26.208   1.176  53.139  1.00  0.00     0.030 C 
HETATM   20  C17 UNL     1      26.432   2.178  52.323  1.00  0.00     0.031 C 
BRANCH  12  21
HETATM   21  N2  UNL     1      22.540   1.756  49.876  1.00  0.00     0.090 N 
HETATM   22  H13 UNL     1      21.540   1.543  49.971  1.00  0.00     0.314 HD
HETATM   23  H14 UNL     1      22.741   2.436  49.098  1.00  0.00     0.314 HD
ENDBRANCH  12  21
ENDBRANCH   8  10
ENDBRANCH   5   8
BRANCH   1  24
HETATM   24  C4  UNL     1      28.434   8.055  47.076  1.00  0.00     0.160 C 
HETATM   25  C3  UNL     1      29.794   8.418  47.527  1.00  0.00     0.030 C 
HETATM   26  C2  UNL     1      31.023   8.022  47.251  1.00  0.00    -0.004 C 
HETATM   27  N7  UNL     1      29.700   9.467  48.518  1.00  0.00    -0.385 N 
HETATM   28  C1  UNL     1      31.357   6.965  46.277  1.00  0.00     0.038 C 
HETATM   29  C21 UNL     1      28.634  10.481  48.528  1.00  0.00     0.141 C 
HETATM   30  C22 UNL     1      30.616   9.676  49.625  1.00  0.00     0.149 C 
HETATM   31  C20 UNL     1      28.008  10.448  47.155  1.00  0.00     0.134 C 
HETATM   32  N6  UNL     1      27.635   9.164  46.714  1.00  0.00    -0.407 N 
HETATM   33  H20 UNL     1      26.800   9.030  46.164  1.00  0.00     0.154 HD
ENDBRANCH   1  24
TORSDOF 4
ENDMDL
MODEL 8
REMARK VINA RESULT:      -8.5      2.047      3.043
REMARK  4 active torsions:
REMARK  status: ('A' for Active; 'I' for Inactive)
REMARK    1  A    between atoms: C4_4  and  C5_5 
REMARK    2  A    between atoms: C9_9  and  N1_10 
REMARK    3  A    between atoms: N1_10  and  C10_11 
REMARK    4  A    between atoms: C12_13  and  N2_14 
ROOT
HETATM    1  C5  UNL     1      22.801   4.318  49.715  1.00  0.00    -0.030 C 
HETATM    2  C6  UNL     1      23.166   4.867  50.863  1.00  0.00     0.009 C 
HETATM    3  C7  UNL     1      23.422   4.227  52.141  1.00  0.00    -0.001 C 
HETATM    4  C8  UNL     1      23.080   2.986  52.441  1.00  0.00     0.002 C 
HETATM    5  C9  UNL     1      22.409   1.808  51.824  1.00  0.00     0.128 C 
HETATM    6  C18 UNL     1      22.417   1.937  50.326  1.00  0.00     0.003 C 
HETATM    7  C19 UNL     1      22.568   2.908  49.456  1.00  0.00     0.008 C 
ENDROOT
BRANCH   5   8
HETATM    8  N1  UNL     1      23.133   0.607  52.201  1.00  0.00    -0.379 N 
HETATM    9  H10 UNL     1      22.659  -0.334  52.203  1.00  0.00     0.160 HD
BRANCH   8  10
HETATM   10  C10 UNL     1      24.460   0.512  52.588  1.00  0.00     0.027 C 
HETATM   11  C11 UNL     1      25.433   1.105  51.914  1.00  0.00     0.041 C 
HETATM   12  C12 UNL     1      26.847   1.542  52.031  1.00  0.00     0.274 C 
HETATM   13  C13 UNL     1      27.476   1.130  53.284  1.00  0.00    -0.015 A 
HETATM   14  C14 UNL     1      28.746   1.494  53.599  1.00  0.00     0.152 A 
HETATM   15  N5  UNL     1      27.741   0.572  54.521  1.00  0.00     0.000 N 
HETATM   16  N3  UNL     1      28.810   0.878  54.788  1.00  0.00    -0.131 NA
HETATM   17  N4  UNL     1      27.864   0.200  55.306  1.00  0.00    -0.105 NA
HETATM   18  C15 UNL     1      26.675  -0.118  54.970  1.00  0.00     0.070 A 
HETATM   19  C16 UNL     1      25.335  -0.566  54.761  1.00  0.00     0.030 C 
HETATM   20  C17 UNL     1      24.493  -0.308  53.789  1.00  0.00     0.031 C 
BRANCH  12  21
HETATM   21  N2  UNL     1      27.046   2.938  51.724  1.00  0.00     0.090 N 
HETATM   22  H13 UNL     1      27.930   3.136  51.242  1.00  0.00     0.314 HD
HETATM   23  H14 UNL     1      26.213   3.367  51.245  1.00  0.00     0.314 HD
ENDBRANCH  12  21
ENDBRANCH   8  10
ENDBRANCH   5   8
BRANCH   1  24
HETATM   24  C4  UNL     1      22.638   5.300  48.630  1.00  0.00     0.160 C 
HETATM   25  C3  UNL     1      21.564   6.278  48.907  1.00  0.00     0.030 C 
HETATM   26  C2  UNL     1      21.499   7.503  49.394  1.00  0.00    -0.004 C 
HETATM   27  N7  UNL     1      20.291   5.699  48.541  1.00  0.00    -0.385 N 
HETATM   28  C1  UNL     1      22.668   8.286  49.836  1.00  0.00     0.038 C 
HETATM   29  C21 UNL     1      20.126   4.724  47.451  1.00  0.00     0.141 C 
HETATM   30  C22 UNL     1      19.015   5.981  49.174  1.00  0.00     0.149 C 
HETATM   31  C20 UNL     1      21.375   4.817  46.609  1.00  0.00     0.134 C 
HETATM   32  N6  UNL     1      22.577   4.734  47.335  1.00  0.00    -0.407 N 
HETATM   33  H20 UNL     1      23.380   4.259  46.951  1.00  0.00     0.154 HD
ENDBRANCH   1  24
TORSDOF 4
ENDMDL
MODEL 9
REMARK VINA RESULT:      -8.5      4.929      6.610
REMARK  4 active torsions:
REMARK  status: ('A' for Active; 'I' for Inactive)
REMARK    1  A    between atoms: C4_4  and  C5_5 
REMARK    2  A    between atoms: C9_9  and  N1_10 
REMARK    3  A    between atoms: N1_10  and  C10_11 
REMARK    4  A    between atoms: C12_13  and  N2_14 
ROOT
HETATM    1  C5  UNL     1      22.770   4.527  51.282  1.00  0.00    -0.030 C 
HETATM    2  C6  UNL     1      22.260   5.747  51.279  1.00  0.00     0.009 C 
HETATM    3  C7  UNL     1      22.804   6.963  50.701  1.00  0.00    -0.001 C 
HETATM    4  C8  UNL     1      24.051   7.107  50.289  1.00  0.00     0.002 C 
HETATM    5  C9  UNL     1      25.315   6.325  50.192  1.00  0.00     0.128 C 
HETATM    6  C18 UNL     1      25.018   4.854  50.267  1.00  0.00     0.003 C 
HETATM    7  C19 UNL     1      24.028   4.104  50.689  1.00  0.00     0.008 C 
ENDROOT
BRANCH   5   8
HETATM    8  N1  UNL     1      25.948   6.617  48.918  1.00  0.00    -0.379 N 
HETATM    9  H10 UNL     1      25.395   6.596  48.021  1.00  0.00     0.160 HD
BRANCH   8  10
HETATM   10  C10 UNL     1      27.275   6.944  48.693  1.00  0.00     0.027 C 
HETATM   11  C11 UNL     1      27.725   8.183  48.821  1.00  0.00     0.041 C 
HETATM   12  C12 UNL     1      28.974   8.970  48.980  1.00  0.00     0.274 C 
HETATM   13  C13 UNL     1      30.184   8.155  48.889  1.00  0.00    -0.015 A 
HETATM   14  C14 UNL     1      31.419   8.687  49.075  1.00  0.00     0.152 A 
HETATM   15  N5  UNL     1      31.080   7.113  48.732  1.00  0.00     0.000 N 
HETATM   16  N3  UNL     1      32.121   7.560  48.888  1.00  0.00    -0.131 NA
HETATM   17  N4  UNL     1      31.610   6.423  48.624  1.00  0.00    -0.105 NA
HETATM   18  C15 UNL     1      30.431   5.965  48.457  1.00  0.00     0.070 A 
HETATM   19  C16 UNL     1      29.195   5.282  48.244  1.00  0.00     0.030 C 
HETATM   20  C17 UNL     1      27.959   5.714  48.328  1.00  0.00     0.031 C 
BRANCH  12  21
HETATM   21  N2  UNL     1      28.962   9.847  50.125  1.00  0.00     0.090 N 
HETATM   22  H13 UNL     1      28.149  10.473  50.161  1.00  0.00     0.314 HD
HETATM   23  H14 UNL     1      29.121   9.331  51.028  1.00  0.00     0.314 HD
ENDBRANCH  12  21
ENDBRANCH   8  10
ENDBRANCH   5   8
BRANCH   1  24
HETATM   24  C4  UNL     1      21.918   3.544  51.973  1.00  0.00     0.160 C 
HETATM   25  C3  UNL     1      22.048   2.184  51.408  1.00  0.00     0.030 C 
HETATM   26  C2  UNL     1      22.735   1.096  51.702  1.00  0.00    -0.004 C 
HETATM   27  N7  UNL     1      21.195   2.071  50.246  1.00  0.00    -0.385 N 
HETATM   28  C1  UNL     1      23.670   0.984  52.839  1.00  0.00     0.038 C 
HETATM   29  C21 UNL     1      19.929   2.805  50.093  1.00  0.00     0.141 C 
HETATM   30  C22 UNL     1      21.448   1.238  49.084  1.00  0.00     0.149 C 
HETATM   31  C20 UNL     1      19.551   3.287  51.473  1.00  0.00     0.134 C 
HETATM   32  N6  UNL     1      20.579   3.963  52.157  1.00  0.00    -0.407 N 
HETATM   33  H20 UNL     1      20.371   4.748  52.755  1.00  0.00     0.154 HD
ENDBRANCH   1  24
TORSDOF 4
ENDMDL
