MODEL 1
REMARK VINA RESULT:      -8.5      0.000      0.000
REMARK  2 active torsions:
REMARK  status: ('A' for Active; 'I' for Inactive)
REMARK    1  A    between atoms: O1_2  and  C2_3 
REMARK    2  A    between atoms: C6_9  and  S1_10 
ROOT
HETATM    1  C2  UNL     1      27.002   1.290  52.660  1.00  0.00     0.070 C 
HETATM    2  C3  UNL     1      26.550   0.738  53.748  1.00  0.00     0.053 C 
HETATM    3  C4  UNL     1      25.303   0.079  54.103  1.00  0.00     0.120 C 
HETATM    4  N1  UNL     1      24.122  -0.348  53.884  1.00  0.00    -0.254 NA
HETATM    5  C5  UNL     1      23.392  -0.227  52.673  1.00  0.00     0.228 C 
HETATM    6  N2  UNL     1      22.980   0.839  53.212  1.00  0.00    -0.263 NA
HETATM    7  C6  UNL     1      22.078   1.832  52.736  1.00  0.00     0.199 C 
HETATM    8  C12 UNL     1      22.590   2.442  51.455  1.00  0.00    -0.034 C 
HETATM    9  C13 UNL     1      22.492   1.476  50.350  1.00  0.00     0.048 C 
HETATM   10  C14 UNL     1      23.113   3.487  50.844  1.00  0.00     0.090 C 
HETATM   11  N3  UNL     1      23.673   4.545  50.094  1.00  0.00    -0.394 N 
HETATM   12  C15 UNL     1      22.734   4.742  49.047  1.00  0.00     0.148 C 
HETATM   13  C16 UNL     1      24.953   5.131  50.447  1.00  0.00     0.123 C 
HETATM   14  C17 UNL     1      26.054   4.723  49.507  1.00  0.00     0.046 C 
HETATM   15  C18 UNL     1      26.156   3.183  49.647  1.00  0.00     0.169 C 
HETATM   16  O2  UNL     1      26.507   2.873  50.961  1.00  0.00    -0.385 OA
HETATM   17  C19 UNL     1      26.548   1.540  51.258  1.00  0.00     0.232 C 
ENDROOT
BRANCH   7  18
HETATM   18  S1  UNL     1      20.466   1.089  52.433  1.00  0.00    -0.142 SA
HETATM   19  C7  UNL     1      19.347   1.675  51.404  1.00  0.00     0.044 A 
HETATM   20  C8  UNL     1      18.116   0.900  51.330  1.00  0.00     0.050 A 
HETATM   21  C9  UNL     1      17.884  -0.184  52.013  1.00  0.00     0.139 A 
HETATM   22  F1  UNL     1      16.667  -0.795  51.824  1.00  0.00    -0.204 F 
HETATM   23  C10 UNL     1      18.739  -0.862  52.970  1.00  0.00     0.078 A 
HETATM   24 CL1  UNL     1      18.253  -2.332  53.807  1.00  0.00    -0.081 Cl
HETATM   25  C11 UNL     1      19.960  -0.430  53.296  1.00  0.00     0.068 A 
ENDBRANCH   7  18
BRANCH   1  26
HETATM   26  O1  UNL     1      28.285   1.843  52.699  1.00  0.00    -0.358 OA
HETATM   27  C1  UNL     1      28.830   2.473  53.824  1.00  0.00     0.209 C 
ENDBRANCH   1  26
TORSDOF 2
ENDMDL
MODEL 2
REMARK VINA RESULT:      -8.5      2.032      2.515
REMARK  2 active torsions:
REMARK  status: ('A' for Active; 'I' for Inactive)
REMARK    1  A    between atoms: O1_2  and  C2_3 
REMARK    2  A    between atoms: C6_9  and  S1_10 
ROOT
HETATM    1  C2  UNL     1      25.451  -0.227  54.631  1.00  0.00     0.070 C 
HETATM    2  C3  UNL     1      24.830  -0.827  55.605  1.00  0.00     0.053 C 
HETATM    3  C4  UNL     1      23.554  -1.517  55.716  1.00  0.00     0.120 C 
HETATM    4  N1  UNL     1      22.437  -1.952  55.282  1.00  0.00    -0.254 NA
HETATM    5  C5  UNL     1      21.924  -1.794  53.968  1.00  0.00     0.228 C 
HETATM    6  N2  UNL     1      21.404  -0.756  54.464  1.00  0.00    -0.263 NA
HETATM    7  C6  UNL     1      20.577   0.241  53.876  1.00  0.00     0.199 C 
HETATM    8  C12 UNL     1      21.289   0.907  52.724  1.00  0.00    -0.034 C 
HETATM    9  C13 UNL     1      21.402  -0.017  51.585  1.00  0.00     0.048 C 
HETATM   10  C14 UNL     1      21.888   1.982  52.250  1.00  0.00     0.090 C 
HETATM   11  N3  UNL     1      22.546   3.076  51.645  1.00  0.00    -0.394 N 
HETATM   12  C15 UNL     1      21.798   3.299  50.460  1.00  0.00     0.148 C 
HETATM   13  C16 UNL     1      23.734   3.666  52.234  1.00  0.00     0.123 C 
HETATM   14  C17 UNL     1      24.989   3.310  51.485  1.00  0.00     0.046 C 
HETATM   15  C18 UNL     1      25.097   1.767  51.586  1.00  0.00     0.169 C 
HETATM   16  O2  UNL     1      25.222   1.412  52.929  1.00  0.00    -0.385 OA
HETATM   17  C19 UNL     1      25.239   0.069  53.182  1.00  0.00     0.232 C 
ENDROOT
BRANCH   7  18
HETATM   18  S1  UNL     1      19.057  -0.512  53.273  1.00  0.00    -0.142 SA
HETATM   19  C7  UNL     1      18.026   0.180  52.217  1.00  0.00     0.044 A 
HETATM   20  C8  UNL     1      16.860  -0.625  51.880  1.00  0.00     0.050 A 
HETATM   21  C9  UNL     1      16.620  -1.812  52.359  1.00  0.00     0.139 A 
HETATM   22  F1  UNL     1      15.470  -2.436  51.935  1.00  0.00    -0.204 F 
HETATM   23  C10 UNL     1      17.401  -2.594  53.299  1.00  0.00     0.078 A 
HETATM   24 CL1  UNL     1      16.913  -4.196  53.840  1.00  0.00    -0.081 Cl
HETATM   25  C11 UNL     1      18.549  -2.168  53.829  1.00  0.00     0.068 A 
ENDBRANCH   7  18
BRANCH   1  26
HETATM   26  O1  UNL     1      26.696   0.342  54.911  1.00  0.00    -0.358 OA
HETATM   27  C1  UNL     1      27.906  -0.133  54.393  1.00  0.00     0.209 C 
ENDBRANCH   1  26
TORSDOF 2
ENDMDL
MODEL 3
REMARK VINA RESULT:      -7.8      4.245      6.957
REMARK  2 active torsions:
REMARK  status: ('A' for Active; 'I' for Inactive)
REMARK    1  A    between atoms: O1_2  and  C2_3 
REMARK    2  A    between atoms: C6_9  and  S1_10 
ROOT
HETATM    1  C2  UNL     1      19.058   2.432  51.040  1.00  0.00     0.070 C 
HETATM    2  C3  UNL     1      19.169   1.143  51.181  1.00  0.00     0.053 C 
HETATM    3  C4  UNL     1      20.106   0.281  51.883  1.00  0.00     0.120 C 
HETATM    4  N1  UNL     1      21.131   0.035  52.601  1.00  0.00    -0.254 NA
HETATM    5  C5  UNL     1      22.031   0.990  53.142  1.00  0.00     0.228 C 
HETATM    6  N2  UNL     1      22.653   0.783  52.062  1.00  0.00    -0.263 NA
HETATM    7  C6  UNL     1      23.863   1.344  51.565  1.00  0.00     0.199 C 
HETATM    8  C12 UNL     1      23.740   2.842  51.440  1.00  0.00    -0.034 C 
HETATM    9  C13 UNL     1      23.710   3.469  52.770  1.00  0.00     0.048 C 
HETATM   10  C14 UNL     1      23.636   3.894  50.652  1.00  0.00     0.090 C 
HETATM   11  N3  UNL     1      23.521   5.086  49.901  1.00  0.00    -0.394 N 
HETATM   12  C15 UNL     1      24.616   5.868  50.352  1.00  0.00     0.148 C 
HETATM   13  C16 UNL     1      22.430   5.292  48.967  1.00  0.00     0.123 C 
HETATM   14  C17 UNL     1      21.404   6.264  49.481  1.00  0.00     0.046 C 
HETATM   15  C18 UNL     1      20.840   5.614  50.770  1.00  0.00     0.169 C 
HETATM   16  O2  UNL     1      20.230   4.405  50.434  1.00  0.00    -0.385 OA
HETATM   17  C19 UNL     1      19.761   3.672  51.487  1.00  0.00     0.232 C 
ENDROOT
BRANCH   7  18
HETATM   18  S1  UNL     1      25.215   0.955  52.688  1.00  0.00    -0.142 SA
HETATM   19  C7  UNL     1      25.241  -0.309  53.716  1.00  0.00     0.044 A 
HETATM   20  C8  UNL     1      26.446  -0.415  54.528  1.00  0.00     0.050 A 
HETATM   21  C9  UNL     1      27.450   0.411  54.470  1.00  0.00     0.139 A 
HETATM   22  F1  UNL     1      28.512   0.165  55.307  1.00  0.00    -0.204 F 
HETATM   23  C10 UNL     1      27.621   1.585  53.634  1.00  0.00     0.078 A 
HETATM   24 CL1  UNL     1      29.061   2.594  53.693  1.00  0.00    -0.081 Cl
HETATM   25  C11 UNL     1      26.706   1.996  52.753  1.00  0.00     0.068 A 
ENDBRANCH   7  18
BRANCH   1  26
HETATM   26  O1  UNL     1      18.000   2.909  50.263  1.00  0.00    -0.358 OA
HETATM   27  C1  UNL     1      16.790   3.372  50.791  1.00  0.00     0.209 C 
ENDBRANCH   1  26
TORSDOF 2
ENDMDL
MODEL 4
REMARK VINA RESULT:      -7.6      4.793      8.414
REMARK  2 active torsions:
REMARK  status: ('A' for Active; 'I' for Inactive)
REMARK    1  A    between atoms: O1_2  and  C2_3 
REMARK    2  A    between atoms: C6_9  and  S1_10 
ROOT
HETATM    1  C2  UNL     1      17.939   3.100  51.004  1.00  0.00     0.070 C 
HETATM    2  C3  UNL     1      18.140   4.355  50.724  1.00  0.00     0.053 C 
HETATM    3  C4  UNL     1      19.238   5.091  50.118  1.00  0.00     0.120 C 
HETATM    4  N1  UNL     1      20.394   5.213  49.594  1.00  0.00    -0.254 NA
HETATM    5  C5  UNL     1      21.333   4.172  49.371  1.00  0.00     0.228 C 
HETATM    6  N2  UNL     1      21.742   4.509  50.518  1.00  0.00    -0.263 NA
HETATM    7  C6  UNL     1      22.803   3.993  51.314  1.00  0.00     0.199 C 
HETATM    8  C12 UNL     1      22.583   2.530  51.605  1.00  0.00    -0.034 C 
HETATM    9  C13 UNL     1      22.782   1.728  50.387  1.00  0.00     0.048 C 
HETATM   10  C14 UNL     1      22.275   1.597  52.485  1.00  0.00     0.090 C 
HETATM   11  N3  UNL     1      21.957   0.522  53.345  1.00  0.00    -0.394 N 
HETATM   12  C15 UNL     1      23.079  -0.340  53.226  1.00  0.00     0.148 C 
HETATM   13  C16 UNL     1      20.696   0.470  54.060  1.00  0.00     0.123 C 
HETATM   14  C17 UNL     1      19.743  -0.539  53.481  1.00  0.00     0.046 C 
HETATM   15  C18 UNL     1      19.474  -0.057  52.033  1.00  0.00     0.169 C 
HETATM   16  O2  UNL     1      18.871   1.200  52.082  1.00  0.00    -0.385 OA
HETATM   17  C19 UNL     1      18.654   1.794  50.870  1.00  0.00     0.232 C 
ENDROOT
BRANCH   7  18
HETATM   18  S1  UNL     1      24.366   4.194  50.444  1.00  0.00    -0.142 SA
HETATM   19  C7  UNL     1      25.593   3.122  50.470  1.00  0.00     0.044 A 
HETATM   20  C8  UNL     1      26.760   3.506  49.687  1.00  0.00     0.050 A 
HETATM   21  C9  UNL     1      26.859   4.610  49.003  1.00  0.00     0.139 A 
HETATM   22  F1  UNL     1      28.033   4.818  48.318  1.00  0.00    -0.204 F 
HETATM   23  C10 UNL     1      25.893   5.681  48.852  1.00  0.00     0.078 A 
HETATM   24 CL1  UNL     1      26.204   7.113  47.878  1.00  0.00    -0.081 Cl
HETATM   25  C11 UNL     1      24.692   5.672  49.436  1.00  0.00     0.068 A 
ENDBRANCH   7  18
BRANCH   1  26
HETATM   26  O1  UNL     1      16.727   2.757  51.609  1.00  0.00    -0.358 OA
HETATM   27  C1  UNL     1      15.813   3.690  52.109  1.00  0.00     0.209 C 
ENDBRANCH   1  26
TORSDOF 2
ENDMDL
MODEL 5
REMARK VINA RESULT:      -7.3      4.286      7.223
REMARK  2 active torsions:
REMARK  status: ('A' for Active; 'I' for Inactive)
REMARK    1  A    between atoms: O1_2  and  C2_3 
REMARK    2  A    between atoms: C6_9  and  S1_10 
ROOT
HETATM    1  C2  UNL     1      21.123   6.337  49.926  1.00  0.00     0.070 C 
HETATM    2  C3  UNL     1      22.116   6.867  50.579  1.00  0.00     0.053 C 
HETATM    3  C4  UNL     1      23.381   6.356  51.083  1.00  0.00     0.120 C 
HETATM    4  N1  UNL     1      24.257   5.455  51.296  1.00  0.00    -0.254 NA
HETATM    5  C5  UNL     1      24.172   4.089  50.919  1.00  0.00     0.228 C 
HETATM    6  N2  UNL     1      23.665   3.966  52.070  1.00  0.00    -0.263 NA
HETATM    7  C6  UNL     1      23.170   2.817  52.749  1.00  0.00     0.199 C 
HETATM    8  C12 UNL     1      22.044   2.187  51.968  1.00  0.00    -0.034 C 
HETATM    9  C13 UNL     1      22.559   1.544  50.749  1.00  0.00     0.048 C 
HETATM   10  C14 UNL     1      20.752   1.940  51.868  1.00  0.00     0.090 C 
HETATM   11  N3  UNL     1      19.390   1.621  51.664  1.00  0.00    -0.394 N 
HETATM   12  C15 UNL     1      19.396   0.207  51.543  1.00  0.00     0.148 C 
HETATM   13  C16 UNL     1      18.375   2.654  51.577  1.00  0.00     0.123 C 
HETATM   14  C17 UNL     1      17.882   2.865  50.172  1.00  0.00     0.046 C 
HETATM   15  C18 UNL     1      19.128   3.323  49.372  1.00  0.00     0.169 C 
HETATM   16  O2  UNL     1      19.587   4.527  49.905  1.00  0.00    -0.385 OA
HETATM   17  C19 UNL     1      20.739   5.011  49.353  1.00  0.00     0.232 C 
ENDROOT
BRANCH   7  18
HETATM   18  S1  UNL     1      24.494   1.615  52.949  1.00  0.00    -0.142 SA
HETATM   19  C7  UNL     1      24.282   0.003  53.066  1.00  0.00     0.044 A 
HETATM   20  C8  UNL     1      25.508  -0.767  53.226  1.00  0.00     0.050 A 
HETATM   21  C9  UNL     1      26.703  -0.251  53.275  1.00  0.00     0.139 A 
HETATM   22  F1  UNL     1      27.755  -1.123  53.429  1.00  0.00    -0.204 F 
HETATM   23  C10 UNL     1      27.101   1.142  53.192  1.00  0.00     0.078 A 
HETATM   24 CL1  UNL     1      28.781   1.658  53.279  1.00  0.00    -0.081 Cl
HETATM   25  C11 UNL     1      26.232   2.144  53.041  1.00  0.00     0.068 A 
ENDBRANCH   7  18
BRANCH   1  26
HETATM   26  O1  UNL     1      20.041   7.163  49.610  1.00  0.00    -0.358 OA
HETATM   27  C1  UNL     1      20.050   8.554  49.763  1.00  0.00     0.209 C 
ENDBRANCH   1  26
TORSDOF 2
ENDMDL
MODEL 6
REMARK VINA RESULT:      -7.2      2.135      4.601
REMARK  2 active torsions:
REMARK  status: ('A' for Active; 'I' for Inactive)
REMARK    1  A    between atoms: O1_2  and  C2_3 
REMARK    2  A    between atoms: C6_9  and  S1_10 
ROOT
HETATM    1  C2  UNL     1      24.149   3.922  50.289  1.00  0.00     0.070 C 
HETATM    2  C3  UNL     1      23.334   3.953  49.275  1.00  0.00     0.053 C 
HETATM    3  C4  UNL     1      21.914   3.682  49.112  1.00  0.00     0.120 C 
HETATM    4  N1  UNL     1      20.753   3.339  49.510  1.00  0.00    -0.254 NA
HETATM    5  C5  UNL     1      20.392   2.955  50.828  1.00  0.00     0.228 C 
HETATM    6  N2  UNL     1      20.661   1.799  50.396  1.00  0.00    -0.263 NA
HETATM    7  C6  UNL     1      20.615   0.532  51.043  1.00  0.00     0.199 C 
HETATM    8  C12 UNL     1      21.534   0.515  52.239  1.00  0.00    -0.034 C 
HETATM    9  C13 UNL     1      20.992   1.357  53.316  1.00  0.00     0.048 C 
HETATM   10  C14 UNL     1      22.652   0.078  52.785  1.00  0.00     0.090 C 
HETATM   11  N3  UNL     1      23.823  -0.330  53.463  1.00  0.00    -0.394 N 
HETATM   12  C15 UNL     1      23.326  -0.919  54.656  1.00  0.00     0.148 C 
HETATM   13  C16 UNL     1      25.143  -0.069  52.921  1.00  0.00     0.123 C 
HETATM   14  C17 UNL     1      25.863   1.030  53.654  1.00  0.00     0.046 C 
HETATM   15  C18 UNL     1      24.985   2.291  53.454  1.00  0.00     0.169 C 
HETATM   16  O2  UNL     1      24.921   2.584  52.091  1.00  0.00    -0.385 OA
HETATM   17  C19 UNL     1      24.104   3.626  51.753  1.00  0.00     0.232 C 
ENDROOT
BRANCH   7  18
HETATM   18  S1  UNL     1      18.933   0.190  51.586  1.00  0.00    -0.142 SA
HETATM   19  C7  UNL     1      18.522  -0.910  52.715  1.00  0.00     0.044 A 
HETATM   20  C8  UNL     1      17.094  -1.009  52.985  1.00  0.00     0.050 A 
HETATM   21  C9  UNL     1      16.181  -0.291  52.396  1.00  0.00     0.139 A 
HETATM   22  F1  UNL     1      14.876  -0.510  52.770  1.00  0.00    -0.204 F 
HETATM   23  C10 UNL     1      16.336   0.729  51.376  1.00  0.00     0.078 A 
HETATM   24 CL1  UNL     1      14.973   1.602  50.688  1.00  0.00    -0.081 Cl
HETATM   25  C11 UNL     1      17.521   1.090  50.877  1.00  0.00     0.068 A 
ENDBRANCH   7  18
BRANCH   1  26
HETATM   26  O1  UNL     1      25.487   4.249  50.055  1.00  0.00    -0.358 OA
HETATM   27  C1  UNL     1      25.903   5.254  49.175  1.00  0.00     0.209 C 
ENDBRANCH   1  26
TORSDOF 2
ENDMDL
MODEL 7
REMARK VINA RESULT:      -7.1      4.922      7.341
REMARK  2 active torsions:
REMARK  status: ('A' for Active; 'I' for Inactive)
REMARK    1  A    between atoms: O1_2  and  C2_3 
REMARK    2  A    between atoms: C6_9  and  S1_10 
ROOT
HETATM    1  C2  UNL     1      22.784  -0.141  53.222  1.00  0.00     0.070 C 
HETATM    2  C3  UNL     1      24.083  -0.226  53.231  1.00  0.00     0.053 C 
HETATM    3  C4  UNL     1      25.160   0.731  53.032  1.00  0.00     0.120 C 
HETATM    4  N1  UNL     1      25.647   1.882  52.783  1.00  0.00    -0.254 NA
HETATM    5  C5  UNL     1      24.915   3.067  52.509  1.00  0.00     0.228 C 
HETATM    6  N2  UNL     1      25.040   2.680  51.313  1.00  0.00    -0.263 NA
HETATM    7  C6  UNL     1      24.580   3.259  50.097  1.00  0.00     0.199 C 
HETATM    8  C12 UNL     1      23.078   3.390  50.108  1.00  0.00    -0.034 C 
HETATM    9  C13 UNL     1      22.659   4.440  51.050  1.00  0.00     0.048 C 
HETATM   10  C14 UNL     1      21.915   2.974  49.645  1.00  0.00     0.090 C 
HETATM   11  N3  UNL     1      20.620   2.605  49.217  1.00  0.00    -0.394 N 
HETATM   12  C15 UNL     1      20.070   3.823  48.739  1.00  0.00     0.148 C 
HETATM   13  C16 UNL     1      20.130   1.247  49.365  1.00  0.00     0.123 C 
HETATM   14  C17 UNL     1      19.115   1.115  50.467  1.00  0.00     0.046 C 
HETATM   15  C18 UNL     1      19.870   1.516  51.761  1.00  0.00     0.169 C 
HETATM   16  O2  UNL     1      20.920   0.621  51.965  1.00  0.00    -0.385 OA
HETATM   17  C19 UNL     1      21.732   0.902  53.027  1.00  0.00     0.232 C 
ENDROOT
BRANCH   7  18
HETATM   18  S1  UNL     1      25.313   4.891  49.890  1.00  0.00    -0.142 SA
HETATM   19  C7  UNL     1      24.788   6.249  50.622  1.00  0.00     0.044 A 
HETATM   20  C8  UNL     1      25.542   7.452  50.295  1.00  0.00     0.050 A 
HETATM   21  C9  UNL     1      26.563   7.486  49.487  1.00  0.00     0.139 A 
HETATM   22  F1  UNL     1      27.163   8.708  49.289  1.00  0.00    -0.204 F 
HETATM   23  C10 UNL     1      27.179   6.402  48.745  1.00  0.00     0.078 A 
HETATM   24 CL1  UNL     1      28.567   6.639  47.690  1.00  0.00    -0.081 Cl
HETATM   25  C11 UNL     1      26.747   5.140  48.800  1.00  0.00     0.068 A 
ENDBRANCH   7  18
BRANCH   1  26
HETATM   26  O1  UNL     1      22.057  -1.310  53.455  1.00  0.00    -0.358 OA
HETATM   27  C1  UNL     1      21.312  -1.548  54.616  1.00  0.00     0.209 C 
ENDBRANCH   1  26
TORSDOF 2
ENDMDL
MODEL 8
REMARK VINA RESULT:      -7.1      8.375     11.698
REMARK  2 active torsions:
REMARK  status: ('A' for Active; 'I' for Inactive)
REMARK    1  A    between atoms: O1_2  and  C2_3 
REMARK    2  A    between atoms: C6_9  and  S1_10 
ROOT
HETATM    1  C2  UNL     1      27.150   5.224  48.954  1.00  0.00     0.070 C 
HETATM    2  C3  UNL     1      26.129   5.874  49.431  1.00  0.00     0.053 C 
HETATM    3  C4  UNL     1      25.634   7.233  49.275  1.00  0.00     0.120 C 
HETATM    4  N1  UNL     1      25.665   8.427  48.829  1.00  0.00    -0.254 NA
HETATM    5  C5  UNL     1      26.654   8.984  47.977  1.00  0.00     0.228 C 
HETATM    6  N2  UNL     1      27.192   9.307  49.073  1.00  0.00    -0.263 NA
HETATM    7  C6  UNL     1      28.404  10.002  49.344  1.00  0.00     0.199 C 
HETATM    8  C12 UNL     1      29.580   9.262  48.757  1.00  0.00    -0.034 C 
HETATM    9  C13 UNL     1      29.568   9.359  47.289  1.00  0.00     0.048 C 
HETATM   10  C14 UNL     1      30.659   8.532  48.962  1.00  0.00     0.090 C 
HETATM   11  N3  UNL     1      31.829   7.747  49.070  1.00  0.00    -0.394 N 
HETATM   12  C15 UNL     1      32.808   8.518  48.392  1.00  0.00     0.148 C 
HETATM   13  C16 UNL     1      31.815   6.450  49.720  1.00  0.00     0.123 C 
HETATM   14  C17 UNL     1      31.901   5.311  48.742  1.00  0.00     0.046 C 
HETATM   15  C18 UNL     1      30.633   5.438  47.860  1.00  0.00     0.169 C 
HETATM   16  O2  UNL     1      29.506   5.293  48.668  1.00  0.00    -0.385 OA
HETATM   17  C19 UNL     1      28.306   5.470  48.039  1.00  0.00     0.232 C 
ENDROOT
BRANCH   7  18
HETATM   18  S1  UNL     1      28.328  11.652  48.629  1.00  0.00    -0.142 SA
HETATM   19  C7  UNL     1      29.623  12.581  48.285  1.00  0.00     0.044 A 
HETATM   20  C8  UNL     1      29.309  13.883  47.712  1.00  0.00     0.050 A 
HETATM   21  C9  UNL     1      28.103  14.313  47.475  1.00  0.00     0.139 A 
HETATM   22  F1  UNL     1      27.983  15.570  46.930  1.00  0.00    -0.204 F 
HETATM   23  C10 UNL     1      26.833  13.650  47.707  1.00  0.00     0.078 A 
HETATM   24 CL1  UNL     1      25.286  14.394  47.321  1.00  0.00    -0.081 Cl
HETATM   25  C11 UNL     1      26.732  12.426  48.229  1.00  0.00     0.068 A 
ENDBRANCH   7  18
BRANCH   1  26
HETATM   26  O1  UNL     1      27.310   3.892  49.343  1.00  0.00    -0.358 OA
HETATM   27  C1  UNL     1      26.391   3.195  50.136  1.00  0.00     0.209 C 
ENDBRANCH   1  26
TORSDOF 2
ENDMDL
MODEL 9
REMARK VINA RESULT:      -7.0      3.831      6.006
REMARK  2 active torsions:
REMARK  status: ('A' for Active; 'I' for Inactive)
REMARK    1  A    between atoms: O1_2  and  C2_3 
REMARK    2  A    between atoms: C6_9  and  S1_10 
ROOT
HETATM    1  C2  UNL     1      26.276  -0.180  53.034  1.00  0.00     0.070 C 
HETATM    2  C3  UNL     1      26.920   0.365  52.043  1.00  0.00     0.053 C 
HETATM    3  C4  UNL     1      26.756   1.598  51.289  1.00  0.00     0.120 C 
HETATM    4  N1  UNL     1      26.185   2.697  50.987  1.00  0.00    -0.254 NA
HETATM    5  C5  UNL     1      25.023   3.240  51.596  1.00  0.00     0.228 C 
HETATM    6  N2  UNL     1      24.435   2.603  50.678  1.00  0.00    -0.263 NA
HETATM    7  C6  UNL     1      23.050   2.478  50.374  1.00  0.00     0.199 C 
HETATM    8  C12 UNL     1      22.305   1.880  51.541  1.00  0.00    -0.034 C 
HETATM    9  C13 UNL     1      22.224   2.843  52.649  1.00  0.00     0.048 C 
HETATM   10  C14 UNL     1      21.669   0.842  52.049  1.00  0.00     0.090 C 
HETATM   11  N3  UNL     1      20.971  -0.208  52.688  1.00  0.00    -0.394 N 
HETATM   12  C15 UNL     1      19.729   0.384  53.038  1.00  0.00     0.148 C 
HETATM   13  C16 UNL     1      21.580  -1.510  52.889  1.00  0.00     0.123 C 
HETATM   14  C17 UNL     1      21.974  -1.749  54.321  1.00  0.00     0.046 C 
HETATM   15  C18 UNL     1      23.025  -0.654  54.639  1.00  0.00     0.169 C 
HETATM   16  O2  UNL     1      24.126  -0.831  53.801  1.00  0.00    -0.385 OA
HETATM   17  C19 UNL     1      25.101   0.120  53.908  1.00  0.00     0.232 C 
ENDROOT
BRANCH   7  18
HETATM   18  S1  UNL     1      22.364   4.101  50.005  1.00  0.00    -0.142 SA
HETATM   19  C7  UNL     1      20.861   4.371  49.435  1.00  0.00     0.044 A 
HETATM   20  C8  UNL     1      20.532   5.772  49.211  1.00  0.00     0.050 A 
HETATM   21  C9  UNL     1      21.344   6.765  49.435  1.00  0.00     0.139 A 
HETATM   22  F1  UNL     1      20.874   8.030  49.170  1.00  0.00    -0.204 F 
HETATM   23  C10 UNL     1      22.706   6.738  49.935  1.00  0.00     0.078 A 
HETATM   24 CL1  UNL     1      23.661   8.196  50.177  1.00  0.00    -0.081 Cl
HETATM   25  C11 UNL     1      23.347   5.611  50.253  1.00  0.00     0.068 A 
ENDBRANCH   7  18
BRANCH   1  26
HETATM   26  O1  UNL     1      26.736  -1.412  53.505  1.00  0.00    -0.358 OA
HETATM   27  C1  UNL     1      27.371  -2.368  52.703  1.00  0.00     0.209 C 
ENDBRANCH   1  26
TORSDOF 2
ENDMDL
