MODEL 1
REMARK VINA RESULT:      -7.0      0.000      0.000
REMARK  6 active torsions:
REMARK  status: ('A' for Active; 'I' for Inactive)
REMARK    1  A    between atoms: N1_2  and  C1_3 
REMARK    2  A    between atoms: C2_4  and  C3_5 
REMARK    3  A    between atoms: C3_5  and  C4_6 
REMARK    4  A    between atoms: C6_9  and  O1_10 
REMARK    5  A    between atoms: O1_10  and  C7_11 
REMARK    6  A    between atoms: C7_11  and  C8_12 
ROOT
HETATM    1  C4  UNL     1      27.057   0.973  54.195  1.00  0.00     0.173 C 
HETATM    2  N2  UNL     1      27.693   1.728  53.158  1.00  0.00    -0.286 NA
HETATM    3  C5  UNL     1      27.169   2.297  52.134  1.00  0.00     0.147 C 
HETATM    4  C6  UNL     1      25.781   2.368  51.688  1.00  0.00     0.086 C 
HETATM    5  C12 UNL     1      24.841   1.472  52.023  1.00  0.00     0.041 C 
HETATM    6  C13 UNL     1      24.941   0.265  52.866  1.00  0.00     0.043 C 
HETATM    7  C14 UNL     1      25.925   0.146  53.766  1.00  0.00     0.118 C 
HETATM    8  F2  UNL     1      25.813  -1.048  54.424  1.00  0.00    -0.208 F 
ENDROOT
BRANCH   4   9
HETATM    9  O1  UNL     1      25.384   3.410  50.871  1.00  0.00    -0.347 OA
BRANCH   9  10
HETATM   10  C7  UNL     1      25.792   3.576  49.546  1.00  0.00     0.207 C 
BRANCH  10  11
HETATM   11  C8  UNL     1      26.790   4.690  49.370  1.00  0.00     0.145 C 
HETATM   12  C9  UNL     1      26.201   5.859  48.600  1.00  0.00     0.036 C 
HETATM   13  C10 UNL     1      27.491   6.625  48.314  1.00  0.00     0.029 C 
HETATM   14  C11 UNL     1      28.541   5.538  48.420  1.00  0.00     0.168 C 
HETATM   15  O2  UNL     1      27.843   4.332  48.535  1.00  0.00    -0.384 OA
ENDBRANCH  10  11
ENDBRANCH   9  10
ENDBRANCH   4   9
BRANCH   1  16
HETATM   16  C3  UNL     1      28.109   0.069  54.829  1.00  0.00     0.063 C 
BRANCH  16  17
HETATM   17  C2  UNL     1      29.269  -0.118  53.938  1.00  0.00    -0.005 C 
HETATM   18  C1  UNL     1      29.500  -1.237  53.274  1.00  0.00     0.115 C 
BRANCH  18  19
HETATM   19  N1  UNL     1      28.608  -2.332  53.401  1.00  0.00    -0.236 N 
HETATM   20  F1  UNL     1      27.566  -2.775  52.638  1.00  0.00    -0.102 F 
HETATM   21  H1  UNL     1      28.652  -3.020  54.201  1.00  0.00     0.198 HD
ENDBRANCH  18  19
ENDBRANCH  16  17
ENDBRANCH   1  16
TORSDOF 6
ENDMDL
MODEL 2
REMARK VINA RESULT:      -7.0      3.882      5.690
REMARK  6 active torsions:
REMARK  status: ('A' for Active; 'I' for Inactive)
REMARK    1  A    between atoms: N1_2  and  C1_3 
REMARK    2  A    between atoms: C2_4  and  C3_5 
REMARK    3  A    between atoms: C3_5  and  C4_6 
REMARK    4  A    between atoms: C6_9  and  O1_10 
REMARK    5  A    between atoms: O1_10  and  C7_11 
REMARK    6  A    between atoms: C7_11  and  C8_12 
ROOT
HETATM    1  C4  UNL     1      27.083   0.198  53.770  1.00  0.00     0.173 C 
HETATM    2  N2  UNL     1      26.148  -0.710  54.360  1.00  0.00    -0.286 NA
HETATM    3  C5  UNL     1      24.869  -0.742  54.245  1.00  0.00     0.147 C 
HETATM    4  C6  UNL     1      23.956   0.113  53.494  1.00  0.00     0.086 C 
HETATM    5  C12 UNL     1      24.238   1.374  53.134  1.00  0.00     0.041 C 
HETATM    6  C13 UNL     1      25.450   2.180  53.379  1.00  0.00     0.043 C 
HETATM    7  C14 UNL     1      26.620   1.584  53.643  1.00  0.00     0.118 C 
HETATM    8  F2  UNL     1      27.592   2.527  53.833  1.00  0.00    -0.208 F 
ENDROOT
BRANCH   4   9
HETATM    9  O1  UNL     1      22.722  -0.380  53.117  1.00  0.00    -0.347 OA
BRANCH   9  10
HETATM   10  C7  UNL     1      21.526  -0.120  53.792  1.00  0.00     0.207 C 
BRANCH  10  11
HETATM   11  C8  UNL     1      20.429   0.366  52.882  1.00  0.00     0.145 C 
HETATM   12  C9  UNL     1      19.194  -0.513  52.968  1.00  0.00     0.036 C 
HETATM   13  C10 UNL     1      18.444   0.018  51.747  1.00  0.00     0.029 C 
HETATM   14  C11 UNL     1      19.563   0.604  50.912  1.00  0.00     0.168 C 
HETATM   15  O2  UNL     1      20.756   0.226  51.537  1.00  0.00    -0.384 OA
ENDBRANCH  10  11
ENDBRANCH   9  10
ENDBRANCH   4   9
BRANCH   1  16
HETATM   16  C3  UNL     1      28.350   0.184  54.620  1.00  0.00     0.063 C 
BRANCH  16  17
HETATM   17  C2  UNL     1      29.543  -0.117  53.807  1.00  0.00    -0.005 C 
HETATM   18  C1  UNL     1      29.780  -1.305  53.280  1.00  0.00     0.115 C 
BRANCH  18  19
HETATM   19  N1  UNL     1      28.862  -2.366  53.485  1.00  0.00    -0.236 N 
HETATM   20  F1  UNL     1      27.929  -2.956  52.681  1.00  0.00    -0.102 F 
HETATM   21  H1  UNL     1      28.784  -2.890  54.397  1.00  0.00     0.198 HD
ENDBRANCH  18  19
ENDBRANCH  16  17
ENDBRANCH   1  16
TORSDOF 6
ENDMDL
MODEL 3
REMARK VINA RESULT:      -6.9      4.186      6.399
REMARK  6 active torsions:
REMARK  status: ('A' for Active; 'I' for Inactive)
REMARK    1  A    between atoms: N1_2  and  C1_3 
REMARK    2  A    between atoms: C2_4  and  C3_5 
REMARK    3  A    between atoms: C3_5  and  C4_6 
REMARK    4  A    between atoms: C6_9  and  O1_10 
REMARK    5  A    between atoms: O1_10  and  C7_11 
REMARK    6  A    between atoms: C7_11  and  C8_12 
ROOT
HETATM    1  C4  UNL     1      26.528  -0.720  52.812  1.00  0.00     0.173 C 
HETATM    2  N2  UNL     1      25.900  -1.009  54.065  1.00  0.00    -0.286 NA
HETATM    3  C5  UNL     1      24.686  -0.800  54.429  1.00  0.00     0.147 C 
HETATM    4  C6  UNL     1      23.562  -0.210  53.708  1.00  0.00     0.086 C 
HETATM    5  C12 UNL     1      23.696   0.637  52.678  1.00  0.00     0.041 C 
HETATM    6  C13 UNL     1      24.917   1.165  52.038  1.00  0.00     0.043 C 
HETATM    7  C14 UNL     1      26.081   0.512  52.154  1.00  0.00     0.118 C 
HETATM    8  F2  UNL     1      27.063   1.187  51.482  1.00  0.00    -0.208 F 
ENDROOT
BRANCH   4   9
HETATM    9  O1  UNL     1      22.272  -0.526  54.090  1.00  0.00    -0.347 OA
BRANCH   9  10
HETATM   10  C7  UNL     1      21.172   0.319  53.935  1.00  0.00     0.207 C 
BRANCH  10  11
HETATM   11  C8  UNL     1      20.149  -0.214  52.967  1.00  0.00     0.145 C 
HETATM   12  C9  UNL     1      19.595   0.880  52.072  1.00  0.00     0.036 C 
HETATM   13  C10 UNL     1      18.409   0.119  51.480  1.00  0.00     0.029 C 
HETATM   14  C11 UNL     1      18.164  -0.955  52.519  1.00  0.00     0.168 C 
HETATM   15  O2  UNL     1      18.989  -0.643  53.605  1.00  0.00    -0.384 OA
ENDBRANCH  10  11
ENDBRANCH   9  10
ENDBRANCH   4   9
BRANCH   1  16
HETATM   16  C3  UNL     1      28.032  -0.625  53.052  1.00  0.00     0.063 C 
BRANCH  16  17
HETATM   17  C2  UNL     1      28.333  -0.228  54.440  1.00  0.00    -0.005 C 
HETATM   18  C1  UNL     1      28.938   0.904  54.756  1.00  0.00     0.115 C 
BRANCH  18  19
HETATM   19  N1  UNL     1      29.330   1.805  53.734  1.00  0.00    -0.236 N 
HETATM   20  F1  UNL     1      28.846   3.014  53.326  1.00  0.00    -0.102 F 
HETATM   21  H1  UNL     1      30.146   1.624  53.089  1.00  0.00     0.198 HD
ENDBRANCH  18  19
ENDBRANCH  16  17
ENDBRANCH   1  16
TORSDOF 6
ENDMDL
MODEL 4
REMARK VINA RESULT:      -6.7      4.567      7.054
REMARK  6 active torsions:
REMARK  status: ('A' for Active; 'I' for Inactive)
REMARK    1  A    between atoms: N1_2  and  C1_3 
REMARK    2  A    between atoms: C2_4  and  C3_5 
REMARK    3  A    between atoms: C3_5  and  C4_6 
REMARK    4  A    between atoms: C6_9  and  O1_10 
REMARK    5  A    between atoms: O1_10  and  C7_11 
REMARK    6  A    between atoms: C7_11  and  C8_12 
ROOT
HETATM    1  C4  UNL     1      21.516   0.183  52.983  1.00  0.00     0.173 C 
HETATM    2  N2  UNL     1      22.311   1.337  52.689  1.00  0.00    -0.286 NA
HETATM    3  C5  UNL     1      23.585   1.482  52.763  1.00  0.00     0.147 C 
HETATM    4  C6  UNL     1      24.630   0.545  53.163  1.00  0.00     0.086 C 
HETATM    5  C12 UNL     1      24.422  -0.513  53.960  1.00  0.00     0.041 C 
HETATM    6  C13 UNL     1      23.179  -0.986  54.601  1.00  0.00     0.043 C 
HETATM    7  C14 UNL     1      21.985  -0.632  54.108  1.00  0.00     0.118 C 
HETATM    8  F2  UNL     1      20.987  -1.187  54.863  1.00  0.00    -0.208 F 
ENDROOT
BRANCH   4   9
HETATM    9  O1  UNL     1      25.921   0.736  52.708  1.00  0.00    -0.347 OA
BRANCH   9  10
HETATM   10  C7  UNL     1      26.995   1.121  53.513  1.00  0.00     0.207 C 
BRANCH  10  11
HETATM   11  C8  UNL     1      27.948  -0.009  53.805  1.00  0.00     0.145 C 
HETATM   12  C9  UNL     1      29.394   0.453  53.783  1.00  0.00     0.036 C 
HETATM   13  C10 UNL     1      30.076  -0.915  53.775  1.00  0.00     0.029 C 
HETATM   14  C11 UNL     1      28.992  -1.811  53.214  1.00  0.00     0.168 C 
HETATM   15  O2  UNL     1      27.963  -0.963  52.792  1.00  0.00    -0.384 OA
ENDBRANCH  10  11
ENDBRANCH   9  10
ENDBRANCH   4   9
BRANCH   1  16
HETATM   16  C3  UNL     1      20.097   0.656  53.283  1.00  0.00     0.063 C 
BRANCH  16  17
HETATM   17  C2  UNL     1      19.161   0.271  52.210  1.00  0.00    -0.005 C 
HETATM   18  C1  UNL     1      18.223  -0.647  52.362  1.00  0.00     0.115 C 
BRANCH  18  19
HETATM   19  N1  UNL     1      18.080  -1.315  53.604  1.00  0.00    -0.236 N 
HETATM   20  F1  UNL     1      18.502  -2.531  54.058  1.00  0.00    -0.102 F 
HETATM   21  H1  UNL     1      17.568  -0.897  54.427  1.00  0.00     0.198 HD
ENDBRANCH  18  19
ENDBRANCH  16  17
ENDBRANCH   1  16
TORSDOF 6
ENDMDL
MODEL 5
REMARK VINA RESULT:      -6.6      3.935      6.835
REMARK  6 active torsions:
REMARK  status: ('A' for Active; 'I' for Inactive)
REMARK    1  A    between atoms: N1_2  and  C1_3 
REMARK    2  A    between atoms: C2_4  and  C3_5 
REMARK    3  A    between atoms: C3_5  and  C4_6 
REMARK    4  A    between atoms: C6_9  and  O1_10 
REMARK    5  A    between atoms: O1_10  and  C7_11 
REMARK    6  A    between atoms: C7_11  and  C8_12 
ROOT
HETATM    1  C4  UNL     1      25.355   3.386  50.252  1.00  0.00     0.173 C 
HETATM    2  N2  UNL     1      26.536   2.760  50.763  1.00  0.00    -0.286 NA
HETATM    3  C5  UNL     1      26.683   2.054  51.826  1.00  0.00     0.147 C 
HETATM    4  C6  UNL     1      25.721   1.660  52.851  1.00  0.00     0.086 C 
HETATM    5  C12 UNL     1      24.592   2.334  53.115  1.00  0.00     0.041 C 
HETATM    6  C13 UNL     1      24.053   3.559  52.494  1.00  0.00     0.043 C 
HETATM    7  C14 UNL     1      24.441   3.925  51.265  1.00  0.00     0.118 C 
HETATM    8  F2  UNL     1      23.812   5.084  50.903  1.00  0.00    -0.208 F 
ENDROOT
BRANCH   4   9
HETATM    9  O1  UNL     1      25.963   0.531  53.608  1.00  0.00    -0.347 OA
BRANCH   9  10
HETATM   10  C7  UNL     1      26.781   0.497  54.740  1.00  0.00     0.207 C 
BRANCH  10  11
HETATM   11  C8  UNL     1      28.063  -0.262  54.520  1.00  0.00     0.145 C 
HETATM   12  C9  UNL     1      29.161   0.632  53.972  1.00  0.00     0.036 C 
HETATM   13  C10 UNL     1      30.160  -0.449  53.562  1.00  0.00     0.029 C 
HETATM   14  C11 UNL     1      29.269  -1.662  53.391  1.00  0.00     0.168 C 
HETATM   15  O2  UNL     1      27.954  -1.198  53.496  1.00  0.00    -0.384 OA
ENDBRANCH  10  11
ENDBRANCH   9  10
ENDBRANCH   4   9
BRANCH   1  16
HETATM   16  C3  UNL     1      25.787   4.523  49.332  1.00  0.00     0.063 C 
BRANCH  16  17
HETATM   17  C2  UNL     1      27.216   4.421  48.982  1.00  0.00    -0.005 C 
HETATM   18  C1  UNL     1      27.904   5.414  48.448  1.00  0.00     0.115 C 
BRANCH  18  19
HETATM   19  N1  UNL     1      27.269   6.655  48.185  1.00  0.00    -0.236 N 
HETATM   20  F1  UNL     1      27.333   7.528  47.138  1.00  0.00    -0.102 F 
HETATM   21  H1  UNL     1      26.586   7.104  48.854  1.00  0.00     0.198 HD
ENDBRANCH  18  19
ENDBRANCH  16  17
ENDBRANCH   1  16
TORSDOF 6
ENDMDL
MODEL 6
REMARK VINA RESULT:      -6.5      1.888      2.396
REMARK  6 active torsions:
REMARK  status: ('A' for Active; 'I' for Inactive)
REMARK    1  A    between atoms: N1_2  and  C1_3 
REMARK    2  A    between atoms: C2_4  and  C3_5 
REMARK    3  A    between atoms: C3_5  and  C4_6 
REMARK    4  A    between atoms: C6_9  and  O1_10 
REMARK    5  A    between atoms: O1_10  and  C7_11 
REMARK    6  A    between atoms: C7_11  and  C8_12 
ROOT
HETATM    1  C4  UNL     1      26.503   1.141  52.714  1.00  0.00     0.173 C 
HETATM    2  N2  UNL     1      27.116   1.968  51.720  1.00  0.00    -0.286 NA
HETATM    3  C5  UNL     1      26.592   2.897  51.004  1.00  0.00     0.147 C 
HETATM    4  C6  UNL     1      25.227   3.412  50.961  1.00  0.00     0.086 C 
HETATM    5  C12 UNL     1      24.150   2.711  51.343  1.00  0.00     0.041 C 
HETATM    6  C13 UNL     1      24.054   1.336  51.871  1.00  0.00     0.043 C 
HETATM    7  C14 UNL     1      25.117   0.751  52.439  1.00  0.00     0.118 C 
HETATM    8  F2  UNL     1      24.790  -0.512  52.849  1.00  0.00    -0.208 F 
ENDROOT
BRANCH   4   9
HETATM    9  O1  UNL     1      25.003   4.696  50.503  1.00  0.00    -0.347 OA
BRANCH   9  10
HETATM   10  C7  UNL     1      24.872   5.045  49.156  1.00  0.00     0.207 C 
BRANCH  10  11
HETATM   11  C8  UNL     1      25.847   6.108  48.725  1.00  0.00     0.145 C 
HETATM   12  C9  UNL     1      27.244   5.547  48.526  1.00  0.00     0.036 C 
HETATM   13  C10 UNL     1      28.014   6.863  48.433  1.00  0.00     0.029 C 
HETATM   14  C11 UNL     1      27.095   7.826  49.153  1.00  0.00     0.168 C 
HETATM   15  O2  UNL     1      26.084   7.046  49.725  1.00  0.00    -0.384 OA
ENDBRANCH  10  11
ENDBRANCH   9  10
ENDBRANCH   4   9
BRANCH   1  16
HETATM   16  C3  UNL     1      27.346  -0.123  52.856  1.00  0.00     0.063 C 
BRANCH  16  17
HETATM   17  C2  UNL     1      27.912  -0.246  54.212  1.00  0.00    -0.005 C 
HETATM   18  C1  UNL     1      28.874   0.536  54.669  1.00  0.00     0.115 C 
BRANCH  18  19
HETATM   19  N1  UNL     1      29.411   1.556  53.843  1.00  0.00    -0.236 N 
HETATM   20  F1  UNL     1      29.224   2.907  53.795  1.00  0.00    -0.102 F 
HETATM   21  H1  UNL     1      30.104   1.364  53.070  1.00  0.00     0.198 HD
ENDBRANCH  18  19
ENDBRANCH  16  17
ENDBRANCH   1  16
TORSDOF 6
ENDMDL
MODEL 7
REMARK VINA RESULT:      -6.5      2.029      3.191
REMARK  6 active torsions:
REMARK  status: ('A' for Active; 'I' for Inactive)
REMARK    1  A    between atoms: N1_2  and  C1_3 
REMARK    2  A    between atoms: C2_4  and  C3_5 
REMARK    3  A    between atoms: C3_5  and  C4_6 
REMARK    4  A    between atoms: C6_9  and  O1_10 
REMARK    5  A    between atoms: O1_10  and  C7_11 
REMARK    6  A    between atoms: C7_11  and  C8_12 
ROOT
HETATM    1  C4  UNL     1      26.948   0.938  54.108  1.00  0.00     0.173 C 
HETATM    2  N2  UNL     1      27.504   1.536  52.933  1.00  0.00    -0.286 NA
HETATM    3  C5  UNL     1      26.903   1.977  51.887  1.00  0.00     0.147 C 
HETATM    4  C6  UNL     1      25.484   2.019  51.549  1.00  0.00     0.086 C 
HETATM    5  C12 UNL     1      24.565   1.195  52.074  1.00  0.00     0.041 C 
HETATM    6  C13 UNL     1      24.721   0.107  53.059  1.00  0.00     0.043 C 
HETATM    7  C14 UNL     1      25.775   0.086  53.885  1.00  0.00     0.118 C 
HETATM    8  F2  UNL     1      25.705  -1.009  54.702  1.00  0.00    -0.208 F 
ENDROOT
BRANCH   4   9
HETATM    9  O1  UNL     1      25.032   2.953  50.636  1.00  0.00    -0.347 OA
BRANCH   9  10
HETATM   10  C7  UNL     1      24.612   4.243  50.966  1.00  0.00     0.207 C 
BRANCH  10  11
HETATM   11  C8  UNL     1      23.121   4.423  50.861  1.00  0.00     0.145 C 
HETATM   12  C9  UNL     1      22.431   4.213  52.197  1.00  0.00     0.036 C 
HETATM   13  C10 UNL     1      20.987   4.132  51.705  1.00  0.00     0.029 C 
HETATM   14  C11 UNL     1      21.162   3.722  50.259  1.00  0.00     0.168 C 
HETATM   15  O2  UNL     1      22.520   3.426  50.098  1.00  0.00    -0.384 OA
ENDBRANCH  10  11
ENDBRANCH   9  10
ENDBRANCH   4   9
BRANCH   1  16
HETATM   16  C3  UNL     1      28.038   0.102  54.770  1.00  0.00     0.063 C 
BRANCH  16  17
HETATM   17  C2  UNL     1      29.194  -0.085  53.874  1.00  0.00    -0.005 C 
HETATM   18  C1  UNL     1      29.450  -1.220  53.248  1.00  0.00     0.115 C 
BRANCH  18  19
HETATM   19  N1  UNL     1      28.590  -2.334  53.424  1.00  0.00    -0.236 N 
HETATM   20  F1  UNL     1      27.477  -2.762  52.760  1.00  0.00    -0.102 F 
HETATM   21  H1  UNL     1      28.729  -3.054  54.184  1.00  0.00     0.198 HD
ENDBRANCH  18  19
ENDBRANCH  16  17
ENDBRANCH   1  16
TORSDOF 6
ENDMDL
MODEL 8
REMARK VINA RESULT:      -6.3      1.390      1.791
REMARK  6 active torsions:
REMARK  status: ('A' for Active; 'I' for Inactive)
REMARK    1  A    between atoms: N1_2  and  C1_3 
REMARK    2  A    between atoms: C2_4  and  C3_5 
REMARK    3  A    between atoms: C3_5  and  C4_6 
REMARK    4  A    between atoms: C6_9  and  O1_10 
REMARK    5  A    between atoms: O1_10  and  C7_11 
REMARK    6  A    between atoms: C7_11  and  C8_12 
ROOT
HETATM    1  C4  UNL     1      26.827   0.991  54.085  1.00  0.00     0.173 C 
HETATM    2  N2  UNL     1      27.464   1.611  52.963  1.00  0.00    -0.286 NA
HETATM    3  C5  UNL     1      26.934   2.093  51.897  1.00  0.00     0.147 C 
HETATM    4  C6  UNL     1      25.539   2.171  51.475  1.00  0.00     0.086 C 
HETATM    5  C12 UNL     1      24.577   1.350  51.920  1.00  0.00     0.041 C 
HETATM    6  C13 UNL     1      24.654   0.232  52.880  1.00  0.00     0.043 C 
HETATM    7  C14 UNL     1      25.656   0.168  53.767  1.00  0.00     0.118 C 
HETATM    8  F2  UNL     1      25.518  -0.948  54.546  1.00  0.00    -0.208 F 
ENDROOT
BRANCH   4   9
HETATM    9  O1  UNL     1      25.160   3.138  50.564  1.00  0.00    -0.347 OA
BRANCH   9  10
HETATM   10  C7  UNL     1      26.026   4.080  50.003  1.00  0.00     0.207 C 
BRANCH  10  11
HETATM   11  C8  UNL     1      25.431   5.461  49.936  1.00  0.00     0.145 C 
HETATM   12  C9  UNL     1      24.253   5.616  50.880  1.00  0.00     0.036 C 
HETATM   13  C10 UNL     1      23.699   6.937  50.350  1.00  0.00     0.029 C 
HETATM   14  C11 UNL     1      24.240   6.968  48.936  1.00  0.00     0.168 C 
HETATM   15  O2  UNL     1      24.819   5.715  48.712  1.00  0.00    -0.384 OA
ENDBRANCH  10  11
ENDBRANCH   9  10
ENDBRANCH   4   9
BRANCH   1  16
HETATM   16  C3  UNL     1      27.861   0.117  54.787  1.00  0.00     0.063 C 
BRANCH  16  17
HETATM   17  C2  UNL     1      29.075  -0.050  53.966  1.00  0.00    -0.005 C 
HETATM   18  C1  UNL     1      29.362  -1.163  53.313  1.00  0.00     0.115 C 
BRANCH  18  19
HETATM   19  N1  UNL     1      28.481  -2.272  53.384  1.00  0.00    -0.236 N 
HETATM   20  F1  UNL     1      27.328  -2.585  52.725  1.00  0.00    -0.102 F 
HETATM   21  H1  UNL     1      28.634  -3.087  54.037  1.00  0.00     0.198 HD
ENDBRANCH  18  19
ENDBRANCH  16  17
ENDBRANCH   1  16
TORSDOF 6
ENDMDL
MODEL 9
REMARK VINA RESULT:      -6.1      3.000      3.729
REMARK  6 active torsions:
REMARK  status: ('A' for Active; 'I' for Inactive)
REMARK    1  A    between atoms: N1_2  and  C1_3 
REMARK    2  A    between atoms: C2_4  and  C3_5 
REMARK    3  A    between atoms: C3_5  and  C4_6 
REMARK    4  A    between atoms: C6_9  and  O1_10 
REMARK    5  A    between atoms: O1_10  and  C7_11 
REMARK    6  A    between atoms: C7_11  and  C8_12 
ROOT
HETATM    1  C4  UNL     1      25.950   0.965  53.250  1.00  0.00     0.173 C 
HETATM    2  N2  UNL     1      25.981   2.058  52.327  1.00  0.00    -0.286 NA
HETATM    3  C5  UNL     1      25.013   2.792  51.909  1.00  0.00     0.147 C 
HETATM    4  C6  UNL     1      23.589   2.763  52.225  1.00  0.00     0.086 C 
HETATM    5  C12 UNL     1      22.943   1.676  52.670  1.00  0.00     0.041 C 
HETATM    6  C13 UNL     1      23.453   0.318  52.944  1.00  0.00     0.043 C 
HETATM    7  C14 UNL     1      24.756   0.117  53.180  1.00  0.00     0.118 C 
HETATM    8  F2  UNL     1      24.988  -1.212  53.405  1.00  0.00    -0.208 F 
ENDROOT
BRANCH   4   9
HETATM    9  O1  UNL     1      22.836   3.911  52.063  1.00  0.00    -0.347 OA
BRANCH   9  10
HETATM   10  C7  UNL     1      23.343   5.209  52.157  1.00  0.00     0.207 C 
BRANCH  10  11
HETATM   11  C8  UNL     1      22.924   6.090  51.009  1.00  0.00     0.145 C 
HETATM   12  C9  UNL     1      23.791   7.332  50.906  1.00  0.00     0.036 C 
HETATM   13  C10 UNL     1      22.940   8.130  49.919  1.00  0.00     0.029 C 
HETATM   14  C11 UNL     1      21.568   7.518  50.110  1.00  0.00     0.168 C 
HETATM   15  O2  UNL     1      21.672   6.662  51.211  1.00  0.00    -0.384 OA
ENDBRANCH  10  11
ENDBRANCH   9  10
ENDBRANCH   4   9
BRANCH   1  16
HETATM   16  C3  UNL     1      27.178   0.098  52.992  1.00  0.00     0.063 C 
BRANCH  16  17
HETATM   17  C2  UNL     1      27.965  -0.105  54.222  1.00  0.00    -0.005 C 
HETATM   18  C1  UNL     1      28.996   0.652  54.557  1.00  0.00     0.115 C 
BRANCH  18  19
HETATM   19  N1  UNL     1      29.392   1.721  53.715  1.00  0.00    -0.236 N 
HETATM   20  F1  UNL     1      28.893   2.975  53.508  1.00  0.00    -0.102 F 
HETATM   21  H1  UNL     1      30.223   1.666  53.067  1.00  0.00     0.198 HD
ENDBRANCH  18  19
ENDBRANCH  16  17
ENDBRANCH   1  16
TORSDOF 6
ENDMDL
