MODEL 1
REMARK VINA RESULT:      -7.8      0.000      0.000
REMARK  7 active torsions:
REMARK  status: ('A' for Active; 'I' for Inactive)
REMARK    1  A    between atoms: C2_2  and  C3_3 
REMARK    2  A    between atoms: C3_3  and  C4_4 
REMARK    3  A    between atoms: C5_6  and  C6_7 
REMARK    4  A    between atoms: C6_7  and  N1_8 
REMARK    5  A    between atoms: N1_8  and  C7_9 
REMARK    6  A    between atoms: C12_17  and  C13_18 
REMARK    7  A    between atoms: C13_18  and  O1_20 
ROOT
HETATM    1  C7  UNL     1      27.317   1.803  53.223  1.00  0.00     0.156 A 
HETATM    2  N2  UNL     1      28.545   1.462  53.617  1.00  0.00    -0.222 NA
HETATM    3  C8  UNL     1      28.809   0.462  54.465  1.00  0.00     0.238 A 
HETATM    4  N3  UNL     1      27.814  -0.280  54.984  1.00  0.00    -0.215 NA
HETATM    5  C9  UNL     1      26.518  -0.013  54.645  1.00  0.00     0.201 A 
HETATM    6  C10 UNL     1      26.317   1.046  53.754  1.00  0.00     0.128 A 
HETATM    7  N4  UNL     1      25.063   1.480  53.293  1.00  0.00    -0.379 N 
HETATM    8  C11 UNL     1      23.790   0.841  53.062  1.00  0.00     0.159 C 
HETATM    9  C12 UNL     1      23.562  -0.381  53.840  1.00  0.00    -0.012 C 
HETATM   10  C16 UNL     1      24.266  -1.073  54.720  1.00  0.00     0.151 C 
HETATM   11  O2  UNL     1      25.559  -0.844  55.238  1.00  0.00    -0.302 OA
HETATM   12  H9  UNL     1      25.072   2.521  53.069  1.00  0.00     0.160 HD
ENDROOT
BRANCH   1  13
HETATM   13  N1  UNL     1      27.139   2.871  52.308  1.00  0.00    -0.369 N 
HETATM   14  H7  UNL     1      27.220   3.902  52.369  1.00  0.00     0.161 HD
BRANCH  13  15
HETATM   15  C6  UNL     1      26.741   2.516  50.938  1.00  0.00     0.150 C 
BRANCH  15  16
HETATM   16  C5  UNL     1      25.724   3.505  50.520  1.00  0.00     0.012 C 
HETATM   17  C4  UNL     1      26.005   4.356  49.570  1.00  0.00     0.015 C 
HETATM   18 BR1  UNL     1      24.878   5.711  48.860  1.00  0.00    -0.051 Br
BRANCH  17  19
HETATM   19  C3  UNL     1      27.284   4.382  48.893  1.00  0.00     0.069 C 
BRANCH  19  20
HETATM   20  C2  UNL     1      27.800   5.526  48.527  1.00  0.00    -0.154 C 
HETATM   21  C1  UNL     1      28.437   6.549  47.978  1.00  0.00     0.096 C 
ENDBRANCH  19  20
ENDBRANCH  17  19
ENDBRANCH  15  16
ENDBRANCH  13  15
ENDBRANCH   1  13
BRANCH   9  22
HETATM   22  C13 UNL     1      22.208  -0.839  53.453  1.00  0.00     0.149 C 
HETATM   23  C14 UNL     1      21.486  -1.545  54.573  1.00  0.00     0.044 C 
BRANCH  22  24
HETATM   24  O1  UNL     1      21.433   0.124  52.840  1.00  0.00    -0.387 OA
HETATM   25  C15 UNL     1      20.096   0.084  53.130  1.00  0.00     0.202 C 
ENDBRANCH  22  24
ENDBRANCH   9  22
TORSDOF 7
ENDMDL
MODEL 2
REMARK VINA RESULT:      -7.6      1.300      2.130
REMARK  7 active torsions:
REMARK  status: ('A' for Active; 'I' for Inactive)
REMARK    1  A    between atoms: C2_2  and  C3_3 
REMARK    2  A    between atoms: C3_3  and  C4_4 
REMARK    3  A    between atoms: C5_6  and  C6_7 
REMARK    4  A    between atoms: C6_7  and  N1_8 
REMARK    5  A    between atoms: N1_8  and  C7_9 
REMARK    6  A    between atoms: C12_17  and  C13_18 
REMARK    7  A    between atoms: C13_18  and  O1_20 
ROOT
HETATM    1  C7  UNL     1      27.271   1.935  52.785  1.00  0.00     0.156 A 
HETATM    2  N2  UNL     1      28.535   1.605  53.056  1.00  0.00    -0.222 NA
HETATM    3  C8  UNL     1      28.890   0.611  53.877  1.00  0.00     0.238 A 
HETATM    4  N3  UNL     1      27.957  -0.138  54.494  1.00  0.00    -0.215 NA
HETATM    5  C9  UNL     1      26.632   0.118  54.284  1.00  0.00     0.201 A 
HETATM    6  C10 UNL     1      26.334   1.172  53.414  1.00  0.00     0.128 A 
HETATM    7  N4  UNL     1      25.038   1.594  53.079  1.00  0.00    -0.379 N 
HETATM    8  C11 UNL     1      23.753   0.944  52.977  1.00  0.00     0.159 C 
HETATM    9  C12 UNL     1      23.614  -0.277  53.777  1.00  0.00    -0.012 C 
HETATM   10  C16 UNL     1      24.407  -0.960  54.586  1.00  0.00     0.151 C 
HETATM   11  O2  UNL     1      25.743  -0.718  54.972  1.00  0.00    -0.302 OA
HETATM   12  H9  UNL     1      25.015   2.634  52.852  1.00  0.00     0.160 HD
ENDROOT
BRANCH   1  13
HETATM   13  N1  UNL     1      26.994   2.998  51.888  1.00  0.00    -0.369 N 
HETATM   14  H7  UNL     1      27.011   4.031  51.959  1.00  0.00     0.161 HD
BRANCH  13  15
HETATM   15  C6  UNL     1      26.572   2.631  50.529  1.00  0.00     0.150 C 
BRANCH  15  16
HETATM   16  C5  UNL     1      26.156   3.882  49.859  1.00  0.00     0.012 C 
HETATM   17  C4  UNL     1      24.900   4.061  49.550  1.00  0.00     0.015 C 
HETATM   18 BR1  UNL     1      24.121   5.569  48.694  1.00  0.00    -0.051 Br
BRANCH  17  19
HETATM   19  C3  UNL     1      23.874   3.079  49.835  1.00  0.00     0.069 C 
BRANCH  19  20
HETATM   20  C2  UNL     1      23.084   2.672  48.877  1.00  0.00    -0.154 C 
HETATM   21  C1  UNL     1      22.496   2.189  47.792  1.00  0.00     0.096 C 
ENDBRANCH  19  20
ENDBRANCH  17  19
ENDBRANCH  15  16
ENDBRANCH  13  15
ENDBRANCH   1  13
BRANCH   9  22
HETATM   22  C13 UNL     1      22.232  -0.749  53.527  1.00  0.00     0.149 C 
HETATM   23  C14 UNL     1      21.747  -1.721  54.573  1.00  0.00     0.044 C 
BRANCH  22  24
HETATM   24  O1  UNL     1      21.324   0.258  53.272  1.00  0.00    -0.387 OA
HETATM   25  C15 UNL     1      20.010  -0.122  53.237  1.00  0.00     0.202 C 
ENDBRANCH  22  24
ENDBRANCH   9  22
TORSDOF 7
ENDMDL
MODEL 3
REMARK VINA RESULT:      -7.2      2.661      4.891
REMARK  7 active torsions:
REMARK  status: ('A' for Active; 'I' for Inactive)
REMARK    1  A    between atoms: C2_2  and  C3_3 
REMARK    2  A    between atoms: C3_3  and  C4_4 
REMARK    3  A    between atoms: C5_6  and  C6_7 
REMARK    4  A    between atoms: C6_7  and  N1_8 
REMARK    5  A    between atoms: N1_8  and  C7_9 
REMARK    6  A    between atoms: C12_17  and  C13_18 
REMARK    7  A    between atoms: C13_18  and  O1_20 
ROOT
HETATM    1  C7  UNL     1      23.118   4.423  52.180  1.00  0.00     0.156 A 
HETATM    2  N2  UNL     1      21.798   4.600  52.115  1.00  0.00    -0.222 NA
HETATM    3  C8  UNL     1      20.903   3.611  52.224  1.00  0.00     0.238 A 
HETATM    4  N3  UNL     1      21.303   2.340  52.413  1.00  0.00    -0.215 NA
HETATM    5  C9  UNL     1      22.635   2.051  52.494  1.00  0.00     0.201 A 
HETATM    6  C10 UNL     1      23.513   3.133  52.371  1.00  0.00     0.128 A 
HETATM    7  N4  UNL     1      24.913   3.040  52.418  1.00  0.00    -0.379 N 
HETATM    8  C11 UNL     1      25.850   2.156  53.067  1.00  0.00     0.159 C 
HETATM    9  C12 UNL     1      25.321   0.829  53.397  1.00  0.00    -0.012 C 
HETATM   10  C16 UNL     1      24.152   0.227  53.252  1.00  0.00     0.151 C 
HETATM   11  O2  UNL     1      22.945   0.700  52.693  1.00  0.00    -0.302 OA
HETATM   12  H9  UNL     1      25.372   3.804  51.834  1.00  0.00     0.160 HD
ENDROOT
BRANCH   1  13
HETATM   13  N1  UNL     1      23.988   5.537  52.068  1.00  0.00    -0.369 N 
HETATM   14  H7  UNL     1      24.708   5.961  52.679  1.00  0.00     0.161 HD
BRANCH  13  15
HETATM   15  C6  UNL     1      23.903   6.327  50.832  1.00  0.00     0.150 C 
BRANCH  15  16
HETATM   16  C5  UNL     1      24.929   7.388  50.931  1.00  0.00     0.012 C 
HETATM   17  C4  UNL     1      25.797   7.537  49.967  1.00  0.00     0.015 C 
HETATM   18 BR1  UNL     1      27.200   8.814  49.861  1.00  0.00    -0.051 Br
BRANCH  17  19
HETATM   19  C3  UNL     1      25.806   6.702  48.784  1.00  0.00     0.069 C 
BRANCH  19  20
HETATM   20  C2  UNL     1      26.744   5.804  48.633  1.00  0.00    -0.154 C 
HETATM   21  C1  UNL     1      27.847   5.074  48.566  1.00  0.00     0.096 C 
ENDBRANCH  19  20
ENDBRANCH  17  19
ENDBRANCH  15  16
ENDBRANCH  13  15
ENDBRANCH   1  13
BRANCH   9  22
HETATM   22  C13 UNL     1      26.449   0.107  54.029  1.00  0.00     0.149 C 
HETATM   23  C14 UNL     1      27.168  -0.810  53.072  1.00  0.00     0.044 C 
BRANCH  22  24
HETATM   24  O1  UNL     1      27.310   0.912  54.747  1.00  0.00    -0.387 OA
HETATM   25  C15 UNL     1      28.613   0.498  54.790  1.00  0.00     0.202 C 
ENDBRANCH  22  24
ENDBRANCH   9  22
TORSDOF 7
ENDMDL
MODEL 4
REMARK VINA RESULT:      -7.1      2.863      5.186
REMARK  7 active torsions:
REMARK  status: ('A' for Active; 'I' for Inactive)
REMARK    1  A    between atoms: C2_2  and  C3_3 
REMARK    2  A    between atoms: C3_3  and  C4_4 
REMARK    3  A    between atoms: C5_6  and  C6_7 
REMARK    4  A    between atoms: C6_7  and  N1_8 
REMARK    5  A    between atoms: N1_8  and  C7_9 
REMARK    6  A    between atoms: C12_17  and  C13_18 
REMARK    7  A    between atoms: C13_18  and  O1_20 
ROOT
HETATM    1  C7  UNL     1      25.216   4.690  50.195  1.00  0.00     0.156 A 
HETATM    2  N2  UNL     1      24.034   5.169  49.804  1.00  0.00    -0.222 NA
HETATM    3  C8  UNL     1      22.880   4.501  49.918  1.00  0.00     0.238 A 
HETATM    4  N3  UNL     1      22.850   3.268  50.454  1.00  0.00    -0.215 NA
HETATM    5  C9  UNL     1      24.007   2.685  50.886  1.00  0.00     0.201 A 
HETATM    6  C10 UNL     1      25.175   3.440  50.735  1.00  0.00     0.128 A 
HETATM    7  N4  UNL     1      26.459   3.015  51.109  1.00  0.00    -0.379 N 
HETATM    8  C11 UNL     1      26.981   2.127  52.120  1.00  0.00     0.159 C 
HETATM    9  C12 UNL     1      26.037   1.111  52.596  1.00  0.00    -0.012 C 
HETATM   10  C16 UNL     1      24.778   0.805  52.327  1.00  0.00     0.151 C 
HETATM   11  O2  UNL     1      23.866   1.401  51.428  1.00  0.00    -0.302 OA
HETATM   12  H9  UNL     1      27.208   3.456  50.494  1.00  0.00     0.160 HD
ENDROOT
BRANCH   1  13
HETATM   13  N1  UNL     1      26.383   5.480  50.046  1.00  0.00    -0.369 N 
HETATM   14  H7  UNL     1      27.048   5.926  50.704  1.00  0.00     0.161 HD
BRANCH  13  15
HETATM   15  C6  UNL     1      26.811   5.786  48.674  1.00  0.00     0.150 C 
BRANCH  15  16
HETATM   16  C5  UNL     1      28.135   5.155  48.488  1.00  0.00     0.012 C 
HETATM   17  C4  UNL     1      29.155   5.889  48.132  1.00  0.00     0.015 C 
HETATM   18 BR1  UNL     1      30.943   5.319  47.833  1.00  0.00    -0.051 Br
BRANCH  17  19
HETATM   19  C3  UNL     1      29.054   7.316  47.907  1.00  0.00     0.069 C 
BRANCH  19  20
HETATM   20  C2  UNL     1      29.919   8.122  48.465  1.00  0.00    -0.154 C 
HETATM   21  C1  UNL     1      30.629   8.946  49.220  1.00  0.00     0.096 C 
ENDBRANCH  19  20
ENDBRANCH  17  19
ENDBRANCH  15  16
ENDBRANCH  13  15
ENDBRANCH   1  13
BRANCH   9  22
HETATM   22  C13 UNL     1      26.788   0.322  53.599  1.00  0.00     0.149 C 
HETATM   23  C14 UNL     1      27.501  -0.864  52.999  1.00  0.00     0.044 C 
BRANCH  22  24
HETATM   24  O1  UNL     1      27.602   1.074  54.422  1.00  0.00    -0.387 OA
HETATM   25  C15 UNL     1      28.773   0.479  54.804  1.00  0.00     0.202 C 
ENDBRANCH  22  24
ENDBRANCH   9  22
TORSDOF 7
ENDMDL
MODEL 5
REMARK VINA RESULT:      -7.1      3.476      6.828
REMARK  7 active torsions:
REMARK  status: ('A' for Active; 'I' for Inactive)
REMARK    1  A    between atoms: C2_2  and  C3_3 
REMARK    2  A    between atoms: C3_3  and  C4_4 
REMARK    3  A    between atoms: C5_6  and  C6_7 
REMARK    4  A    between atoms: C6_7  and  N1_8 
REMARK    5  A    between atoms: N1_8  and  C7_9 
REMARK    6  A    between atoms: C12_17  and  C13_18 
REMARK    7  A    between atoms: C13_18  and  O1_20 
ROOT
HETATM    1  C7  UNL     1      23.374   2.074  50.764  1.00  0.00     0.156 A 
HETATM    2  N2  UNL     1      23.444   3.110  49.927  1.00  0.00    -0.222 NA
HETATM    3  C8  UNL     1      24.530   3.876  49.773  1.00  0.00     0.238 A 
HETATM    4  N3  UNL     1      25.649   3.632  50.478  1.00  0.00    -0.215 NA
HETATM    5  C9  UNL     1      25.682   2.593  51.364  1.00  0.00     0.201 A 
HETATM    6  C10 UNL     1      24.512   1.835  51.474  1.00  0.00     0.128 A 
HETATM    7  N4  UNL     1      24.344   0.737  52.332  1.00  0.00    -0.379 N 
HETATM    8  C11 UNL     1      25.226  -0.263  52.885  1.00  0.00     0.159 C 
HETATM    9  C12 UNL     1      26.636   0.133  52.965  1.00  0.00    -0.012 C 
HETATM   10  C16 UNL     1      27.324   1.212  52.630  1.00  0.00     0.151 C 
HETATM   11  O2  UNL     1      26.894   2.424  52.046  1.00  0.00    -0.302 OA
HETATM   12  H9  UNL     1      23.329   0.633  52.636  1.00  0.00     0.160 HD
ENDROOT
BRANCH   1  13
HETATM   13  N1  UNL     1      22.181   1.311  50.847  1.00  0.00    -0.369 N 
HETATM   14  H7  UNL     1      21.881   0.390  50.481  1.00  0.00     0.161 HD
BRANCH  13  15
HETATM   15  C6  UNL     1      21.067   1.897  51.604  1.00  0.00     0.150 C 
BRANCH  15  16
HETATM   16  C5  UNL     1      20.026   0.852  51.710  1.00  0.00     0.012 C 
HETATM   17  C4  UNL     1      19.851   0.230  52.844  1.00  0.00     0.015 C 
HETATM   18 BR1  UNL     1      18.591  -1.140  53.231  1.00  0.00    -0.051 Br
BRANCH  17  19
HETATM   19  C3  UNL     1      20.638   0.516  54.026  1.00  0.00     0.069 C 
BRANCH  19  20
HETATM   20  C2  UNL     1      21.380  -0.423  54.551  1.00  0.00    -0.154 C 
HETATM   21  C1  UNL     1      22.306  -1.296  54.920  1.00  0.00     0.096 C 
ENDBRANCH  19  20
ENDBRANCH  17  19
ENDBRANCH  15  16
ENDBRANCH  13  15
ENDBRANCH   1  13
BRANCH   9  22
HETATM   22  C13 UNL     1      27.331  -1.027  53.569  1.00  0.00     0.149 C 
HETATM   23  C14 UNL     1      27.375  -2.225  52.654  1.00  0.00     0.044 C 
BRANCH  22  24
HETATM   24  O1  UNL     1      28.561  -0.731  54.120  1.00  0.00    -0.387 OA
HETATM   25  C15 UNL     1      29.639  -1.327  53.524  1.00  0.00     0.202 C 
ENDBRANCH  22  24
ENDBRANCH   9  22
TORSDOF 7
ENDMDL
MODEL 6
REMARK VINA RESULT:      -6.7      1.930      2.383
REMARK  7 active torsions:
REMARK  status: ('A' for Active; 'I' for Inactive)
REMARK    1  A    between atoms: C2_2  and  C3_3 
REMARK    2  A    between atoms: C3_3  and  C4_4 
REMARK    3  A    between atoms: C5_6  and  C6_7 
REMARK    4  A    between atoms: C6_7  and  N1_8 
REMARK    5  A    between atoms: N1_8  and  C7_9 
REMARK    6  A    between atoms: C12_17  and  C13_18 
REMARK    7  A    between atoms: C13_18  and  O1_20 
ROOT
HETATM    1  C7  UNL     1      25.727   2.238  51.890  1.00  0.00     0.156 A 
HETATM    2  N2  UNL     1      26.945   1.707  52.005  1.00  0.00    -0.222 NA
HETATM    3  C8  UNL     1      27.193   0.513  52.556  1.00  0.00     0.238 A 
HETATM    4  N3  UNL     1      26.190  -0.242  53.039  1.00  0.00    -0.215 NA
HETATM    5  C9  UNL     1      24.903   0.210  52.970  1.00  0.00     0.201 A 
HETATM    6  C10 UNL     1      24.719   1.466  52.382  1.00  0.00     0.128 A 
HETATM    7  N4  UNL     1      23.479   2.106  52.227  1.00  0.00    -0.379 N 
HETATM    8  C11 UNL     1      22.118   1.655  52.054  1.00  0.00     0.159 C 
HETATM    9  C12 UNL     1      21.846   0.306  52.561  1.00  0.00    -0.012 C 
HETATM   10  C16 UNL     1      22.567  -0.636  53.146  1.00  0.00     0.151 C 
HETATM   11  O2  UNL     1      23.934  -0.652  53.499  1.00  0.00    -0.302 OA
HETATM   12  H9  UNL     1      23.584   3.165  52.245  1.00  0.00     0.160 HD
ENDROOT
BRANCH   1  13
HETATM   13  N1  UNL     1      25.564   3.506  51.277  1.00  0.00    -0.369 N 
HETATM   14  H7  UNL     1      25.465   4.476  51.628  1.00  0.00     0.161 HD
BRANCH  13  15
HETATM   15  C6  UNL     1      25.505   3.535  49.809  1.00  0.00     0.150 C 
BRANCH  15  16
HETATM   16  C5  UNL     1      26.867   3.861  49.334  1.00  0.00     0.012 C 
HETATM   17  C4  UNL     1      27.118   5.055  48.868  1.00  0.00     0.015 C 
HETATM   18 BR1  UNL     1      28.772   5.714  48.203  1.00  0.00    -0.051 Br
BRANCH  17  19
HETATM   19  C3  UNL     1      26.113   6.095  48.791  1.00  0.00     0.069 C 
BRANCH  19  20
HETATM   20  C2  UNL     1      26.245   7.177  49.513  1.00  0.00    -0.154 C 
HETATM   21  C1  UNL     1      26.544   8.342  50.067  1.00  0.00     0.096 C 
ENDBRANCH  19  20
ENDBRANCH  17  19
ENDBRANCH  15  16
ENDBRANCH  13  15
ENDBRANCH   1  13
BRANCH   9  22
HETATM   22  C13 UNL     1      20.408   0.074  52.291  1.00  0.00     0.149 C 
HETATM   23  C14 UNL     1      19.690  -0.568  53.452  1.00  0.00     0.044 C 
BRANCH  22  24
HETATM   24  O1  UNL     1      19.738   1.170  51.789  1.00  0.00    -0.387 OA
HETATM   25  C15 UNL     1      18.689   0.894  50.955  1.00  0.00     0.202 C 
ENDBRANCH  22  24
ENDBRANCH   9  22
TORSDOF 7
ENDMDL
MODEL 7
REMARK VINA RESULT:      -6.6      2.284      3.428
REMARK  7 active torsions:
REMARK  status: ('A' for Active; 'I' for Inactive)
REMARK    1  A    between atoms: C2_2  and  C3_3 
REMARK    2  A    between atoms: C3_3  and  C4_4 
REMARK    3  A    between atoms: C5_6  and  C6_7 
REMARK    4  A    between atoms: C6_7  and  N1_8 
REMARK    5  A    between atoms: N1_8  and  C7_9 
REMARK    6  A    between atoms: C12_17  and  C13_18 
REMARK    7  A    between atoms: C13_18  and  O1_20 
ROOT
HETATM    1  C7  UNL     1      25.289   2.277  52.039  1.00  0.00     0.156 A 
HETATM    2  N2  UNL     1      26.495   1.723  51.903  1.00  0.00    -0.222 NA
HETATM    3  C8  UNL     1      26.782   0.461  52.240  1.00  0.00     0.238 A 
HETATM    4  N3  UNL     1      25.834  -0.346  52.751  1.00  0.00    -0.215 NA
HETATM    5  C9  UNL     1      24.565   0.124  52.931  1.00  0.00     0.201 A 
HETATM    6  C10 UNL     1      24.337   1.452  52.558  1.00  0.00     0.128 A 
HETATM    7  N4  UNL     1      23.107   2.119  52.674  1.00  0.00    -0.379 N 
HETATM    8  C11 UNL     1      21.723   1.710  52.637  1.00  0.00     0.159 C 
HETATM    9  C12 UNL     1      21.485   0.306  52.984  1.00  0.00    -0.012 C 
HETATM   10  C16 UNL     1      22.253  -0.717  53.321  1.00  0.00     0.151 C 
HETATM   11  O2  UNL     1      23.655  -0.796  53.468  1.00  0.00    -0.302 OA
HETATM   12  H9  UNL     1      23.245   3.164  52.825  1.00  0.00     0.160 HD
ENDROOT
BRANCH   1  13
HETATM   13  N1  UNL     1      25.079   3.621  51.640  1.00  0.00    -0.369 N 
HETATM   14  H7  UNL     1      24.675   4.460  52.095  1.00  0.00     0.161 HD
BRANCH  13  15
HETATM   15  C6  UNL     1      25.496   3.986  50.279  1.00  0.00     0.150 C 
BRANCH  15  16
HETATM   16  C5  UNL     1      24.413   4.815  49.708  1.00  0.00     0.012 C 
HETATM   17  C4  UNL     1      23.492   4.254  48.972  1.00  0.00     0.015 C 
HETATM   18 BR1  UNL     1      22.009   5.096  48.133  1.00  0.00    -0.051 Br
BRANCH  17  19
HETATM   19  C3  UNL     1      23.476   2.835  48.682  1.00  0.00     0.069 C 
BRANCH  19  20
HETATM   20  C2  UNL     1      22.333   2.207  48.590  1.00  0.00    -0.154 C 
HETATM   21  C1  UNL     1      21.299   1.378  48.603  1.00  0.00     0.096 C 
ENDBRANCH  19  20
ENDBRANCH  17  19
ENDBRANCH  15  16
ENDBRANCH  13  15
ENDBRANCH   1  13
BRANCH   9  22
HETATM   22  C13 UNL     1      20.017   0.128  52.893  1.00  0.00     0.149 C 
HETATM   23  C14 UNL     1      19.494   0.278  51.487  1.00  0.00     0.044 C 
BRANCH  22  24
HETATM   24  O1  UNL     1      19.541  -1.005  53.522  1.00  0.00    -0.387 OA
HETATM   25  C15 UNL     1      18.218  -1.287  53.314  1.00  0.00     0.202 C 
ENDBRANCH  22  24
ENDBRANCH   9  22
TORSDOF 7
ENDMDL
MODEL 8
REMARK VINA RESULT:      -6.5      3.513      6.821
REMARK  7 active torsions:
REMARK  status: ('A' for Active; 'I' for Inactive)
REMARK    1  A    between atoms: C2_2  and  C3_3 
REMARK    2  A    between atoms: C3_3  and  C4_4 
REMARK    3  A    between atoms: C5_6  and  C6_7 
REMARK    4  A    between atoms: C6_7  and  N1_8 
REMARK    5  A    between atoms: N1_8  and  C7_9 
REMARK    6  A    between atoms: C12_17  and  C13_18 
REMARK    7  A    between atoms: C13_18  and  O1_20 
ROOT
HETATM    1  C7  UNL     1      23.281   4.368  51.092  1.00  0.00     0.156 A 
HETATM    2  N2  UNL     1      23.270   4.886  49.863  1.00  0.00    -0.222 NA
HETATM    3  C8  UNL     1      24.312   4.848  49.024  1.00  0.00     0.238 A 
HETATM    4  N3  UNL     1      25.467   4.263  49.389  1.00  0.00    -0.215 NA
HETATM    5  C9  UNL     1      25.583   3.701  50.628  1.00  0.00     0.201 A 
HETATM    6  C10 UNL     1      24.455   3.778  51.452  1.00  0.00     0.128 A 
HETATM    7  N4  UNL     1      24.380   3.271  52.759  1.00  0.00    -0.379 N 
HETATM    8  C11 UNL     1      25.008   2.177  53.461  1.00  0.00     0.159 C 
HETATM    9  C12 UNL     1      26.294   1.745  52.906  1.00  0.00    -0.012 C 
HETATM   10  C16 UNL     1      27.040   2.114  51.877  1.00  0.00     0.151 C 
HETATM   11  O2  UNL     1      26.825   3.118  50.908  1.00  0.00    -0.302 OA
HETATM   12  H9  UNL     1      23.700   3.834  53.355  1.00  0.00     0.160 HD
ENDROOT
BRANCH   1  13
HETATM   13  N1  UNL     1      22.121   4.445  51.903  1.00  0.00    -0.369 N 
HETATM   14  H7  UNL     1      21.853   4.998  52.737  1.00  0.00     0.161 HD
BRANCH  13  15
HETATM   15  C6  UNL     1      20.999   3.564  51.548  1.00  0.00     0.150 C 
BRANCH  15  16
HETATM   16  C5  UNL     1      20.863   2.584  52.646  1.00  0.00     0.012 C 
HETATM   17  C4  UNL     1      20.491   1.361  52.376  1.00  0.00     0.015 C 
HETATM   18 BR1  UNL     1      20.245  -0.071  53.601  1.00  0.00    -0.051 Br
BRANCH  17  19
HETATM   19  C3  UNL     1      20.200   0.909  51.032  1.00  0.00     0.069 C 
BRANCH  19  20
HETATM   20  C2  UNL     1      18.984   0.545  50.720  1.00  0.00    -0.154 C 
HETATM   21  C1  UNL     1      17.750   0.070  50.633  1.00  0.00     0.096 C 
ENDBRANCH  19  20
ENDBRANCH  17  19
ENDBRANCH  15  16
ENDBRANCH  13  15
ENDBRANCH   1  13
BRANCH   9  22
HETATM   22  C13 UNL     1      26.746   0.643  53.787  1.00  0.00     0.149 C 
HETATM   23  C14 UNL     1      27.034  -0.630  53.032  1.00  0.00     0.044 C 
BRANCH  22  24
HETATM   24  O1  UNL     1      27.758   0.988  54.659  1.00  0.00    -0.387 OA
HETATM   25  C15 UNL     1      28.862   0.180  54.637  1.00  0.00     0.202 C 
ENDBRANCH  22  24
ENDBRANCH   9  22
TORSDOF 7
ENDMDL
MODEL 9
REMARK VINA RESULT:      -6.5      3.109      5.841
REMARK  7 active torsions:
REMARK  status: ('A' for Active; 'I' for Inactive)
REMARK    1  A    between atoms: C2_2  and  C3_3 
REMARK    2  A    between atoms: C3_3  and  C4_4 
REMARK    3  A    between atoms: C5_6  and  C6_7 
REMARK    4  A    between atoms: C6_7  and  N1_8 
REMARK    5  A    between atoms: N1_8  and  C7_9 
REMARK    6  A    between atoms: C12_17  and  C13_18 
REMARK    7  A    between atoms: C13_18  and  O1_20 
ROOT
HETATM    1  C7  UNL     1      24.216   3.780  50.090  1.00  0.00     0.156 A 
HETATM    2  N2  UNL     1      24.864   4.586  49.248  1.00  0.00    -0.222 NA
HETATM    3  C8  UNL     1      26.197   4.661  49.159  1.00  0.00     0.238 A 
HETATM    4  N3  UNL     1      26.982   3.900  49.942  1.00  0.00    -0.215 NA
HETATM    5  C9  UNL     1      26.418   3.040  50.841  1.00  0.00     0.201 A 
HETATM    6  C10 UNL     1      25.020   3.014  50.879  1.00  0.00     0.128 A 
HETATM    7  N4  UNL     1      24.256   2.207  51.738  1.00  0.00    -0.379 N 
HETATM    8  C11 UNL     1      24.451   0.920  52.362  1.00  0.00     0.159 C 
HETATM    9  C12 UNL     1      25.852   0.522  52.533  1.00  0.00    -0.012 C 
HETATM   10  C16 UNL     1      27.021   1.065  52.233  1.00  0.00     0.151 C 
HETATM   11  O2  UNL     1      27.323   2.294  51.606  1.00  0.00    -0.302 OA
HETATM   12  H9  UNL     1      23.324   2.664  51.972  1.00  0.00     0.160 HD
ENDROOT
BRANCH   1  13
HETATM   13  N1  UNL     1      22.799   3.759  50.101  1.00  0.00    -0.369 N 
HETATM   14  H7  UNL     1      22.076   3.217  49.595  1.00  0.00     0.161 HD
BRANCH  13  15
HETATM   15  C6  UNL     1      22.125   4.699  51.008  1.00  0.00     0.150 C 
BRANCH  15  16
HETATM   16  C5  UNL     1      20.674   4.564  50.762  1.00  0.00     0.012 C 
HETATM   17  C4  UNL     1      19.977   3.715  51.469  1.00  0.00     0.015 C 
HETATM   18 BR1  UNL     1      18.114   3.359  51.344  1.00  0.00    -0.051 Br
BRANCH  17  19
HETATM   19  C3  UNL     1      20.564   2.884  52.500  1.00  0.00     0.069 C 
BRANCH  19  20
HETATM   20  C2  UNL     1      20.582   1.586  52.352  1.00  0.00    -0.154 C 
HETATM   21  C1  UNL     1      20.776   0.316  52.028  1.00  0.00     0.096 C 
ENDBRANCH  19  20
ENDBRANCH  17  19
ENDBRANCH  15  16
ENDBRANCH  13  15
ENDBRANCH   1  13
BRANCH   9  22
HETATM   22  C13 UNL     1      25.802  -0.800  53.197  1.00  0.00     0.149 C 
HETATM   23  C14 UNL     1      26.728  -1.809  52.565  1.00  0.00     0.044 C 
BRANCH  22  24
HETATM   24  O1  UNL     1      25.920  -0.753  54.571  1.00  0.00    -0.387 OA
HETATM   25  C15 UNL     1      24.798  -1.096  55.276  1.00  0.00     0.202 C 
ENDBRANCH  22  24
ENDBRANCH   9  22
TORSDOF 7
ENDMDL
