MODEL 1
REMARK VINA RESULT:      -7.3      0.000      0.000
REMARK  6 active torsions:
REMARK  status: ('A' for Active; 'I' for Inactive)
REMARK    1  A    between atoms: C2_2  and  C3_3 
REMARK    2  A    between atoms: C3_3  and  C4_4 
REMARK    3  A    between atoms: C3_3  and  C6_7 
REMARK    4  A    between atoms: C13_16  and  N3_17 
REMARK    5  A    between atoms: N3_17  and  C14_18 
REMARK    6  A    between atoms: C14_18  and  C15_19 
ROOT
HETATM    1  C6  UNL     1      23.001   1.436  51.984  1.00  0.00    -0.015 A 
HETATM    2  C7  UNL     1      21.996   0.464  51.874  1.00  0.00     0.070 A 
HETATM    3  C8  UNL     1      20.890   0.753  50.975  1.00  0.00     0.101 C 
HETATM    4  N1  UNL     1      20.011   1.003  50.264  1.00  0.00    -0.191 NA
HETATM    5  C9  UNL     1      21.948  -0.745  52.536  1.00  0.00     0.140 A 
HETATM    6  N2  UNL     1      22.980  -1.025  53.380  1.00  0.00    -0.259 NA
HETATM    7  C10 UNL     1      23.993  -0.157  53.554  1.00  0.00     0.067 A 
HETATM    8  C11 UNL     1      25.050  -0.437  54.402  1.00  0.00     0.035 A 
HETATM    9  C12 UNL     1      26.119   0.444  54.591  1.00  0.00     0.031 A 
HETATM   10  C13 UNL     1      26.104   1.652  53.886  1.00  0.00     0.029 A 
HETATM   11  C16 UNL     1      25.033   1.891  53.054  1.00  0.00     0.043 A 
HETATM   12  C17 UNL     1      23.978   1.030  52.864  1.00  0.00     0.003 A 
ENDROOT
BRANCH   1  13
HETATM   13  C3  UNL     1      22.921   2.683  51.209  1.00  0.00     0.048 C 
BRANCH  13  14
HETATM   14  C2  UNL     1      22.539   3.881  51.960  1.00  0.00     0.003 C 
HETATM   15  C1  UNL     1      21.275   4.351  51.957  1.00  0.00     0.006 C 
ENDBRANCH  13  14
BRANCH  13  16
HETATM   16  C4  UNL     1      24.180   2.901  50.410  1.00  0.00    -0.010 C 
HETATM   17  C5  UNL     1      24.716   4.126  50.271  1.00  0.00     0.052 C 
HETATM   18 BR1  UNL     1      26.301   4.408  49.268  1.00  0.00    -0.064 Br
ENDBRANCH  13  16
ENDBRANCH   1  13
BRANCH  10  19
HETATM   19  N3  UNL     1      27.183   2.561  54.064  1.00  0.00    -0.384 N 
HETATM   20  H10 UNL     1      27.015   3.406  54.664  1.00  0.00     0.160 HD
BRANCH  19  21
HETATM   21  C14 UNL     1      28.430   2.219  53.384  1.00  0.00     0.189 C 
BRANCH  21  22
HETATM   22  C15 UNL     1      29.434   1.753  54.386  1.00  0.00     0.250 C 
HETATM   23  O1  UNL     1      29.897   2.410  55.320  1.00  0.00    -0.305 OA
ENDBRANCH  21  22
ENDBRANCH  19  21
ENDBRANCH  10  19
TORSDOF 6
ENDMDL
MODEL 2
REMARK VINA RESULT:      -7.1      1.820      1.932
REMARK  6 active torsions:
REMARK  status: ('A' for Active; 'I' for Inactive)
REMARK    1  A    between atoms: C2_2  and  C3_3 
REMARK    2  A    between atoms: C3_3  and  C4_4 
REMARK    3  A    between atoms: C3_3  and  C6_7 
REMARK    4  A    between atoms: C13_16  and  N3_17 
REMARK    5  A    between atoms: N3_17  and  C14_18 
REMARK    6  A    between atoms: C14_18  and  C15_19 
ROOT
HETATM    1  C6  UNL     1      22.672   1.725  52.576  1.00  0.00    -0.015 A 
HETATM    2  C7  UNL     1      21.403   1.345  53.040  1.00  0.00     0.070 A 
HETATM    3  C8  UNL     1      20.273   2.156  52.615  1.00  0.00     0.101 C 
HETATM    4  N1  UNL     1      19.385   2.819  52.279  1.00  0.00    -0.191 NA
HETATM    5  C9  UNL     1      21.116   0.275  53.861  1.00  0.00     0.140 A 
HETATM    6  N2  UNL     1      22.168  -0.491  54.264  1.00  0.00    -0.259 NA
HETATM    7  C10 UNL     1      23.424  -0.209  53.872  1.00  0.00     0.067 A 
HETATM    8  C11 UNL     1      24.498  -0.987  54.268  1.00  0.00     0.035 A 
HETATM    9  C12 UNL     1      25.811  -0.721  53.866  1.00  0.00     0.031 A 
HETATM   10  C13 UNL     1      26.029   0.378  53.031  1.00  0.00     0.029 A 
HETATM   11  C16 UNL     1      24.933   1.127  52.662  1.00  0.00     0.043 A 
HETATM   12  C17 UNL     1      23.640   0.871  53.054  1.00  0.00     0.003 A 
ENDROOT
BRANCH   1  13
HETATM   13  C3  UNL     1      22.826   2.893  51.696  1.00  0.00     0.048 C 
BRANCH  13  14
HETATM   14  C2  UNL     1      23.801   3.896  52.128  1.00  0.00     0.003 C 
HETATM   15  C1  UNL     1      23.424   5.114  52.567  1.00  0.00     0.006 C 
ENDBRANCH  13  14
BRANCH  13  16
HETATM   16  C4  UNL     1      23.057   2.464  50.270  1.00  0.00    -0.010 C 
HETATM   17  C5  UNL     1      22.141   2.693  49.314  1.00  0.00     0.052 C 
HETATM   18 BR1  UNL     1      22.425   2.157  47.516  1.00  0.00    -0.064 Br
ENDBRANCH  13  16
ENDBRANCH   1  13
BRANCH  10  19
HETATM   19  N3  UNL     1      27.357   0.665  52.610  1.00  0.00    -0.384 N 
HETATM   20  H10 UNL     1      27.486   1.108  51.668  1.00  0.00     0.160 HD
BRANCH  19  21
HETATM   21  C14 UNL     1      28.419   0.307  53.548  1.00  0.00     0.189 C 
BRANCH  21  22
HETATM   22  C15 UNL     1      29.030   1.548  54.109  1.00  0.00     0.250 C 
HETATM   23  O1  UNL     1      28.517   2.668  54.140  1.00  0.00    -0.305 OA
ENDBRANCH  21  22
ENDBRANCH  19  21
ENDBRANCH  10  19
TORSDOF 6
ENDMDL
MODEL 3
REMARK VINA RESULT:      -6.9      3.560      5.711
REMARK  6 active torsions:
REMARK  status: ('A' for Active; 'I' for Inactive)
REMARK    1  A    between atoms: C2_2  and  C3_3 
REMARK    2  A    between atoms: C3_3  and  C4_4 
REMARK    3  A    between atoms: C3_3  and  C6_7 
REMARK    4  A    between atoms: C13_16  and  N3_17 
REMARK    5  A    between atoms: N3_17  and  C14_18 
REMARK    6  A    between atoms: C14_18  and  C15_19 
ROOT
HETATM    1  C6  UNL     1      23.958   1.028  52.186  1.00  0.00    -0.015 A 
HETATM    2  C7  UNL     1      25.347   0.983  52.374  1.00  0.00     0.070 A 
HETATM    3  C8  UNL     1      26.164   1.772  51.465  1.00  0.00     0.101 C 
HETATM    4  N1  UNL     1      26.801   2.396  50.726  1.00  0.00    -0.191 NA
HETATM    5  C9  UNL     1      26.023   0.264  53.338  1.00  0.00     0.140 A 
HETATM    6  N2  UNL     1      25.266  -0.477  54.194  1.00  0.00    -0.259 NA
HETATM    7  C10 UNL     1      23.924  -0.500  54.096  1.00  0.00     0.067 A 
HETATM    8  C11 UNL     1      23.147  -1.242  54.968  1.00  0.00     0.035 A 
HETATM    9  C12 UNL     1      21.751  -1.274  54.894  1.00  0.00     0.031 A 
HETATM   10  C13 UNL     1      21.132  -0.518  53.894  1.00  0.00     0.029 A 
HETATM   11  C16 UNL     1      21.943   0.205  53.047  1.00  0.00     0.043 A 
HETATM   12  C17 UNL     1      23.316   0.239  53.114  1.00  0.00     0.003 A 
ENDROOT
BRANCH   1  13
HETATM   13  C3  UNL     1      23.376   1.849  51.114  1.00  0.00     0.048 C 
BRANCH  13  14
HETATM   14  C2  UNL     1      22.158   1.323  50.494  1.00  0.00     0.003 C 
HETATM   15  C1  UNL     1      21.927   1.432  49.169  1.00  0.00     0.006 C 
ENDBRANCH  13  14
BRANCH  13  16
HETATM   16  C4  UNL     1      23.203   3.277  51.563  1.00  0.00    -0.010 C 
HETATM   17  C5  UNL     1      23.569   4.305  50.779  1.00  0.00     0.052 C 
HETATM   18 BR1  UNL     1      23.353   6.106  51.338  1.00  0.00    -0.064 Br
ENDBRANCH  13  16
ENDBRANCH   1  13
BRANCH  10  19
HETATM   19  N3  UNL     1      19.713  -0.536  53.802  1.00  0.00    -0.384 N 
HETATM   20  H10 UNL     1      19.173  -0.825  54.654  1.00  0.00     0.160 HD
BRANCH  19  21
HETATM   21  C14 UNL     1      19.146  -0.144  52.513  1.00  0.00     0.189 C 
BRANCH  21  22
HETATM   22  C15 UNL     1      17.759  -0.682  52.393  1.00  0.00     0.250 C 
HETATM   23  O1  UNL     1      16.947  -0.827  53.308  1.00  0.00    -0.305 OA
ENDBRANCH  21  22
ENDBRANCH  19  21
ENDBRANCH  10  19
TORSDOF 6
ENDMDL
MODEL 4
REMARK VINA RESULT:      -6.9      3.005      5.599
REMARK  6 active torsions:
REMARK  status: ('A' for Active; 'I' for Inactive)
REMARK    1  A    between atoms: C2_2  and  C3_3 
REMARK    2  A    between atoms: C3_3  and  C4_4 
REMARK    3  A    between atoms: C3_3  and  C6_7 
REMARK    4  A    between atoms: C13_16  and  N3_17 
REMARK    5  A    between atoms: N3_17  and  C14_18 
REMARK    6  A    between atoms: C14_18  and  C15_19 
ROOT
HETATM    1  C6  UNL     1      25.183   1.494  53.134  1.00  0.00    -0.015 A 
HETATM    2  C7  UNL     1      26.254   1.124  53.961  1.00  0.00     0.070 A 
HETATM    3  C8  UNL     1      27.443   1.960  53.919  1.00  0.00     0.101 C 
HETATM    4  N1  UNL     1      28.388   2.628  53.865  1.00  0.00    -0.191 NA
HETATM    5  C9  UNL     1      26.294   0.042  54.816  1.00  0.00     0.140 A 
HETATM    6  N2  UNL     1      25.184  -0.746  54.863  1.00  0.00    -0.259 NA
HETATM    7  C10 UNL     1      24.105  -0.474  54.108  1.00  0.00     0.067 A 
HETATM    8  C11 UNL     1      22.969  -1.263  54.156  1.00  0.00     0.035 A 
HETATM    9  C12 UNL     1      21.831  -0.995  53.389  1.00  0.00     0.031 A 
HETATM   10  C13 UNL     1      21.858   0.120  52.546  1.00  0.00     0.029 A 
HETATM   11  C16 UNL     1      23.008   0.878  52.528  1.00  0.00     0.043 A 
HETATM   12  C17 UNL     1      24.131   0.619  53.278  1.00  0.00     0.003 A 
ENDROOT
BRANCH   1  13
HETATM   13  C3  UNL     1      25.281   2.684  52.274  1.00  0.00     0.048 C 
BRANCH  13  14
HETATM   14  C2  UNL     1      25.566   2.430  50.861  1.00  0.00     0.003 C 
HETATM   15  C1  UNL     1      26.572   3.053  50.213  1.00  0.00     0.006 C 
ENDBRANCH  13  14
BRANCH  13  16
HETATM   16  C4  UNL     1      24.080   3.576  52.452  1.00  0.00    -0.010 C 
HETATM   17  C5  UNL     1      23.641   4.363  51.456  1.00  0.00     0.052 C 
HETATM   18 BR1  UNL     1      22.128   5.489  51.672  1.00  0.00    -0.064 Br
ENDBRANCH  13  16
ENDBRANCH   1  13
BRANCH  10  19
HETATM   19  N3  UNL     1      20.710   0.410  51.758  1.00  0.00    -0.384 N 
HETATM   20  H10 UNL     1      20.012  -0.360  51.611  1.00  0.00     0.160 HD
BRANCH  19  21
HETATM   21  C14 UNL     1      20.620   1.769  51.230  1.00  0.00     0.189 C 
BRANCH  21  22
HETATM   22  C15 UNL     1      19.869   2.630  52.190  1.00  0.00     0.250 C 
HETATM   23  O1  UNL     1      18.691   2.979  52.096  1.00  0.00    -0.305 OA
ENDBRANCH  21  22
ENDBRANCH  19  21
ENDBRANCH  10  19
TORSDOF 6
ENDMDL
MODEL 5
REMARK VINA RESULT:      -6.8      2.725      3.415
REMARK  6 active torsions:
REMARK  status: ('A' for Active; 'I' for Inactive)
REMARK    1  A    between atoms: C2_2  and  C3_3 
REMARK    2  A    between atoms: C3_3  and  C4_4 
REMARK    3  A    between atoms: C3_3  and  C6_7 
REMARK    4  A    between atoms: C13_16  and  N3_17 
REMARK    5  A    between atoms: N3_17  and  C14_18 
REMARK    6  A    between atoms: C14_18  and  C15_19 
ROOT
HETATM    1  C6  UNL     1      23.044   0.881  52.574  1.00  0.00    -0.015 A 
HETATM    2  C7  UNL     1      22.656  -0.150  53.443  1.00  0.00     0.070 A 
HETATM    3  C8  UNL     1      21.239  -0.471  53.496  1.00  0.00     0.101 C 
HETATM    4  N1  UNL     1      20.106  -0.709  53.537  1.00  0.00    -0.191 NA
HETATM    5  C9  UNL     1      23.485  -0.893  54.256  1.00  0.00     0.140 A 
HETATM    6  N2  UNL     1      24.815  -0.598  54.212  1.00  0.00    -0.259 NA
HETATM    7  C10 UNL     1      25.287   0.373  53.410  1.00  0.00     0.067 A 
HETATM    8  C11 UNL     1      26.637   0.672  53.351  1.00  0.00     0.035 A 
HETATM    9  C12 UNL     1      27.152   1.669  52.518  1.00  0.00     0.031 A 
HETATM   10  C13 UNL     1      26.254   2.383  51.718  1.00  0.00     0.029 A 
HETATM   11  C16 UNL     1      24.920   2.053  51.808  1.00  0.00     0.043 A 
HETATM   12  C17 UNL     1      24.406   1.075  52.626  1.00  0.00     0.003 A 
ENDROOT
BRANCH   1  13
HETATM   13  C3  UNL     1      22.044   1.587  51.759  1.00  0.00     0.048 C 
BRANCH  13  14
HETATM   14  C2  UNL     1      21.787   2.981  52.125  1.00  0.00     0.003 C 
HETATM   15  C1  UNL     1      20.553   3.417  52.450  1.00  0.00     0.006 C 
ENDBRANCH  13  14
BRANCH  13  16
HETATM   16  C4  UNL     1      22.347   1.440  50.290  1.00  0.00    -0.010 C 
HETATM   17  C5  UNL     1      22.178   2.464  49.436  1.00  0.00     0.052 C 
HETATM   18 BR1  UNL     1      22.559   2.288  47.585  1.00  0.00    -0.064 Br
ENDBRANCH  13  16
ENDBRANCH   1  13
BRANCH  10  19
HETATM   19  N3  UNL     1      26.760   3.401  50.863  1.00  0.00    -0.384 N 
HETATM   20  H10 UNL     1      27.486   4.050  51.254  1.00  0.00     0.160 HD
BRANCH  19  21
HETATM   21  C14 UNL     1      26.208   3.437  49.510  1.00  0.00     0.189 C 
BRANCH  21  22
HETATM   22  C15 UNL     1      25.821   4.837  49.166  1.00  0.00     0.250 C 
HETATM   23  O1  UNL     1      24.686   5.242  48.912  1.00  0.00    -0.305 OA
ENDBRANCH  21  22
ENDBRANCH  19  21
ENDBRANCH  10  19
TORSDOF 6
ENDMDL
MODEL 6
REMARK VINA RESULT:      -6.7      4.282      6.366
REMARK  6 active torsions:
REMARK  status: ('A' for Active; 'I' for Inactive)
REMARK    1  A    between atoms: C2_2  and  C3_3 
REMARK    2  A    between atoms: C3_3  and  C4_4 
REMARK    3  A    between atoms: C3_3  and  C6_7 
REMARK    4  A    between atoms: C13_16  and  N3_17 
REMARK    5  A    between atoms: N3_17  and  C14_18 
REMARK    6  A    between atoms: C14_18  and  C15_19 
ROOT
HETATM    1  C6  UNL     1      22.618   1.374  51.616  1.00  0.00    -0.015 A 
HETATM    2  C7  UNL     1      23.983   1.695  51.650  1.00  0.00     0.070 A 
HETATM    3  C8  UNL     1      24.466   2.642  50.658  1.00  0.00     0.101 C 
HETATM    4  N1  UNL     1      24.838   3.389  49.855  1.00  0.00    -0.191 NA
HETATM    5  C9  UNL     1      24.920   1.200  52.534  1.00  0.00     0.140 A 
HETATM    6  N2  UNL     1      24.476   0.312  53.466  1.00  0.00    -0.259 NA
HETATM    7  C10 UNL     1      23.184  -0.059  53.516  1.00  0.00     0.067 A 
HETATM    8  C11 UNL     1      22.723  -0.952  54.467  1.00  0.00     0.035 A 
HETATM    9  C12 UNL     1      21.383  -1.345  54.546  1.00  0.00     0.031 A 
HETATM   10  C13 UNL     1      20.487  -0.802  53.620  1.00  0.00     0.029 A 
HETATM   11  C16 UNL     1      20.988   0.083  52.691  1.00  0.00     0.043 A 
HETATM   12  C17 UNL     1      22.304   0.472  52.607  1.00  0.00     0.003 A 
ENDROOT
BRANCH   1  13
HETATM   13  C3  UNL     1      21.732   1.988  50.614  1.00  0.00     0.048 C 
BRANCH  13  14
HETATM   14  C2  UNL     1      21.368   1.140  49.478  1.00  0.00     0.003 C 
HETATM   15  C1  UNL     1      21.849   1.365  48.238  1.00  0.00     0.006 C 
ENDBRANCH  13  14
BRANCH  13  16
HETATM   16  C4  UNL     1      20.520   2.597  51.270  1.00  0.00    -0.010 C 
HETATM   17  C5  UNL     1      19.351   2.705  50.615  1.00  0.00     0.052 C 
HETATM   18 BR1  UNL     1      17.820   3.470  51.435  1.00  0.00    -0.064 Br
ENDBRANCH  13  16
ENDBRANCH   1  13
BRANCH  10  19
HETATM   19  N3  UNL     1      19.119  -1.188  53.684  1.00  0.00    -0.384 N 
HETATM   20  H10 UNL     1      18.829  -1.824  54.466  1.00  0.00     0.160 HD
BRANCH  19  21
HETATM   21  C14 UNL     1      18.250  -0.650  52.640  1.00  0.00     0.189 C 
BRANCH  21  22
HETATM   22  C15 UNL     1      16.831  -0.999  52.943  1.00  0.00     0.250 C 
HETATM   23  O1  UNL     1      15.899  -0.208  53.102  1.00  0.00    -0.305 OA
ENDBRANCH  21  22
ENDBRANCH  19  21
ENDBRANCH  10  19
TORSDOF 6
ENDMDL
MODEL 7
REMARK VINA RESULT:      -6.6      3.466      6.186
REMARK  6 active torsions:
REMARK  status: ('A' for Active; 'I' for Inactive)
REMARK    1  A    between atoms: C2_2  and  C3_3 
REMARK    2  A    between atoms: C3_3  and  C4_4 
REMARK    3  A    between atoms: C3_3  and  C6_7 
REMARK    4  A    between atoms: C13_16  and  N3_17 
REMARK    5  A    between atoms: N3_17  and  C14_18 
REMARK    6  A    between atoms: C14_18  and  C15_19 
ROOT
HETATM    1  C6  UNL     1      23.561   0.246  53.674  1.00  0.00    -0.015 A 
HETATM    2  C7  UNL     1      23.981  -0.620  54.695  1.00  0.00     0.070 A 
HETATM    3  C8  UNL     1      25.369  -0.519  55.119  1.00  0.00     0.101 C 
HETATM    4  N1  UNL     1      26.479  -0.436  55.438  1.00  0.00    -0.191 NA
HETATM    5  C9  UNL     1      23.209  -1.562  55.342  1.00  0.00     0.140 A 
HETATM    6  N2  UNL     1      21.907  -1.662  54.951  1.00  0.00    -0.259 NA
HETATM    7  C10 UNL     1      21.409  -0.876  53.980  1.00  0.00     0.067 A 
HETATM    8  C11 UNL     1      20.086  -0.964  53.584  1.00  0.00     0.035 A 
HETATM    9  C12 UNL     1      19.541  -0.151  52.586  1.00  0.00     0.031 A 
HETATM   10  C13 UNL     1      20.381   0.785  51.974  1.00  0.00     0.029 A 
HETATM   11  C16 UNL     1      21.691   0.839  52.397  1.00  0.00     0.043 A 
HETATM   12  C17 UNL     1      22.233   0.041  53.378  1.00  0.00     0.003 A 
ENDROOT
BRANCH   1  13
HETATM   13  C3  UNL     1      24.501   1.208  53.078  1.00  0.00     0.048 C 
BRANCH  13  14
HETATM   14  C2  UNL     1      25.149   0.785  51.835  1.00  0.00     0.003 C 
HETATM   15  C1  UNL     1      26.460   0.474  51.785  1.00  0.00     0.006 C 
ENDBRANCH  13  14
BRANCH  13  16
HETATM   16  C4  UNL     1      23.864   2.568  52.943  1.00  0.00    -0.010 C 
HETATM   17  C5  UNL     1      24.259   3.433  51.993  1.00  0.00     0.052 C 
HETATM   18 BR1  UNL     1      23.461   5.145  51.816  1.00  0.00    -0.064 Br
ENDBRANCH  13  16
ENDBRANCH   1  13
BRANCH  10  19
HETATM   19  N3  UNL     1      19.846   1.622  50.956  1.00  0.00    -0.384 N 
HETATM   20  H10 UNL     1      20.487   1.916  50.179  1.00  0.00     0.160 HD
BRANCH  19  21
HETATM   21  C14 UNL     1      18.440   1.991  51.101  1.00  0.00     0.189 C 
BRANCH  21  22
HETATM   22  C15 UNL     1      18.341   3.367  51.672  1.00  0.00     0.250 C 
HETATM   23  O1  UNL     1      17.314   3.928  52.059  1.00  0.00    -0.305 OA
ENDBRANCH  21  22
ENDBRANCH  19  21
ENDBRANCH  10  19
TORSDOF 6
ENDMDL
MODEL 8
REMARK VINA RESULT:      -6.6      1.738      2.217
REMARK  6 active torsions:
REMARK  status: ('A' for Active; 'I' for Inactive)
REMARK    1  A    between atoms: C2_2  and  C3_3 
REMARK    2  A    between atoms: C3_3  and  C4_4 
REMARK    3  A    between atoms: C3_3  and  C6_7 
REMARK    4  A    between atoms: C13_16  and  N3_17 
REMARK    5  A    between atoms: N3_17  and  C14_18 
REMARK    6  A    between atoms: C14_18  and  C15_19 
ROOT
HETATM    1  C6  UNL     1      22.346   0.476  52.307  1.00  0.00    -0.015 A 
HETATM    2  C7  UNL     1      21.207  -0.033  52.948  1.00  0.00     0.070 A 
HETATM    3  C8  UNL     1      19.920   0.244  52.331  1.00  0.00     0.101 C 
HETATM    4  N1  UNL     1      18.901   0.483  51.834  1.00  0.00    -0.191 NA
HETATM    5  C9  UNL     1      21.183  -0.774  54.112  1.00  0.00     0.140 A 
HETATM    6  N2  UNL     1      22.384  -1.039  54.697  1.00  0.00    -0.259 NA
HETATM    7  C10 UNL     1      23.534  -0.595  54.158  1.00  0.00     0.067 A 
HETATM    8  C11 UNL     1      24.760  -0.868  54.740  1.00  0.00     0.035 A 
HETATM    9  C12 UNL     1      25.969  -0.427  54.193  1.00  0.00     0.031 A 
HETATM   10  C13 UNL     1      25.920   0.317  53.010  1.00  0.00     0.029 A 
HETATM   11  C16 UNL     1      24.680   0.566  52.465  1.00  0.00     0.043 A 
HETATM   12  C17 UNL     1      23.487   0.137  52.998  1.00  0.00     0.003 A 
ENDROOT
BRANCH   1  13
HETATM   13  C3  UNL     1      22.218   1.248  51.061  1.00  0.00     0.048 C 
BRANCH  13  14
HETATM   14  C2  UNL     1      21.474   0.600  49.980  1.00  0.00     0.003 C 
HETATM   15  C1  UNL     1      21.056   1.282  48.894  1.00  0.00     0.006 C 
ENDBRANCH  13  14
BRANCH  13  16
HETATM   16  C4  UNL     1      21.705   2.637  51.341  1.00  0.00    -0.010 C 
HETATM   17  C5  UNL     1      22.475   3.720  51.141  1.00  0.00     0.052 C 
HETATM   18 BR1  UNL     1      21.835   5.472  51.490  1.00  0.00    -0.064 Br
ENDBRANCH  13  16
ENDBRANCH   1  13
BRANCH  10  19
HETATM   19  N3  UNL     1      27.139   0.773  52.438  1.00  0.00    -0.384 N 
HETATM   20  H10 UNL     1      27.594   0.167  51.712  1.00  0.00     0.160 HD
BRANCH  19  21
HETATM   21  C14 UNL     1      27.638   2.057  52.927  1.00  0.00     0.189 C 
BRANCH  21  22
HETATM   22  C15 UNL     1      28.906   1.844  53.685  1.00  0.00     0.250 C 
HETATM   23  O1  UNL     1      29.218   2.371  54.754  1.00  0.00    -0.305 OA
ENDBRANCH  21  22
ENDBRANCH  19  21
ENDBRANCH  10  19
TORSDOF 6
ENDMDL
MODEL 9
REMARK VINA RESULT:      -6.5      3.681      5.572
REMARK  6 active torsions:
REMARK  status: ('A' for Active; 'I' for Inactive)
REMARK    1  A    between atoms: C2_2  and  C3_3 
REMARK    2  A    between atoms: C3_3  and  C4_4 
REMARK    3  A    between atoms: C3_3  and  C6_7 
REMARK    4  A    between atoms: C13_16  and  N3_17 
REMARK    5  A    between atoms: N3_17  and  C14_18 
REMARK    6  A    between atoms: C14_18  and  C15_19 
ROOT
HETATM    1  C6  UNL     1      24.205   1.545  52.380  1.00  0.00    -0.015 A 
HETATM    2  C7  UNL     1      25.594   1.380  52.277  1.00  0.00     0.070 A 
HETATM    3  C8  UNL     1      26.312   2.319  51.430  1.00  0.00     0.101 C 
HETATM    4  N1  UNL     1      26.868   3.067  50.743  1.00  0.00    -0.191 NA
HETATM    5  C9  UNL     1      26.354   0.413  52.901  1.00  0.00     0.140 A 
HETATM    6  N2  UNL     1      25.690  -0.471  53.698  1.00  0.00    -0.259 NA
HETATM    7  C10 UNL     1      24.357  -0.396  53.861  1.00  0.00     0.067 A 
HETATM    8  C11 UNL     1      23.676  -1.283  54.676  1.00  0.00     0.035 A 
HETATM    9  C12 UNL     1      22.293  -1.219  54.871  1.00  0.00     0.031 A 
HETATM   10  C13 UNL     1      21.585  -0.211  54.209  1.00  0.00     0.029 A 
HETATM   11  C16 UNL     1      22.302   0.650  53.408  1.00  0.00     0.043 A 
HETATM   12  C17 UNL     1      23.661   0.592  53.211  1.00  0.00     0.003 A 
ENDROOT
BRANCH   1  13
HETATM   13  C3  UNL     1      23.527   2.632  51.657  1.00  0.00     0.048 C 
BRANCH  13  14
HETATM   14  C2  UNL     1      23.985   3.988  51.965  1.00  0.00     0.003 C 
HETATM   15  C1  UNL     1      23.451   4.710  52.972  1.00  0.00     0.006 C 
ENDBRANCH  13  14
BRANCH  13  16
HETATM   16  C4  UNL     1      23.519   2.367  50.174  1.00  0.00    -0.010 C 
HETATM   17  C5  UNL     1      22.372   2.348  49.474  1.00  0.00     0.052 C 
HETATM   18 BR1  UNL     1      22.353   2.016  47.606  1.00  0.00    -0.064 Br
ENDBRANCH  13  16
ENDBRANCH   1  13
BRANCH  10  19
HETATM   19  N3  UNL     1      20.178  -0.128  54.395  1.00  0.00    -0.384 N 
HETATM   20  H10 UNL     1      19.823   0.037  55.369  1.00  0.00     0.160 HD
BRANCH  19  21
HETATM   21  C14 UNL     1      19.360  -0.284  53.194  1.00  0.00     0.189 C 
BRANCH  21  22
HETATM   22  C15 UNL     1      18.373  -1.384  53.400  1.00  0.00     0.250 C 
HETATM   23  O1  UNL     1      17.150  -1.305  53.276  1.00  0.00    -0.305 OA
ENDBRANCH  21  22
ENDBRANCH  19  21
ENDBRANCH  10  19
TORSDOF 6
ENDMDL
