MODEL 1
REMARK VINA RESULT:      -6.9      0.000      0.000
REMARK  7 active torsions:
REMARK  status: ('A' for Active; 'I' for Inactive)
REMARK    1  A    between atoms: C2_2  and  C3_3 
REMARK    2  A    between atoms: C4_4  and  C5_5 
REMARK    3  A    between atoms: C6_6  and  C7_7 
REMARK    4  A    between atoms: C7_7  and  S1_8 
REMARK    5  A    between atoms: S1_8  and  C8_9 
REMARK    6  A    between atoms: C9_12  and  C10_13 
REMARK    7  A    between atoms: C15_18  and  O1_19 
ROOT
HETATM    1  C8  UNL     1      24.779   2.444  51.957  1.00  0.00     0.231 A 
HETATM    2  N1  UNL     1      24.833   2.631  53.304  1.00  0.00    -0.114 NA
HETATM    3  N2  UNL     1      25.663   1.701  53.750  1.00  0.00    -0.120 NA
HETATM    4  C9  UNL     1      26.108   0.965  52.718  1.00  0.00     0.206 A 
HETATM    5  O2  UNL     1      25.555   1.434  51.616  1.00  0.00    -0.263 OA
ENDROOT
BRANCH   1   6
HETATM    6  S1  UNL     1      23.933   3.224  50.588  1.00  0.00    -0.079 SA
BRANCH   6   7
HETATM    7  C7  UNL     1      22.140   2.935  50.720  1.00  0.00     0.110 C 
BRANCH   7   8
HETATM    8  C6  UNL     1      21.838   1.676  50.014  1.00  0.00    -0.016 C 
HETATM    9  C5  UNL     1      21.578   0.512  50.560  1.00  0.00    -0.003 C 
BRANCH   9  10
HETATM   10  C4  UNL     1      21.548   0.280  51.988  1.00  0.00    -0.000 C 
HETATM   11  C3  UNL     1      22.571  -0.272  52.637  1.00  0.00    -0.001 C 
BRANCH  11  12
HETATM   12  C2  UNL     1      22.548  -0.512  54.089  1.00  0.00    -0.010 C 
HETATM   13  C1  UNL     1      21.522  -1.088  54.685  1.00  0.00     0.011 C 
ENDBRANCH  11  12
ENDBRANCH   9  10
ENDBRANCH   7   8
ENDBRANCH   6   7
ENDBRANCH   1   6
BRANCH   4  14
HETATM   14  C10 UNL     1      27.048  -0.163  52.840  1.00  0.00     0.052 A 
HETATM   15  C11 UNL     1      26.691  -1.482  52.628  1.00  0.00     0.019 A 
HETATM   16  C12 UNL     1      27.599  -2.512  52.753  1.00  0.00     0.001 A 
HETATM   17  C13 UNL     1      28.909  -2.250  53.099  1.00  0.00     0.003 A 
HETATM   18  C14 UNL     1      29.306  -0.936  53.320  1.00  0.00     0.038 A 
HETATM   19  C15 UNL     1      28.377   0.105  53.190  1.00  0.00     0.082 A 
BRANCH  19  20
HETATM   20  O1  UNL     1      28.714   1.435  53.398  1.00  0.00    -0.355 OA
HETATM   21  C16 UNL     1      29.366   1.765  54.609  1.00  0.00     0.210 C 
ENDBRANCH  19  20
ENDBRANCH   4  14
TORSDOF 7
ENDMDL
MODEL 2
REMARK VINA RESULT:      -6.8      1.908      3.064
REMARK  7 active torsions:
REMARK  status: ('A' for Active; 'I' for Inactive)
REMARK    1  A    between atoms: C2_2  and  C3_3 
REMARK    2  A    between atoms: C4_4  and  C5_5 
REMARK    3  A    between atoms: C6_6  and  C7_7 
REMARK    4  A    between atoms: C7_7  and  S1_8 
REMARK    5  A    between atoms: S1_8  and  C8_9 
REMARK    6  A    between atoms: C9_12  and  C10_13 
REMARK    7  A    between atoms: C15_18  and  O1_19 
ROOT
HETATM    1  C8  UNL     1      23.566   0.422  53.063  1.00  0.00     0.231 A 
HETATM    2  N1  UNL     1      24.072   1.213  52.077  1.00  0.00    -0.114 NA
HETATM    3  N2  UNL     1      25.351   0.883  51.991  1.00  0.00    -0.120 NA
HETATM    4  C9  UNL     1      25.628  -0.077  52.890  1.00  0.00     0.206 A 
HETATM    5  O2  UNL     1      24.518  -0.353  53.545  1.00  0.00    -0.263 OA
ENDROOT
BRANCH   1   6
HETATM    6  S1  UNL     1      21.966   0.195  53.830  1.00  0.00    -0.079 SA
BRANCH   6   7
HETATM    7  C7  UNL     1      20.740   1.287  53.044  1.00  0.00     0.110 C 
BRANCH   7   8
HETATM    8  C6  UNL     1      19.975   0.478  52.078  1.00  0.00    -0.016 C 
HETATM    9  C5  UNL     1      20.116   0.471  50.773  1.00  0.00    -0.003 C 
BRANCH   9  10
HETATM   10  C4  UNL     1      21.077   1.287  50.062  1.00  0.00    -0.000 C 
HETATM   11  C3  UNL     1      21.351   1.095  48.773  1.00  0.00    -0.001 C 
BRANCH  11  12
HETATM   12  C2  UNL     1      22.327   1.919  48.043  1.00  0.00    -0.010 C 
HETATM   13  C1  UNL     1      22.989   2.899  48.627  1.00  0.00     0.011 C 
ENDBRANCH  11  12
ENDBRANCH   9  10
ENDBRANCH   7   8
ENDBRANCH   6   7
ENDBRANCH   1   6
BRANCH   4  14
HETATM   14  C10 UNL     1      26.956  -0.687  53.078  1.00  0.00     0.052 A 
HETATM   15  C11 UNL     1      27.269  -1.975  52.683  1.00  0.00     0.019 A 
HETATM   16  C12 UNL     1      28.523  -2.513  52.877  1.00  0.00     0.001 A 
HETATM   17  C13 UNL     1      29.515  -1.770  53.482  1.00  0.00     0.003 A 
HETATM   18  C14 UNL     1      29.239  -0.471  53.894  1.00  0.00     0.038 A 
HETATM   19  C15 UNL     1      27.962   0.069  53.692  1.00  0.00     0.082 A 
BRANCH  19  20
HETATM   20  O1  UNL     1      27.627   1.357  54.082  1.00  0.00    -0.355 OA
HETATM   21  C16 UNL     1      28.409   2.421  53.574  1.00  0.00     0.210 C 
ENDBRANCH  19  20
ENDBRANCH   4  14
TORSDOF 7
ENDMDL
MODEL 3
REMARK VINA RESULT:      -6.7      2.789      4.599
REMARK  7 active torsions:
REMARK  status: ('A' for Active; 'I' for Inactive)
REMARK    1  A    between atoms: C2_2  and  C3_3 
REMARK    2  A    between atoms: C4_4  and  C5_5 
REMARK    3  A    between atoms: C6_6  and  C7_7 
REMARK    4  A    between atoms: C7_7  and  S1_8 
REMARK    5  A    between atoms: S1_8  and  C8_9 
REMARK    6  A    between atoms: C9_12  and  C10_13 
REMARK    7  A    between atoms: C15_18  and  O1_19 
ROOT
HETATM    1  C8  UNL     1      24.144   1.968  52.873  1.00  0.00     0.231 A 
HETATM    2  N1  UNL     1      23.425   0.821  53.012  1.00  0.00    -0.114 NA
HETATM    3  N2  UNL     1      24.327  -0.141  53.126  1.00  0.00    -0.120 NA
HETATM    4  C9  UNL     1      25.560   0.390  53.061  1.00  0.00     0.206 A 
HETATM    5  O2  UNL     1      25.433   1.693  52.905  1.00  0.00    -0.263 OA
ENDROOT
BRANCH   1   6
HETATM    6  S1  UNL     1      23.762   3.704  52.666  1.00  0.00    -0.079 SA
BRANCH   6   7
HETATM    7  C7  UNL     1      24.014   4.193  50.931  1.00  0.00     0.110 C 
BRANCH   7   8
HETATM    8  C6  UNL     1      24.823   3.143  50.285  1.00  0.00    -0.016 C 
HETATM    9  C5  UNL     1      25.925   3.313  49.594  1.00  0.00    -0.003 C 
BRANCH   9  10
HETATM   10  C4  UNL     1      26.535   4.604  49.354  1.00  0.00    -0.000 C 
HETATM   11  C3  UNL     1      27.633   4.741  48.614  1.00  0.00    -0.001 C 
BRANCH  11  12
HETATM   12  C2  UNL     1      28.260   6.049  48.367  1.00  0.00    -0.010 C 
HETATM   13  C1  UNL     1      27.580   7.068  47.879  1.00  0.00     0.011 C 
ENDBRANCH  11  12
ENDBRANCH   9  10
ENDBRANCH   7   8
ENDBRANCH   6   7
ENDBRANCH   1   6
BRANCH   4  14
HETATM   14  C10 UNL     1      26.809  -0.386  53.151  1.00  0.00     0.052 A 
HETATM   15  C11 UNL     1      26.934  -1.689  52.702  1.00  0.00     0.019 A 
HETATM   16  C12 UNL     1      28.119  -2.385  52.804  1.00  0.00     0.001 A 
HETATM   17  C13 UNL     1      29.230  -1.792  53.368  1.00  0.00     0.003 A 
HETATM   18  C14 UNL     1      29.144  -0.484  53.832  1.00  0.00     0.038 A 
HETATM   19  C15 UNL     1      27.935   0.216  53.724  1.00  0.00     0.082 A 
BRANCH  19  20
HETATM   20  O1  UNL     1      27.788   1.522  54.168  1.00  0.00    -0.355 OA
HETATM   21  C16 UNL     1      28.683   2.493  53.662  1.00  0.00     0.210 C 
ENDBRANCH  19  20
ENDBRANCH   4  14
TORSDOF 7
ENDMDL
MODEL 4
REMARK VINA RESULT:      -6.5      2.322      2.906
REMARK  7 active torsions:
REMARK  status: ('A' for Active; 'I' for Inactive)
REMARK    1  A    between atoms: C2_2  and  C3_3 
REMARK    2  A    between atoms: C4_4  and  C5_5 
REMARK    3  A    between atoms: C6_6  and  C7_7 
REMARK    4  A    between atoms: C7_7  and  S1_8 
REMARK    5  A    between atoms: S1_8  and  C8_9 
REMARK    6  A    between atoms: C9_12  and  C10_13 
REMARK    7  A    between atoms: C15_18  and  O1_19 
ROOT
HETATM    1  C8  UNL     1      25.576   4.150  50.392  1.00  0.00     0.231 A 
HETATM    2  N1  UNL     1      26.772   3.614  50.024  1.00  0.00    -0.114 NA
HETATM    3  N2  UNL     1      26.942   2.570  50.819  1.00  0.00    -0.120 NA
HETATM    4  C9  UNL     1      25.891   2.462  51.650  1.00  0.00     0.206 A 
HETATM    5  O2  UNL     1      25.054   3.443  51.375  1.00  0.00    -0.263 OA
ENDROOT
BRANCH   1   6
HETATM    6  S1  UNL     1      24.579   5.541  49.870  1.00  0.00    -0.079 SA
BRANCH   6   7
HETATM    7  C7  UNL     1      22.893   4.982  49.472  1.00  0.00     0.110 C 
BRANCH   7   8
HETATM    8  C6  UNL     1      22.997   3.986  48.391  1.00  0.00    -0.016 C 
HETATM    9  C5  UNL     1      22.817   2.690  48.496  1.00  0.00    -0.003 C 
BRANCH   9  10
HETATM   10  C4  UNL     1      22.477   2.022  49.734  1.00  0.00    -0.000 C 
HETATM   11  C3  UNL     1      21.601   1.020  49.780  1.00  0.00    -0.001 C 
BRANCH  11  12
HETATM   12  C2  UNL     1      21.249   0.336  51.034  1.00  0.00    -0.010 C 
HETATM   13  C1  UNL     1      21.203   0.973  52.188  1.00  0.00     0.011 C 
ENDBRANCH  11  12
ENDBRANCH   9  10
ENDBRANCH   7   8
ENDBRANCH   6   7
ENDBRANCH   1   6
BRANCH   4  14
HETATM   14  C10 UNL     1      25.740   1.414  52.674  1.00  0.00     0.052 A 
HETATM   15  C11 UNL     1      24.822   0.383  52.584  1.00  0.00     0.019 A 
HETATM   16  C12 UNL     1      24.708  -0.579  53.565  1.00  0.00     0.001 A 
HETATM   17  C13 UNL     1      25.519  -0.539  54.680  1.00  0.00     0.003 A 
HETATM   18  C14 UNL     1      26.454   0.482  54.807  1.00  0.00     0.038 A 
HETATM   19  C15 UNL     1      26.564   1.456  53.806  1.00  0.00     0.082 A 
BRANCH  19  20
HETATM   20  O1  UNL     1      27.477   2.499  53.876  1.00  0.00    -0.355 OA
HETATM   21  C16 UNL     1      28.852   2.169  53.859  1.00  0.00     0.210 C 
ENDBRANCH  19  20
ENDBRANCH   4  14
TORSDOF 7
ENDMDL
MODEL 5
REMARK VINA RESULT:      -6.5      1.683      2.610
REMARK  7 active torsions:
REMARK  status: ('A' for Active; 'I' for Inactive)
REMARK    1  A    between atoms: C2_2  and  C3_3 
REMARK    2  A    between atoms: C4_4  and  C5_5 
REMARK    3  A    between atoms: C6_6  and  C7_7 
REMARK    4  A    between atoms: C7_7  and  S1_8 
REMARK    5  A    between atoms: S1_8  and  C8_9 
REMARK    6  A    between atoms: C9_12  and  C10_13 
REMARK    7  A    between atoms: C15_18  and  O1_19 
ROOT
HETATM    1  C8  UNL     1      24.939   3.165  50.658  1.00  0.00     0.231 A 
HETATM    2  N1  UNL     1      26.019   3.431  49.875  1.00  0.00    -0.114 NA
HETATM    3  N2  UNL     1      27.057   2.944  50.538  1.00  0.00    -0.120 NA
HETATM    4  C9  UNL     1      26.635   2.396  51.690  1.00  0.00     0.206 A 
HETATM    5  O2  UNL     1      25.326   2.539  51.753  1.00  0.00    -0.263 OA
ENDROOT
BRANCH   1   6
HETATM    6  S1  UNL     1      23.177   3.454  50.554  1.00  0.00    -0.079 SA
BRANCH   6   7
HETATM    7  C7  UNL     1      22.306   2.434  51.784  1.00  0.00     0.110 C 
BRANCH   7   8
HETATM    8  C6  UNL     1      21.676   1.311  51.065  1.00  0.00    -0.016 C 
HETATM    9  C5  UNL     1      21.269   0.176  51.584  1.00  0.00    -0.003 C 
BRANCH   9  10
HETATM   10  C4  UNL     1      21.380  -0.155  52.988  1.00  0.00    -0.000 C 
HETATM   11  C3  UNL     1      22.033  -1.236  53.411  1.00  0.00    -0.001 C 
BRANCH  11  12
HETATM   12  C2  UNL     1      22.150  -1.580  54.837  1.00  0.00    -0.010 C 
HETATM   13  C1  UNL     1      23.246  -1.331  55.527  1.00  0.00     0.011 C 
ENDBRANCH  11  12
ENDBRANCH   9  10
ENDBRANCH   7   8
ENDBRANCH   6   7
ENDBRANCH   1   6
BRANCH   4  14
HETATM   14  C10 UNL     1      27.517   1.758  52.683  1.00  0.00     0.052 A 
HETATM   15  C11 UNL     1      28.389   2.461  53.494  1.00  0.00     0.019 A 
HETATM   16  C12 UNL     1      29.201   1.830  54.412  1.00  0.00     0.001 A 
HETATM   17  C13 UNL     1      29.166   0.457  54.548  1.00  0.00     0.003 A 
HETATM   18  C14 UNL     1      28.302  -0.284  53.750  1.00  0.00     0.038 A 
HETATM   19  C15 UNL     1      27.480   0.365  52.820  1.00  0.00     0.082 A 
BRANCH  19  20
HETATM   20  O1  UNL     1      26.598  -0.321  51.996  1.00  0.00    -0.355 OA
HETATM   21  C16 UNL     1      26.495  -1.721  52.167  1.00  0.00     0.210 C 
ENDBRANCH  19  20
ENDBRANCH   4  14
TORSDOF 7
ENDMDL
MODEL 6
REMARK VINA RESULT:      -6.4      2.647      5.788
REMARK  7 active torsions:
REMARK  status: ('A' for Active; 'I' for Inactive)
REMARK    1  A    between atoms: C2_2  and  C3_3 
REMARK    2  A    between atoms: C4_4  and  C5_5 
REMARK    3  A    between atoms: C6_6  and  C7_7 
REMARK    4  A    between atoms: C7_7  and  S1_8 
REMARK    5  A    between atoms: S1_8  and  C8_9 
REMARK    6  A    between atoms: C9_12  and  C10_13 
REMARK    7  A    between atoms: C15_18  and  O1_19 
ROOT
HETATM    1  C8  UNL     1      22.841   3.372  50.417  1.00  0.00     0.231 A 
HETATM    2  N1  UNL     1      22.687   2.379  49.499  1.00  0.00    -0.114 NA
HETATM    3  N2  UNL     1      22.479   1.281  50.208  1.00  0.00    -0.120 NA
HETATM    4  C9  UNL     1      22.504   1.581  51.518  1.00  0.00     0.206 A 
HETATM    5  O2  UNL     1      22.728   2.875  51.634  1.00  0.00    -0.263 OA
ENDROOT
BRANCH   1   6
HETATM    6  S1  UNL     1      23.149   5.133  50.362  1.00  0.00    -0.079 SA
BRANCH   6   7
HETATM    7  C7  UNL     1      24.938   5.454  50.457  1.00  0.00     0.110 C 
BRANCH   7   8
HETATM    8  C6  UNL     1      25.590   4.665  49.396  1.00  0.00    -0.016 C 
HETATM    9  C5  UNL     1      26.297   3.570  49.552  1.00  0.00    -0.003 C 
BRANCH   9  10
HETATM   10  C4  UNL     1      26.551   2.951  50.835  1.00  0.00    -0.000 C 
HETATM   11  C3  UNL     1      26.429   1.638  51.024  1.00  0.00    -0.001 C 
BRANCH  11  12
HETATM   12  C2  UNL     1      26.684   1.001  52.325  1.00  0.00    -0.010 C 
HETATM   13  C1  UNL     1      26.912  -0.293  52.436  1.00  0.00     0.011 C 
ENDBRANCH  11  12
ENDBRANCH   9  10
ENDBRANCH   7   8
ENDBRANCH   6   7
ENDBRANCH   1   6
BRANCH   4  14
HETATM   14  C10 UNL     1      22.311   0.603  52.603  1.00  0.00     0.052 A 
HETATM   15  C11 UNL     1      23.348   0.081  53.355  1.00  0.00     0.019 A 
HETATM   16  C12 UNL     1      23.130  -0.835  54.362  1.00  0.00     0.001 A 
HETATM   17  C13 UNL     1      21.851  -1.263  54.651  1.00  0.00     0.003 A 
HETATM   18  C14 UNL     1      20.782  -0.761  53.917  1.00  0.00     0.038 A 
HETATM   19  C15 UNL     1      21.012   0.169  52.895  1.00  0.00     0.082 A 
BRANCH  19  20
HETATM   20  O1  UNL     1      19.987   0.704  52.128  1.00  0.00    -0.355 OA
HETATM   21  C16 UNL     1      18.795  -0.047  52.010  1.00  0.00     0.210 C 
ENDBRANCH  19  20
ENDBRANCH   4  14
TORSDOF 7
ENDMDL
MODEL 7
REMARK VINA RESULT:      -6.2      3.708      6.388
REMARK  7 active torsions:
REMARK  status: ('A' for Active; 'I' for Inactive)
REMARK    1  A    between atoms: C2_2  and  C3_3 
REMARK    2  A    between atoms: C4_4  and  C5_5 
REMARK    3  A    between atoms: C6_6  and  C7_7 
REMARK    4  A    between atoms: C7_7  and  S1_8 
REMARK    5  A    between atoms: S1_8  and  C8_9 
REMARK    6  A    between atoms: C9_12  and  C10_13 
REMARK    7  A    between atoms: C15_18  and  O1_19 
ROOT
HETATM    1  C8  UNL     1      23.497   2.746  50.940  1.00  0.00     0.231 A 
HETATM    2  N1  UNL     1      23.034   2.643  49.664  1.00  0.00    -0.114 NA
HETATM    3  N2  UNL     1      23.863   3.375  48.935  1.00  0.00    -0.120 NA
HETATM    4  C9  UNL     1      24.804   3.912  49.730  1.00  0.00     0.206 A 
HETATM    5  O2  UNL     1      24.567   3.516  50.965  1.00  0.00    -0.263 OA
ENDROOT
BRANCH   1   6
HETATM    6  S1  UNL     1      23.009   2.102  52.536  1.00  0.00    -0.079 SA
BRANCH   6   7
HETATM    7  C7  UNL     1      24.441   1.341  53.362  1.00  0.00     0.110 C 
BRANCH   7   8
HETATM    8  C6  UNL     1      24.389  -0.109  53.100  1.00  0.00    -0.016 C 
HETATM    9  C5  UNL     1      25.366  -0.972  53.256  1.00  0.00    -0.003 C 
BRANCH   9  10
HETATM   10  C4  UNL     1      26.688  -0.616  53.725  1.00  0.00    -0.000 C 
HETATM   11  C3  UNL     1      27.791  -0.965  53.065  1.00  0.00    -0.001 C 
BRANCH  11  12
HETATM   12  C2  UNL     1      29.139  -0.609  53.536  1.00  0.00    -0.010 C 
HETATM   13  C1  UNL     1      29.510   0.646  53.704  1.00  0.00     0.011 C 
ENDBRANCH  11  12
ENDBRANCH   9  10
ENDBRANCH   7   8
ENDBRANCH   6   7
ENDBRANCH   1   6
BRANCH   4  14
HETATM   14  C10 UNL     1      25.893   4.787  49.262  1.00  0.00     0.052 A 
HETATM   15  C11 UNL     1      27.147   4.323  48.906  1.00  0.00     0.019 A 
HETATM   16  C12 UNL     1      28.143   5.172  48.473  1.00  0.00     0.001 A 
HETATM   17  C13 UNL     1      27.913   6.529  48.384  1.00  0.00     0.003 A 
HETATM   18  C14 UNL     1      26.665   7.034  48.733  1.00  0.00     0.038 A 
HETATM   19  C15 UNL     1      25.658   6.164  49.171  1.00  0.00     0.082 A 
BRANCH  19  20
HETATM   20  O1  UNL     1      24.395   6.608  49.534  1.00  0.00    -0.355 OA
HETATM   21  C16 UNL     1      24.293   7.442  50.671  1.00  0.00     0.210 C 
ENDBRANCH  19  20
ENDBRANCH   4  14
TORSDOF 7
ENDMDL
MODEL 8
REMARK VINA RESULT:      -6.1      2.784      6.531
REMARK  7 active torsions:
REMARK  status: ('A' for Active; 'I' for Inactive)
REMARK    1  A    between atoms: C2_2  and  C3_3 
REMARK    2  A    between atoms: C4_4  and  C5_5 
REMARK    3  A    between atoms: C6_6  and  C7_7 
REMARK    4  A    between atoms: C7_7  and  S1_8 
REMARK    5  A    between atoms: S1_8  and  C8_9 
REMARK    6  A    between atoms: C9_12  and  C10_13 
REMARK    7  A    between atoms: C15_18  and  O1_19 
ROOT
HETATM    1  C8  UNL     1      23.116   0.041  52.968  1.00  0.00     0.231 A 
HETATM    2  N1  UNL     1      21.770  -0.112  52.843  1.00  0.00    -0.114 NA
HETATM    3  N2  UNL     1      21.426   0.666  51.828  1.00  0.00    -0.120 NA
HETATM    4  C9  UNL     1      22.519   1.278  51.342  1.00  0.00     0.206 A 
HETATM    5  O2  UNL     1      23.556   0.884  52.055  1.00  0.00    -0.263 OA
ENDROOT
BRANCH   1   6
HETATM    6  S1  UNL     1      24.386  -0.613  54.045  1.00  0.00    -0.079 SA
BRANCH   6   7
HETATM    7  C7  UNL     1      26.031  -0.269  53.347  1.00  0.00     0.110 C 
BRANCH   7   8
HETATM    8  C6  UNL     1      26.548   0.946  54.002  1.00  0.00    -0.016 C 
HETATM    9  C5  UNL     1      27.015   2.020  53.409  1.00  0.00    -0.003 C 
BRANCH   9  10
HETATM   10  C4  UNL     1      27.095   2.178  51.973  1.00  0.00    -0.000 C 
HETATM   11  C3  UNL     1      26.169   2.841  51.282  1.00  0.00    -0.001 C 
BRANCH  11  12
HETATM   12  C2  UNL     1      26.241   3.005  49.822  1.00  0.00    -0.010 C 
HETATM   13  C1  UNL     1      26.823   4.049  49.265  1.00  0.00     0.011 C 
ENDBRANCH  11  12
ENDBRANCH   9  10
ENDBRANCH   7   8
ENDBRANCH   6   7
ENDBRANCH   1   6
BRANCH   4  14
HETATM   14  C10 UNL     1      22.515   2.220  50.209  1.00  0.00     0.052 A 
HETATM   15  C11 UNL     1      22.403   1.826  48.888  1.00  0.00     0.019 A 
HETATM   16  C12 UNL     1      22.404   2.737  47.853  1.00  0.00     0.001 A 
HETATM   17  C13 UNL     1      22.520   4.087  48.111  1.00  0.00     0.003 A 
HETATM   18  C14 UNL     1      22.635   4.522  49.427  1.00  0.00     0.038 A 
HETATM   19  C15 UNL     1      22.633   3.590  50.473  1.00  0.00     0.082 A 
BRANCH  19  20
HETATM   20  O1  UNL     1      22.745   3.963  51.804  1.00  0.00    -0.355 OA
HETATM   21  C16 UNL     1      23.327   5.221  52.087  1.00  0.00     0.210 C 
ENDBRANCH  19  20
ENDBRANCH   4  14
TORSDOF 7
ENDMDL
MODEL 9
REMARK VINA RESULT:      -6.1      4.238      6.484
REMARK  7 active torsions:
REMARK  status: ('A' for Active; 'I' for Inactive)
REMARK    1  A    between atoms: C2_2  and  C3_3 
REMARK    2  A    between atoms: C4_4  and  C5_5 
REMARK    3  A    between atoms: C6_6  and  C7_7 
REMARK    4  A    between atoms: C7_7  and  S1_8 
REMARK    5  A    between atoms: S1_8  and  C8_9 
REMARK    6  A    between atoms: C9_12  and  C10_13 
REMARK    7  A    between atoms: C15_18  and  O1_19 
ROOT
HETATM    1  C8  UNL     1      24.496   4.328  50.915  1.00  0.00     0.231 A 
HETATM    2  N1  UNL     1      23.815   4.836  51.979  1.00  0.00    -0.114 NA
HETATM    3  N2  UNL     1      23.861   3.890  52.904  1.00  0.00    -0.120 NA
HETATM    4  C9  UNL     1      24.545   2.834  52.431  1.00  0.00     0.206 A 
HETATM    5  O2  UNL     1      24.931   3.117  51.203  1.00  0.00    -0.263 OA
ENDROOT
BRANCH   1   6
HETATM    6  S1  UNL     1      24.924   4.900  49.276  1.00  0.00    -0.079 SA
BRANCH   6   7
HETATM    7  C7  UNL     1      26.731   4.887  49.065  1.00  0.00     0.110 C 
BRANCH   7   8
HETATM    8  C6  UNL     1      27.129   6.206  48.540  1.00  0.00    -0.016 C 
HETATM    9  C5  UNL     1      28.309   6.545  48.077  1.00  0.00    -0.003 C 
BRANCH   9  10
HETATM   10  C4  UNL     1      29.438   5.641  48.010  1.00  0.00    -0.000 C 
HETATM   11  C3  UNL     1      30.648   5.987  48.446  1.00  0.00    -0.001 C 
BRANCH  11  12
HETATM   12  C2  UNL     1      31.801   5.075  48.381  1.00  0.00    -0.010 C 
HETATM   13  C1  UNL     1      32.997   5.489  48.010  1.00  0.00     0.011 C 
ENDBRANCH  11  12
ENDBRANCH   9  10
ENDBRANCH   7   8
ENDBRANCH   6   7
ENDBRANCH   1   6
BRANCH   4  14
HETATM   14  C10 UNL     1      24.795   1.595  53.187  1.00  0.00     0.052 A 
HETATM   15  C11 UNL     1      23.904   0.537  53.238  1.00  0.00     0.019 A 
HETATM   16  C12 UNL     1      24.172  -0.608  53.958  1.00  0.00     0.001 A 
HETATM   17  C13 UNL     1      25.353  -0.731  54.659  1.00  0.00     0.003 A 
HETATM   18  C14 UNL     1      26.274   0.311  54.633  1.00  0.00     0.038 A 
HETATM   19  C15 UNL     1      25.994   1.471  53.898  1.00  0.00     0.082 A 
BRANCH  19  20
HETATM   20  O1  UNL     1      26.873   2.543  53.835  1.00  0.00    -0.355 OA
HETATM   21  C16 UNL     1      28.206   2.277  53.443  1.00  0.00     0.210 C 
ENDBRANCH  19  20
ENDBRANCH   4  14
TORSDOF 7
ENDMDL
