MODEL 1
REMARK VINA RESULT:      -6.3      0.000      0.000
REMARK  7 active torsions:
REMARK  status: ('A' for Active; 'I' for Inactive)
REMARK    1  A    between atoms: O1_2  and  C2_3 
REMARK    2  A    between atoms: C2_3  and  C3_4 
REMARK    3  A    between atoms: C3_4  and  N1_5 
REMARK       I    between atoms: N1_5  and  C4_6 
REMARK    4  A    between atoms: C4_6  and  C5_8 
REMARK    5  A    between atoms: C5_8  and  N2_9 
REMARK    6  A    between atoms: N2_9  and  C6_10 
REMARK    7  A    between atoms: N2_9  and  C12_18 
ROOT
HETATM    1  N2  UNL     1      23.132   1.973  51.811  1.00  0.00    -0.344 N 
ENDROOT
BRANCH   1   2
HETATM    2  C5  UNL     1      22.647   3.069  52.623  1.00  0.00     0.228 C 
BRANCH   2   3
HETATM    3  C4  UNL     1      23.055   4.398  52.160  1.00  0.00     0.235 C 
HETATM    4  N1  UNL     1      24.205   5.192  51.932  1.00  0.00    -0.358 N 
HETATM    5  H8  UNL     1      25.033   4.593  52.179  1.00  0.00     0.162 HD
HETATM    6  O2  UNL     1      21.957   5.004  51.877  1.00  0.00    -0.272 OA
BRANCH   4   7
HETATM    7  C3  UNL     1      24.081   6.529  51.443  1.00  0.00     0.148 C 
BRANCH   7   8
HETATM    8  C2  UNL     1      25.087   6.922  50.399  1.00  0.00     0.186 C 
BRANCH   8   9
HETATM    9  O1  UNL     1      25.836   5.869  49.907  1.00  0.00    -0.394 OA
HETATM   10  C1  UNL     1      26.424   6.114  48.686  1.00  0.00     0.201 C 
ENDBRANCH   8   9
ENDBRANCH   7   8
ENDBRANCH   4   7
ENDBRANCH   2   3
ENDBRANCH   1   2
BRANCH   1  11
HETATM   11  C6  UNL     1      24.292   1.245  52.213  1.00  0.00     0.054 A 
HETATM   12  C7  UNL     1      25.480   1.667  51.603  1.00  0.00     0.032 A 
HETATM   13  C8  UNL     1      26.700   1.077  51.885  1.00  0.00     0.021 A 
HETATM   14  C9  UNL     1      26.788   0.027  52.800  1.00  0.00     0.012 A 
HETATM   15 BR1  UNL     1      28.389  -0.877  53.287  1.00  0.00    -0.051 Br
HETATM   16  C10 UNL     1      25.628  -0.399  53.409  1.00  0.00     0.045 A 
HETATM   17  C11 UNL     1      24.437   0.209  53.105  1.00  0.00     0.061 A 
HETATM   18 CL1  UNL     1      22.969  -0.329  53.873  1.00  0.00    -0.082 Cl
ENDBRANCH   1  11
BRANCH   1  19
HETATM   19  C12 UNL     1      22.559   1.525  50.581  1.00  0.00     0.243 A 
HETATM   20  C13 UNL     1      22.501   2.529  49.503  1.00  0.00     0.104 A 
HETATM   21  C14 UNL     1      23.489   3.199  48.899  1.00  0.00     0.219 C 
HETATM   22  N3  UNL     1      21.139   2.767  49.086  1.00  0.00    -0.242 NA
HETATM   23  F1  UNL     1      23.342   4.113  47.908  1.00  0.00    -0.217 F 
HETATM   24  C15 UNL     1      20.361   1.990  49.797  1.00  0.00     0.207 A 
HETATM   25  N4  UNL     1      21.129   1.191  50.722  1.00  0.00    -0.353 N 
HETATM   26  C16 UNL     1      20.450   0.234  51.597  1.00  0.00     0.153 C 
ENDBRANCH   1  19
TORSDOF 7
ENDMDL
MODEL 2
REMARK VINA RESULT:      -6.3      1.958      2.219
REMARK  7 active torsions:
REMARK  status: ('A' for Active; 'I' for Inactive)
REMARK    1  A    between atoms: O1_2  and  C2_3 
REMARK    2  A    between atoms: C2_3  and  C3_4 
REMARK    3  A    between atoms: C3_4  and  N1_5 
REMARK       I    between atoms: N1_5  and  C4_6 
REMARK    4  A    between atoms: C4_6  and  C5_8 
REMARK    5  A    between atoms: C5_8  and  N2_9 
REMARK    6  A    between atoms: N2_9  and  C6_10 
REMARK    7  A    between atoms: N2_9  and  C12_18 
ROOT
HETATM    1  N2  UNL     1      23.349   2.644  51.535  1.00  0.00    -0.344 N 
ENDROOT
BRANCH   1   2
HETATM    2  C5  UNL     1      22.577   3.802  51.938  1.00  0.00     0.228 C 
BRANCH   2   3
HETATM    3  C4  UNL     1      23.125   5.085  51.488  1.00  0.00     0.235 C 
HETATM    4  N1  UNL     1      24.112   6.048  51.812  1.00  0.00    -0.358 N 
HETATM    5  H8  UNL     1      24.612   5.686  52.663  1.00  0.00     0.162 HD
HETATM    6  O2  UNL     1      22.442   5.390  50.443  1.00  0.00    -0.272 OA
BRANCH   4   7
HETATM    7  C3  UNL     1      24.270   7.223  51.015  1.00  0.00     0.148 C 
BRANCH   7   8
HETATM    8  C2  UNL     1      25.615   7.377  50.364  1.00  0.00     0.186 C 
BRANCH   8   9
HETATM    9  O1  UNL     1      25.895   8.661  49.937  1.00  0.00    -0.394 OA
HETATM   10  C1  UNL     1      27.174   9.086  50.221  1.00  0.00     0.201 C 
ENDBRANCH   8   9
ENDBRANCH   7   8
ENDBRANCH   4   7
ENDBRANCH   2   3
ENDBRANCH   1   2
BRANCH   1  11
HETATM   11  C6  UNL     1      24.695   2.492  51.984  1.00  0.00     0.054 A 
HETATM   12  C7  UNL     1      24.816   2.039  53.303  1.00  0.00     0.032 A 
HETATM   13  C8  UNL     1      26.049   1.828  53.896  1.00  0.00     0.021 A 
HETATM   14  C9  UNL     1      27.229   2.062  53.188  1.00  0.00     0.012 A 
HETATM   15 BR1  UNL     1      28.988   1.816  53.868  1.00  0.00    -0.051 Br
HETATM   16  C10 UNL     1      27.126   2.507  51.889  1.00  0.00     0.045 A 
HETATM   17  C11 UNL     1      25.887   2.706  51.334  1.00  0.00     0.061 A 
HETATM   18 CL1  UNL     1      25.755   3.270  49.692  1.00  0.00    -0.082 Cl
ENDBRANCH   1  11
BRANCH   1  19
HETATM   19  C12 UNL     1      22.894   1.590  50.684  1.00  0.00     0.243 A 
HETATM   20  C13 UNL     1      22.259   2.019  49.425  1.00  0.00     0.104 A 
HETATM   21  C14 UNL     1      22.757   2.739  48.413  1.00  0.00     0.219 C 
HETATM   22  N3  UNL     1      20.897   1.547  49.341  1.00  0.00    -0.242 NA
HETATM   23  F1  UNL     1      22.094   3.089  47.283  1.00  0.00    -0.217 F 
HETATM   24  C15 UNL     1      20.646   0.856  50.425  1.00  0.00     0.207 A 
HETATM   25  N4  UNL     1      21.797   0.815  51.294  1.00  0.00    -0.353 N 
HETATM   26  C16 UNL     1      21.735   0.071  52.553  1.00  0.00     0.153 C 
ENDBRANCH   1  19
TORSDOF 7
ENDMDL
MODEL 3
REMARK VINA RESULT:      -6.3      1.997      2.454
REMARK  7 active torsions:
REMARK  status: ('A' for Active; 'I' for Inactive)
REMARK    1  A    between atoms: O1_2  and  C2_3 
REMARK    2  A    between atoms: C2_3  and  C3_4 
REMARK    3  A    between atoms: C3_4  and  N1_5 
REMARK       I    between atoms: N1_5  and  C4_6 
REMARK    4  A    between atoms: C4_6  and  C5_8 
REMARK    5  A    between atoms: C5_8  and  N2_9 
REMARK    6  A    between atoms: N2_9  and  C6_10 
REMARK    7  A    between atoms: N2_9  and  C12_18 
ROOT
HETATM    1  N2  UNL     1      21.433   1.089  52.346  1.00  0.00    -0.344 N 
ENDROOT
BRANCH   1   2
HETATM    2  C5  UNL     1      20.899   2.246  53.034  1.00  0.00     0.228 C 
BRANCH   2   3
HETATM    3  C4  UNL     1      20.753   3.439  52.195  1.00  0.00     0.235 C 
HETATM    4  N1  UNL     1      21.512   4.382  51.460  1.00  0.00    -0.358 N 
HETATM    5  H8  UNL     1      22.519   4.097  51.562  1.00  0.00     0.162 HD
HETATM    6  O2  UNL     1      19.487   3.656  52.142  1.00  0.00    -0.272 OA
BRANCH   4   7
HETATM    7  C3  UNL     1      20.868   5.448  50.760  1.00  0.00     0.148 C 
BRANCH   7   8
HETATM    8  C2  UNL     1      21.615   6.751  50.755  1.00  0.00     0.186 C 
BRANCH   8   9
HETATM    9  O1  UNL     1      22.882   6.677  50.209  1.00  0.00    -0.394 OA
HETATM   10  C1  UNL     1      23.889   7.082  51.056  1.00  0.00     0.201 C 
ENDBRANCH   8   9
ENDBRANCH   7   8
ENDBRANCH   4   7
ENDBRANCH   2   3
ENDBRANCH   1   2
BRANCH   1  11
HETATM   11  C6  UNL     1      22.783   0.686  52.572  1.00  0.00     0.054 A 
HETATM   12  C7  UNL     1      23.731   1.392  51.820  1.00  0.00     0.032 A 
HETATM   13  C8  UNL     1      25.087   1.135  51.922  1.00  0.00     0.021 A 
HETATM   14  C9  UNL     1      25.563   0.151  52.790  1.00  0.00     0.012 A 
HETATM   15 BR1  UNL     1      27.392  -0.309  53.036  1.00  0.00    -0.051 Br
HETATM   16  C10 UNL     1      24.643  -0.552  53.537  1.00  0.00     0.045 A 
HETATM   17  C11 UNL     1      23.306  -0.271  53.410  1.00  0.00     0.061 A 
HETATM   18 CL1  UNL     1      22.142  -1.159  54.352  1.00  0.00    -0.082 Cl
ENDBRANCH   1  11
BRANCH   1  19
HETATM   19  C12 UNL     1      20.728   0.273  51.410  1.00  0.00     0.243 A 
HETATM   20  C13 UNL     1      20.468   0.891  50.097  1.00  0.00     0.104 A 
HETATM   21  C14 UNL     1      21.325   1.356  49.180  1.00  0.00     0.219 C 
HETATM   22  N3  UNL     1      19.051   0.968  49.829  1.00  0.00    -0.242 NA
HETATM   23  F1  UNL     1      20.993   1.914  47.990  1.00  0.00    -0.217 F 
HETATM   24  C15 UNL     1      18.422   0.438  50.849  1.00  0.00     0.207 A 
HETATM   25  N4  UNL     1      19.352  -0.022  51.851  1.00  0.00    -0.353 N 
HETATM   26  C16 UNL     1      18.854  -0.669  53.066  1.00  0.00     0.153 C 
ENDBRANCH   1  19
TORSDOF 7
ENDMDL
MODEL 4
REMARK VINA RESULT:      -6.3      3.376      5.131
REMARK  7 active torsions:
REMARK  status: ('A' for Active; 'I' for Inactive)
REMARK    1  A    between atoms: O1_2  and  C2_3 
REMARK    2  A    between atoms: C2_3  and  C3_4 
REMARK    3  A    between atoms: C3_4  and  N1_5 
REMARK       I    between atoms: N1_5  and  C4_6 
REMARK    4  A    between atoms: C4_6  and  C5_8 
REMARK    5  A    between atoms: C5_8  and  N2_9 
REMARK    6  A    between atoms: N2_9  and  C6_10 
REMARK    7  A    between atoms: N2_9  and  C12_18 
ROOT
HETATM    1  N2  UNL     1      23.868   2.098  52.317  1.00  0.00    -0.344 N 
ENDROOT
BRANCH   1   2
HETATM    2  C5  UNL     1      24.012   3.310  53.097  1.00  0.00     0.228 C 
BRANCH   2   3
HETATM    3  C4  UNL     1      23.742   4.546  52.356  1.00  0.00     0.235 C 
HETATM    4  N1  UNL     1      24.336   5.443  51.436  1.00  0.00    -0.358 N 
HETATM    5  H8  UNL     1      25.292   5.061  51.223  1.00  0.00     0.162 HD
HETATM    6  O2  UNL     1      22.548   4.882  52.693  1.00  0.00    -0.272 OA
BRANCH   4   7
HETATM    7  C3  UNL     1      23.623   6.594  50.978  1.00  0.00     0.148 C 
BRANCH   7   8
HETATM    8  C2  UNL     1      24.478   7.688  50.405  1.00  0.00     0.186 C 
BRANCH   8   9
HETATM    9  O1  UNL     1      25.835   7.436  50.462  1.00  0.00    -0.394 OA
HETATM   10  C1  UNL     1      26.624   8.484  50.041  1.00  0.00     0.201 C 
ENDBRANCH   8   9
ENDBRANCH   7   8
ENDBRANCH   4   7
ENDBRANCH   2   3
ENDBRANCH   1   2
BRANCH   1  11
HETATM   11  C6  UNL     1      22.600   1.751  51.764  1.00  0.00     0.054 A 
HETATM   12  C7  UNL     1      21.709   1.173  52.679  1.00  0.00     0.032 A 
HETATM   13  C8  UNL     1      20.432   0.784  52.314  1.00  0.00     0.021 A 
HETATM   14  C9  UNL     1      19.982   0.958  51.004  1.00  0.00     0.012 A 
HETATM   15 BR1  UNL     1      18.259   0.475  50.359  1.00  0.00    -0.051 Br
HETATM   16  C10 UNL     1      20.846   1.525  50.093  1.00  0.00     0.045 A 
HETATM   17  C11 UNL     1      22.104   1.898  50.490  1.00  0.00     0.061 A 
HETATM   18 CL1  UNL     1      23.198   2.615  49.340  1.00  0.00    -0.082 Cl
ENDBRANCH   1  11
BRANCH   1  19
HETATM   19  C12 UNL     1      24.905   1.156  52.037  1.00  0.00     0.243 A 
HETATM   20  C13 UNL     1      25.351   0.341  53.182  1.00  0.00     0.104 A 
HETATM   21  C14 UNL     1      24.662  -0.513  53.949  1.00  0.00     0.219 C 
HETATM   22  N3  UNL     1      26.754   0.545  53.452  1.00  0.00    -0.242 NA
HETATM   23  F1  UNL     1      25.158  -1.225  54.990  1.00  0.00    -0.217 F 
HETATM   24  C15 UNL     1      27.212   1.397  52.568  1.00  0.00     0.207 A 
HETATM   25  N4  UNL     1      26.171   1.814  51.661  1.00  0.00    -0.353 N 
HETATM   26  C16 UNL     1      26.478   2.750  50.578  1.00  0.00     0.153 C 
ENDBRANCH   1  19
TORSDOF 7
ENDMDL
MODEL 5
REMARK VINA RESULT:      -6.2      2.973      4.220
REMARK  7 active torsions:
REMARK  status: ('A' for Active; 'I' for Inactive)
REMARK    1  A    between atoms: O1_2  and  C2_3 
REMARK    2  A    between atoms: C2_3  and  C3_4 
REMARK    3  A    between atoms: C3_4  and  N1_5 
REMARK       I    between atoms: N1_5  and  C4_6 
REMARK    4  A    between atoms: C4_6  and  C5_8 
REMARK    5  A    between atoms: C5_8  and  N2_9 
REMARK    6  A    between atoms: N2_9  and  C6_10 
REMARK    7  A    between atoms: N2_9  and  C12_18 
ROOT
HETATM    1  N2  UNL     1      23.762   2.662  52.287  1.00  0.00    -0.344 N 
ENDROOT
BRANCH   1   2
HETATM    2  C5  UNL     1      23.862   3.905  53.025  1.00  0.00     0.228 C 
BRANCH   2   3
HETATM    3  C4  UNL     1      23.698   5.112  52.210  1.00  0.00     0.235 C 
HETATM    4  N1  UNL     1      24.444   6.112  51.540  1.00  0.00    -0.358 N 
HETATM    5  H8  UNL     1      25.458   5.875  51.688  1.00  0.00     0.162 HD
HETATM    6  O2  UNL     1      22.427   5.266  52.095  1.00  0.00    -0.272 OA
BRANCH   4   7
HETATM    7  C3  UNL     1      23.782   7.163  50.834  1.00  0.00     0.148 C 
BRANCH   7   8
HETATM    8  C2  UNL     1      24.689   8.212  50.255  1.00  0.00     0.186 C 
BRANCH   8   9
HETATM    9  O1  UNL     1      26.015   7.832  50.170  1.00  0.00    -0.394 OA
HETATM   10  C1  UNL     1      26.907   8.881  50.185  1.00  0.00     0.201 C 
ENDBRANCH   8   9
ENDBRANCH   7   8
ENDBRANCH   4   7
ENDBRANCH   2   3
ENDBRANCH   1   2
BRANCH   1  11
HETATM   11  C6  UNL     1      22.672   1.774  52.531  1.00  0.00     0.054 A 
HETATM   12  C7  UNL     1      21.433   2.239  52.072  1.00  0.00     0.032 A 
HETATM   13  C8  UNL     1      20.272   1.499  52.218  1.00  0.00     0.021 A 
HETATM   14  C9  UNL     1      20.298   0.248  52.835  1.00  0.00     0.012 A 
HETATM   15 BR1  UNL     1      18.789  -0.879  53.103  1.00  0.00    -0.051 Br
HETATM   16  C10 UNL     1      21.510  -0.224  53.291  1.00  0.00     0.045 A 
HETATM   17  C11 UNL     1      22.640   0.537  53.129  1.00  0.00     0.061 A 
HETATM   18 CL1  UNL     1      24.172  -0.057  53.706  1.00  0.00    -0.082 Cl
ENDBRANCH   1  11
BRANCH   1  19
HETATM   19  C12 UNL     1      24.686   2.198  51.302  1.00  0.00     0.243 A 
HETATM   20  C13 UNL     1      26.110   2.430  51.606  1.00  0.00     0.104 A 
HETATM   21  C14 UNL     1      26.852   1.998  52.633  1.00  0.00     0.219 C 
HETATM   22  N3  UNL     1      26.731   3.253  50.595  1.00  0.00    -0.242 NA
HETATM   23  F1  UNL     1      28.166   2.264  52.834  1.00  0.00    -0.217 F 
HETATM   24  C15 UNL     1      25.823   3.531  49.693  1.00  0.00     0.207 A 
HETATM   25  N4  UNL     1      24.556   2.926  50.026  1.00  0.00    -0.353 N 
HETATM   26  C16 UNL     1      23.409   3.095  49.133  1.00  0.00     0.153 C 
ENDBRANCH   1  19
TORSDOF 7
ENDMDL
MODEL 6
REMARK VINA RESULT:      -6.1      2.745      3.470
REMARK  7 active torsions:
REMARK  status: ('A' for Active; 'I' for Inactive)
REMARK    1  A    between atoms: O1_2  and  C2_3 
REMARK    2  A    between atoms: C2_3  and  C3_4 
REMARK    3  A    between atoms: C3_4  and  N1_5 
REMARK       I    between atoms: N1_5  and  C4_6 
REMARK    4  A    between atoms: C4_6  and  C5_8 
REMARK    5  A    between atoms: C5_8  and  N2_9 
REMARK    6  A    between atoms: N2_9  and  C6_10 
REMARK    7  A    between atoms: N2_9  and  C12_18 
ROOT
HETATM    1  N2  UNL     1      23.174   1.321  52.079  1.00  0.00    -0.344 N 
ENDROOT
BRANCH   1   2
HETATM    2  C5  UNL     1      22.970   1.345  50.645  1.00  0.00     0.228 C 
BRANCH   2   3
HETATM    3  C4  UNL     1      23.398   2.586  49.991  1.00  0.00     0.235 C 
HETATM    4  N1  UNL     1      24.307   3.662  50.133  1.00  0.00    -0.358 N 
HETATM    5  H8  UNL     1      24.855   3.474  51.010  1.00  0.00     0.162 HD
HETATM    6  O2  UNL     1      22.667   2.674  48.937  1.00  0.00    -0.272 OA
BRANCH   4   7
HETATM    7  C3  UNL     1      24.346   4.713  49.166  1.00  0.00     0.148 C 
BRANCH   7   8
HETATM    8  C2  UNL     1      25.621   5.507  49.138  1.00  0.00     0.186 C 
BRANCH   8   9
HETATM    9  O1  UNL     1      26.761   4.757  49.359  1.00  0.00    -0.394 OA
HETATM   10  C1  UNL     1      27.815   5.072  48.530  1.00  0.00     0.201 C 
ENDBRANCH   8   9
ENDBRANCH   7   8
ENDBRANCH   4   7
ENDBRANCH   2   3
ENDBRANCH   1   2
BRANCH   1  11
HETATM   11  C6  UNL     1      24.498   1.336  52.612  1.00  0.00     0.054 A 
HETATM   12  C7  UNL     1      25.222   0.157  52.396  1.00  0.00     0.032 A 
HETATM   13  C8  UNL     1      26.524   0.004  52.838  1.00  0.00     0.021 A 
HETATM   14  C9  UNL     1      27.169   1.034  53.524  1.00  0.00     0.012 A 
HETATM   15 BR1  UNL     1      28.950   0.970  54.188  1.00  0.00    -0.051 Br
HETATM   16  C10 UNL     1      26.470   2.201  53.744  1.00  0.00     0.045 A 
HETATM   17  C11 UNL     1      25.181   2.317  53.291  1.00  0.00     0.061 A 
HETATM   18 CL1  UNL     1      24.295   3.791  53.569  1.00  0.00    -0.082 Cl
ENDBRANCH   1  11
BRANCH   1  19
HETATM   19  C12 UNL     1      22.146   1.266  53.069  1.00  0.00     0.243 A 
HETATM   20  C13 UNL     1      21.578  -0.071  53.323  1.00  0.00     0.104 A 
HETATM   21  C14 UNL     1      22.173  -1.190  53.753  1.00  0.00     0.219 C 
HETATM   22  N3  UNL     1      20.160  -0.095  53.049  1.00  0.00    -0.242 NA
HETATM   23  F1  UNL     1      21.566  -2.385  53.959  1.00  0.00    -0.217 F 
HETATM   24  C15 UNL     1      19.806   1.107  52.667  1.00  0.00     0.207 A 
HETATM   25  N4  UNL     1      20.936   2.004  52.659  1.00  0.00    -0.353 N 
HETATM   26  C16 UNL     1      20.752   3.407  52.284  1.00  0.00     0.153 C 
ENDBRANCH   1  19
TORSDOF 7
ENDMDL
MODEL 7
REMARK VINA RESULT:      -6.1      2.535      4.577
REMARK  7 active torsions:
REMARK  status: ('A' for Active; 'I' for Inactive)
REMARK    1  A    between atoms: O1_2  and  C2_3 
REMARK    2  A    between atoms: C2_3  and  C3_4 
REMARK    3  A    between atoms: C3_4  and  N1_5 
REMARK       I    between atoms: N1_5  and  C4_6 
REMARK    4  A    between atoms: C4_6  and  C5_8 
REMARK    5  A    between atoms: C5_8  and  N2_9 
REMARK    6  A    between atoms: N2_9  and  C6_10 
REMARK    7  A    between atoms: N2_9  and  C12_18 
ROOT
HETATM    1  N2  UNL     1      22.748   3.207  50.806  1.00  0.00    -0.344 N 
ENDROOT
BRANCH   1   2
HETATM    2  C5  UNL     1      21.420   3.634  51.194  1.00  0.00     0.228 C 
BRANCH   2   3
HETATM    3  C4  UNL     1      20.565   2.564  51.719  1.00  0.00     0.235 C 
HETATM    4  N1  UNL     1      20.230   1.205  51.509  1.00  0.00    -0.358 N 
HETATM    5  H8  UNL     1      20.818   0.875  50.702  1.00  0.00     0.162 HD
HETATM    6  O2  UNL     1      19.929   3.098  52.700  1.00  0.00    -0.272 OA
BRANCH   4   7
HETATM    7  C3  UNL     1      19.264   0.557  52.339  1.00  0.00     0.148 C 
BRANCH   7   8
HETATM    8  C2  UNL     1      19.829  -0.416  53.335  1.00  0.00     0.186 C 
BRANCH   8   9
HETATM    9  O1  UNL     1      20.548   0.173  54.358  1.00  0.00    -0.394 OA
HETATM   10  C1  UNL     1      21.771  -0.412  54.600  1.00  0.00     0.201 C 
ENDBRANCH   8   9
ENDBRANCH   7   8
ENDBRANCH   4   7
ENDBRANCH   2   3
ENDBRANCH   1   2
BRANCH   1  11
HETATM   11  C6  UNL     1      23.626   2.635  51.775  1.00  0.00     0.054 A 
HETATM   12  C7  UNL     1      23.954   1.294  51.539  1.00  0.00     0.032 A 
HETATM   13  C8  UNL     1      24.800   0.587  52.375  1.00  0.00     0.021 A 
HETATM   14  C9  UNL     1      25.364   1.196  53.497  1.00  0.00     0.012 A 
HETATM   15 BR1  UNL     1      26.542   0.354  54.731  1.00  0.00    -0.051 Br
HETATM   16  C10 UNL     1      25.052   2.515  53.743  1.00  0.00     0.045 A 
HETATM   17  C11 UNL     1      24.208   3.184  52.893  1.00  0.00     0.061 A 
HETATM   18 CL1  UNL     1      23.811   4.851  53.203  1.00  0.00    -0.082 Cl
ENDBRANCH   1  11
BRANCH   1  19
HETATM   19  C12 UNL     1      23.311   3.311  49.497  1.00  0.00     0.243 A 
HETATM   20  C13 UNL     1      23.501   4.684  48.994  1.00  0.00     0.104 A 
HETATM   21  C14 UNL     1      24.239   5.686  49.487  1.00  0.00     0.219 C 
HETATM   22  N3  UNL     1      22.749   4.903  47.781  1.00  0.00    -0.242 NA
HETATM   23  F1  UNL     1      24.355   6.927  48.954  1.00  0.00    -0.217 F 
HETATM   24  C15 UNL     1      22.131   3.786  47.487  1.00  0.00     0.207 A 
HETATM   25  N4  UNL     1      22.419   2.761  48.460  1.00  0.00    -0.353 N 
HETATM   26  C16 UNL     1      21.843   1.424  48.303  1.00  0.00     0.153 C 
ENDBRANCH   1  19
TORSDOF 7
ENDMDL
MODEL 8
REMARK VINA RESULT:      -6.0      3.243      5.109
REMARK  7 active torsions:
REMARK  status: ('A' for Active; 'I' for Inactive)
REMARK    1  A    between atoms: O1_2  and  C2_3 
REMARK    2  A    between atoms: C2_3  and  C3_4 
REMARK    3  A    between atoms: C3_4  and  N1_5 
REMARK       I    between atoms: N1_5  and  C4_6 
REMARK    4  A    between atoms: C4_6  and  C5_8 
REMARK    5  A    between atoms: C5_8  and  N2_9 
REMARK    6  A    between atoms: N2_9  and  C6_10 
REMARK    7  A    between atoms: N2_9  and  C12_18 
ROOT
HETATM    1  N2  UNL     1      23.088   2.665  51.017  1.00  0.00    -0.344 N 
ENDROOT
BRANCH   1   2
HETATM    2  C5  UNL     1      24.408   2.156  50.709  1.00  0.00     0.228 C 
BRANCH   2   3
HETATM    3  C4  UNL     1      25.288   2.002  51.871  1.00  0.00     0.235 C 
HETATM    4  N1  UNL     1      26.010   2.756  52.827  1.00  0.00    -0.358 N 
HETATM    5  H8  UNL     1      25.825   3.768  52.609  1.00  0.00     0.162 HD
HETATM    6  O2  UNL     1      25.407   0.732  52.032  1.00  0.00    -0.272 OA
BRANCH   4   7
HETATM    7  C3  UNL     1      26.782   2.103  53.837  1.00  0.00     0.148 C 
BRANCH   7   8
HETATM    8  C2  UNL     1      28.271   2.196  53.661  1.00  0.00     0.186 C 
BRANCH   8   9
HETATM    9  O1  UNL     1      28.999   1.517  54.620  1.00  0.00    -0.394 OA
HETATM   10  C1  UNL     1      28.668   0.186  54.744  1.00  0.00     0.201 C 
ENDBRANCH   8   9
ENDBRANCH   7   8
ENDBRANCH   4   7
ENDBRANCH   2   3
ENDBRANCH   1   2
BRANCH   1  11
HETATM   11  C6  UNL     1      22.063   1.773  51.452  1.00  0.00     0.054 A 
HETATM   12  C7  UNL     1      21.990   1.611  52.842  1.00  0.00     0.032 A 
HETATM   13  C8  UNL     1      21.049   0.789  53.436  1.00  0.00     0.021 A 
HETATM   14  C9  UNL     1      20.126   0.085  52.661  1.00  0.00     0.012 A 
HETATM   15 BR1  UNL     1      18.779  -1.075  53.335  1.00  0.00    -0.051 Br
HETATM   16  C10 UNL     1      20.184   0.235  51.292  1.00  0.00     0.045 A 
HETATM   17  C11 UNL     1      21.131   1.058  50.738  1.00  0.00     0.061 A 
HETATM   18 CL1  UNL     1      21.207   1.248  49.008  1.00  0.00    -0.082 Cl
ENDBRANCH   1  11
BRANCH   1  19
HETATM   19  C12 UNL     1      22.672   4.028  50.914  1.00  0.00     0.243 A 
HETATM   20  C13 UNL     1      23.017   4.706  49.651  1.00  0.00     0.104 A 
HETATM   21  C14 UNL     1      22.665   4.412  48.394  1.00  0.00     0.219 C 
HETATM   22  N3  UNL     1      23.862   5.852  49.889  1.00  0.00    -0.242 NA
HETATM   23  F1  UNL     1      23.034   5.097  47.284  1.00  0.00    -0.217 F 
HETATM   24  C15 UNL     1      24.051   5.948  51.182  1.00  0.00     0.207 A 
HETATM   25  N4  UNL     1      23.360   4.896  51.888  1.00  0.00    -0.353 N 
HETATM   26  C16 UNL     1      23.423   4.835  53.349  1.00  0.00     0.153 C 
ENDBRANCH   1  19
TORSDOF 7
ENDMDL
MODEL 9
REMARK VINA RESULT:      -5.9      3.478      5.710
REMARK  7 active torsions:
REMARK  status: ('A' for Active; 'I' for Inactive)
REMARK    1  A    between atoms: O1_2  and  C2_3 
REMARK    2  A    between atoms: C2_3  and  C3_4 
REMARK    3  A    between atoms: C3_4  and  N1_5 
REMARK       I    between atoms: N1_5  and  C4_6 
REMARK    4  A    between atoms: C4_6  and  C5_8 
REMARK    5  A    between atoms: C5_8  and  N2_9 
REMARK    6  A    between atoms: N2_9  and  C6_10 
REMARK    7  A    between atoms: N2_9  and  C12_18 
ROOT
HETATM    1  N2  UNL     1      23.209   3.612  51.436  1.00  0.00    -0.344 N 
ENDROOT
BRANCH   1   2
HETATM    2  C5  UNL     1      24.013   3.468  52.632  1.00  0.00     0.228 C 
BRANCH   2   3
HETATM    3  C4  UNL     1      24.904   2.303  52.629  1.00  0.00     0.235 C 
HETATM    4  N1  UNL     1      25.150   1.093  51.936  1.00  0.00    -0.358 N 
HETATM    5  H8  UNL     1      24.446   1.048  51.157  1.00  0.00     0.162 HD
HETATM    6  O2  UNL     1      25.714   2.502  53.607  1.00  0.00    -0.272 OA
BRANCH   4   7
HETATM    7  C3  UNL     1      26.208   0.224  52.345  1.00  0.00     0.148 C 
BRANCH   7   8
HETATM    8  C2  UNL     1      25.831  -0.796  53.382  1.00  0.00     0.186 C 
BRANCH   8   9
HETATM    9  O1  UNL     1      26.700  -0.863  54.454  1.00  0.00    -0.394 OA
HETATM   10  C1  UNL     1      27.836  -0.098  54.310  1.00  0.00     0.201 C 
ENDBRANCH   8   9
ENDBRANCH   7   8
ENDBRANCH   4   7
ENDBRANCH   2   3
ENDBRANCH   1   2
BRANCH   1  11
HETATM   11  C6  UNL     1      22.064   2.783  51.242  1.00  0.00     0.054 A 
HETATM   12  C7  UNL     1      21.171   2.768  52.321  1.00  0.00     0.032 A 
HETATM   13  C8  UNL     1      20.005   2.023  52.298  1.00  0.00     0.021 A 
HETATM   14  C9  UNL     1      19.674   1.253  51.182  1.00  0.00     0.012 A 
HETATM   15 BR1  UNL     1      18.110   0.185  51.006  1.00  0.00    -0.051 Br
HETATM   16  C10 UNL     1      20.542   1.258  50.112  1.00  0.00     0.045 A 
HETATM   17  C11 UNL     1      21.689   2.007  50.171  1.00  0.00     0.061 A 
HETATM   18 CL1  UNL     1      22.788   2.014  48.819  1.00  0.00    -0.082 Cl
ENDBRANCH   1  11
BRANCH   1  19
HETATM   19  C12 UNL     1      23.453   4.530  50.369  1.00  0.00     0.243 A 
HETATM   20  C13 UNL     1      24.870   4.725  50.010  1.00  0.00     0.104 A 
HETATM   21  C14 UNL     1      25.775   3.841  49.574  1.00  0.00     0.219 C 
HETATM   22  N3  UNL     1      25.264   6.104  50.174  1.00  0.00    -0.242 NA
HETATM   23  F1  UNL     1      27.067   4.111  49.265  1.00  0.00    -0.217 F 
HETATM   24  C15 UNL     1      24.216   6.774  50.584  1.00  0.00     0.207 A 
HETATM   25  N4  UNL     1      23.068   5.910  50.721  1.00  0.00    -0.353 N 
HETATM   26  C16 UNL     1      21.783   6.466  51.147  1.00  0.00     0.153 C 
ENDBRANCH   1  19
TORSDOF 7
ENDMDL
