MODEL 1
REMARK VINA RESULT:      -8.0      0.000      0.000
REMARK  8 active torsions:
REMARK  status: ('A' for Active; 'I' for Inactive)
REMARK    1  A    between atoms: C4_6  and  C5_7 
REMARK    2  A    between atoms: C5_7  and  C6_8 
REMARK    3  A    between atoms: C6_8  and  C7_9 
REMARK    4  A    between atoms: C7_9  and  O2_11 
REMARK    5  A    between atoms: C15_21  and  C16_22 
REMARK    6  A    between atoms: C16_22  and  C17_23 
REMARK    7  A    between atoms: C17_23  and  C18_24 
REMARK    8  A    between atoms: C18_24  and  O4_26 
ROOT
HETATM    1  C1  UNL     1      20.855   2.569  50.470  1.00  0.00     0.152 C 
HETATM    2  N1  UNL     1      21.449   2.047  51.692  1.00  0.00    -0.363 N 
HETATM    3  C2  UNL     1      22.449   2.931  52.308  1.00  0.00     0.256 C 
HETATM    4  N2  UNL     1      23.786   2.501  51.913  1.00  0.00    -0.323 N 
HETATM    5  C3  UNL     1      24.455   1.410  52.295  1.00  0.00     0.092 A 
HETATM    6  C4  UNL     1      25.710   1.391  51.659  1.00  0.00    -0.011 A 
HETATM    7  C8  UNL     1      25.666   2.545  50.914  1.00  0.00    -0.000 A 
HETATM    8  C9  UNL     1      26.654   3.014  50.089  1.00  0.00     0.014 A 
HETATM    9  C10 UNL     1      26.480   4.188  49.397  1.00  0.00     0.001 A 
HETATM   10  C11 UNL     1      25.313   4.881  49.539  1.00  0.00     0.002 A 
HETATM   11  C12 UNL     1      24.281   4.430  50.373  1.00  0.00     0.030 A 
HETATM   12  C13 UNL     1      24.490   3.247  51.054  1.00  0.00     0.047 A 
HETATM   13  S1  UNL     1      23.812   0.194  53.455  1.00  0.00    -0.032 SA
HETATM   14  S2  UNL     1      21.896  -0.489  52.975  1.00  0.00    -0.034 SA
HETATM   15  C14 UNL     1      20.946   0.748  52.070  1.00  0.00     0.076 C 
HETATM   16  C15 UNL     1      19.727   0.415  51.751  1.00  0.00     0.011 C 
ENDROOT
BRANCH  16  17
HETATM   17  C16 UNL     1      18.420   0.623  51.162  1.00  0.00     0.040 C 
BRANCH  17  18
HETATM   18  C17 UNL     1      17.511  -0.589  51.295  1.00  0.00     0.113 C 
BRANCH  18  19
HETATM   19  C18 UNL     1      17.211  -0.793  52.726  1.00  0.00     0.139 C 
HETATM   20  O3  UNL     1      16.122  -0.312  53.157  1.00  0.00    -0.650 OA
BRANCH  19  21
HETATM   21  O4  UNL     1      17.453  -1.243  53.976  1.00  0.00    -0.776 OA
HETATM   22  H20 UNL     1      18.318  -1.181  54.491  1.00  0.00     0.167 HD
ENDBRANCH  19  21
ENDBRANCH  18  19
ENDBRANCH  17  18
ENDBRANCH  16  17
BRANCH   6  23
HETATM   23  C5  UNL     1      26.588   0.280  51.938  1.00  0.00     0.053 C 
BRANCH  23  24
HETATM   24  C6  UNL     1      27.765   0.484  52.809  1.00  0.00     0.115 C 
BRANCH  24  25
HETATM   25  C7  UNL     1      27.598   1.488  53.859  1.00  0.00     0.139 C 
HETATM   26  O1  UNL     1      27.109   1.060  54.947  1.00  0.00    -0.650 OA
BRANCH  25  27
HETATM   27  O2  UNL     1      27.786   2.814  54.125  1.00  0.00    -0.776 OA
HETATM   28  H10 UNL     1      28.504   3.104  54.802  1.00  0.00     0.167 HD
ENDBRANCH  25  27
ENDBRANCH  24  25
ENDBRANCH  23  24
ENDBRANCH   6  23
TORSDOF 8
ENDMDL
MODEL 2
REMARK VINA RESULT:      -7.7      3.749      7.667
REMARK  8 active torsions:
REMARK  status: ('A' for Active; 'I' for Inactive)
REMARK    1  A    between atoms: C4_6  and  C5_7 
REMARK    2  A    between atoms: C5_7  and  C6_8 
REMARK    3  A    between atoms: C6_8  and  C7_9 
REMARK    4  A    between atoms: C7_9  and  O2_11 
REMARK    5  A    between atoms: C15_21  and  C16_22 
REMARK    6  A    between atoms: C16_22  and  C17_23 
REMARK    7  A    between atoms: C17_23  and  C18_24 
REMARK    8  A    between atoms: C18_24  and  O4_26 
ROOT
HETATM    1  C1  UNL     1      24.714  -0.042  53.569  1.00  0.00     0.152 C 
HETATM    2  N1  UNL     1      24.919   1.245  52.922  1.00  0.00    -0.363 N 
HETATM    3  C2  UNL     1      23.748   2.134  52.951  1.00  0.00     0.256 C 
HETATM    4  N2  UNL     1      23.027   2.030  51.687  1.00  0.00    -0.323 N 
HETATM    5  C3  UNL     1      23.392   2.481  50.484  1.00  0.00     0.092 A 
HETATM    6  C4  UNL     1      22.395   2.152  49.546  1.00  0.00    -0.011 A 
HETATM    7  C8  UNL     1      21.476   1.496  50.330  1.00  0.00    -0.000 A 
HETATM    8  C9  UNL     1      20.291   0.954  49.906  1.00  0.00     0.014 A 
HETATM    9  C10 UNL     1      19.460   0.322  50.799  1.00  0.00     0.001 A 
HETATM   10  C11 UNL     1      19.828   0.237  52.110  1.00  0.00     0.002 A 
HETATM   11  C12 UNL     1      21.033   0.779  52.578  1.00  0.00     0.030 A 
HETATM   12  C13 UNL     1      21.843   1.408  51.654  1.00  0.00     0.047 A 
HETATM   13  S1  UNL     1      24.920   3.377  50.168  1.00  0.00    -0.032 SA
HETATM   14  S2  UNL     1      26.619   2.424  50.922  1.00  0.00    -0.034 SA
HETATM   15  C14 UNL     1      26.241   1.409  52.364  1.00  0.00     0.076 C 
HETATM   16  C15 UNL     1      27.249   0.796  52.916  1.00  0.00     0.011 C 
ENDROOT
BRANCH  16  17
HETATM   17  C16 UNL     1      27.891  -0.063  53.889  1.00  0.00     0.040 C 
BRANCH  17  18
HETATM   18  C17 UNL     1      29.018  -0.893  53.295  1.00  0.00     0.113 C 
BRANCH  18  19
HETATM   19  C18 UNL     1      28.581  -2.302  53.241  1.00  0.00     0.139 C 
HETATM   20  O3  UNL     1      27.394  -2.520  52.854  1.00  0.00    -0.650 OA
BRANCH  19  21
HETATM   21  O4  UNL     1      28.730  -3.637  53.381  1.00  0.00    -0.776 OA
HETATM   22  H20 UNL     1      29.433  -4.120  53.920  1.00  0.00     0.167 HD
ENDBRANCH  19  21
ENDBRANCH  18  19
ENDBRANCH  17  18
ENDBRANCH  16  17
BRANCH   6  23
HETATM   23  C5  UNL     1      22.605   2.550  48.174  1.00  0.00     0.053 C 
BRANCH  23  24
HETATM   24  C6  UNL     1      21.973   3.789  47.673  1.00  0.00     0.115 C 
BRANCH  24  25
HETATM   25  C7  UNL     1      21.579   3.764  46.266  1.00  0.00     0.139 C 
HETATM   26  O1  UNL     1      20.346   3.952  46.044  1.00  0.00    -0.650 OA
BRANCH  25  27
HETATM   27  O2  UNL     1      22.081   3.601  45.006  1.00  0.00    -0.776 OA
HETATM   28  H10 UNL     1      21.517   3.131  44.286  1.00  0.00     0.167 HD
ENDBRANCH  25  27
ENDBRANCH  24  25
ENDBRANCH  23  24
ENDBRANCH   6  23
TORSDOF 8
ENDMDL
MODEL 3
REMARK VINA RESULT:      -7.6      4.153      6.542
REMARK  8 active torsions:
REMARK  status: ('A' for Active; 'I' for Inactive)
REMARK    1  A    between atoms: C4_6  and  C5_7 
REMARK    2  A    between atoms: C5_7  and  C6_8 
REMARK    3  A    between atoms: C6_8  and  C7_9 
REMARK    4  A    between atoms: C7_9  and  O2_11 
REMARK    5  A    between atoms: C15_21  and  C16_22 
REMARK    6  A    between atoms: C16_22  and  C17_23 
REMARK    7  A    between atoms: C17_23  and  C18_24 
REMARK    8  A    between atoms: C18_24  and  O4_26 
ROOT
HETATM    1  C1  UNL     1      22.048   3.866  51.780  1.00  0.00     0.152 C 
HETATM    2  N1  UNL     1      23.168   3.164  51.172  1.00  0.00    -0.363 N 
HETATM    3  C2  UNL     1      22.914   1.743  50.891  1.00  0.00     0.256 C 
HETATM    4  N2  UNL     1      23.466   0.928  51.968  1.00  0.00    -0.323 N 
HETATM    5  C3  UNL     1      24.748   0.686  52.253  1.00  0.00     0.092 A 
HETATM    6  C4  UNL     1      24.820  -0.147  53.385  1.00  0.00    -0.011 A 
HETATM    7  C8  UNL     1      23.491  -0.333  53.684  1.00  0.00    -0.000 A 
HETATM    8  C9  UNL     1      22.991  -1.078  54.719  1.00  0.00     0.014 A 
HETATM    9  C10 UNL     1      21.633  -1.180  54.906  1.00  0.00     0.001 A 
HETATM   10  C11 UNL     1      20.790  -0.531  54.052  1.00  0.00     0.002 A 
HETATM   11  C12 UNL     1      21.267   0.240  52.984  1.00  0.00     0.030 A 
HETATM   12  C13 UNL     1      22.637   0.321  52.825  1.00  0.00     0.047 A 
HETATM   13  S1  UNL     1      26.128   1.334  51.298  1.00  0.00    -0.032 SA
HETATM   14  S2  UNL     1      26.030   3.396  50.979  1.00  0.00    -0.034 SA
HETATM   15  C14 UNL     1      24.329   3.996  50.962  1.00  0.00     0.076 C 
HETATM   16  C15 UNL     1      24.172   5.271  50.744  1.00  0.00     0.011 C 
ENDROOT
BRANCH  16  17
HETATM   17  C16 UNL     1      23.408   6.489  50.567  1.00  0.00     0.040 C 
BRANCH  17  18
HETATM   18  C17 UNL     1      24.223   7.744  50.836  1.00  0.00     0.113 C 
BRANCH  18  19
HETATM   19  C18 UNL     1      25.504   7.633  50.110  1.00  0.00     0.139 C 
HETATM   20  O3  UNL     1      25.489   7.911  48.875  1.00  0.00    -0.650 OA
BRANCH  19  21
HETATM   21  O4  UNL     1      26.825   7.378  49.989  1.00  0.00    -0.776 OA
HETATM   22  H20 UNL     1      27.588   8.012  50.168  1.00  0.00     0.167 HD
ENDBRANCH  19  21
ENDBRANCH  18  19
ENDBRANCH  17  18
ENDBRANCH  16  17
BRANCH   6  23
HETATM   23  C5  UNL     1      26.130  -0.524  53.861  1.00  0.00     0.053 C 
BRANCH  23  24
HETATM   24  C6  UNL     1      26.831   0.350  54.826  1.00  0.00     0.115 C 
BRANCH  24  25
HETATM   25  C7  UNL     1      28.290   0.299  54.769  1.00  0.00     0.139 C 
HETATM   26  O1  UNL     1      28.889   1.308  55.246  1.00  0.00    -0.650 OA
BRANCH  25  27
HETATM   27  O2  UNL     1      29.329  -0.492  54.364  1.00  0.00    -0.776 OA
HETATM   28  H10 UNL     1      29.281  -1.509  54.500  1.00  0.00     0.167 HD
ENDBRANCH  25  27
ENDBRANCH  24  25
ENDBRANCH  23  24
ENDBRANCH   6  23
TORSDOF 8
ENDMDL
MODEL 4
REMARK VINA RESULT:      -7.4      3.866      5.734
REMARK  8 active torsions:
REMARK  status: ('A' for Active; 'I' for Inactive)
REMARK    1  A    between atoms: C4_6  and  C5_7 
REMARK    2  A    between atoms: C5_7  and  C6_8 
REMARK    3  A    between atoms: C6_8  and  C7_9 
REMARK    4  A    between atoms: C7_9  and  O2_11 
REMARK    5  A    between atoms: C15_21  and  C16_22 
REMARK    6  A    between atoms: C16_22  and  C17_23 
REMARK    7  A    between atoms: C17_23  and  C18_24 
REMARK    8  A    between atoms: C18_24  and  O4_26 
ROOT
HETATM    1  C1  UNL     1      21.195   4.244  51.939  1.00  0.00     0.152 C 
HETATM    2  N1  UNL     1      22.298   3.911  51.049  1.00  0.00    -0.363 N 
HETATM    3  C2  UNL     1      22.322   2.508  50.609  1.00  0.00     0.256 C 
HETATM    4  N2  UNL     1      23.253   1.754  51.442  1.00  0.00    -0.323 N 
HETATM    5  C3  UNL     1      24.587   1.815  51.462  1.00  0.00     0.092 A 
HETATM    6  C4  UNL     1      25.076   0.917  52.428  1.00  0.00    -0.011 A 
HETATM    7  C8  UNL     1      23.913   0.373  52.922  1.00  0.00    -0.000 A 
HETATM    8  C9  UNL     1      23.818  -0.575  53.906  1.00  0.00     0.014 A 
HETATM    9  C10 UNL     1      22.587  -1.034  54.308  1.00  0.00     0.001 A 
HETATM   10  C11 UNL     1      21.463  -0.536  53.717  1.00  0.00     0.002 A 
HETATM   11  C12 UNL     1      21.523   0.435  52.709  1.00  0.00     0.030 A 
HETATM   12  C13 UNL     1      22.776   0.874  52.329  1.00  0.00     0.047 A 
HETATM   13  S1  UNL     1      25.558   2.884  50.389  1.00  0.00    -0.032 SA
HETATM   14  S2  UNL     1      24.929   4.876  50.400  1.00  0.00    -0.034 SA
HETATM   15  C14 UNL     1      23.170   5.026  50.767  1.00  0.00     0.076 C 
HETATM   16  C15 UNL     1      22.686   6.236  50.770  1.00  0.00     0.011 C 
ENDROOT
BRANCH  16  17
HETATM   17  C16 UNL     1      21.645   7.233  50.910  1.00  0.00     0.040 C 
BRANCH  17  18
HETATM   18  C17 UNL     1      21.388   8.006  49.626  1.00  0.00     0.113 C 
BRANCH  18  19
HETATM   19  C18 UNL     1      19.956   8.361  49.574  1.00  0.00     0.139 C 
HETATM   20  O3  UNL     1      19.572   9.303  50.328  1.00  0.00    -0.650 OA
BRANCH  19  21
HETATM   21  O4  UNL     1      18.682   8.251  49.140  1.00  0.00    -0.776 OA
HETATM   22  H20 UNL     1      18.333   8.441  48.214  1.00  0.00     0.167 HD
ENDBRANCH  19  21
ENDBRANCH  18  19
ENDBRANCH  17  18
ENDBRANCH  16  17
BRANCH   6  23
HETATM   23  C5  UNL     1      26.506   0.837  52.609  1.00  0.00     0.053 C 
BRANCH  23  24
HETATM   24  C6  UNL     1      27.106   1.309  53.876  1.00  0.00     0.115 C 
BRANCH  24  25
HETATM   25  C7  UNL     1      28.340   2.079  53.733  1.00  0.00     0.139 C 
HETATM   26  O1  UNL     1      28.510   2.629  52.605  1.00  0.00    -0.650 OA
BRANCH  25  27
HETATM   27  O2  UNL     1      29.463   2.455  54.414  1.00  0.00    -0.776 OA
HETATM   28  H10 UNL     1      30.332   2.649  53.901  1.00  0.00     0.167 HD
ENDBRANCH  25  27
ENDBRANCH  24  25
ENDBRANCH  23  24
ENDBRANCH   6  23
TORSDOF 8
ENDMDL
MODEL 5
REMARK VINA RESULT:      -7.3      3.102      6.859
REMARK  8 active torsions:
REMARK  status: ('A' for Active; 'I' for Inactive)
REMARK    1  A    between atoms: C4_6  and  C5_7 
REMARK    2  A    between atoms: C5_7  and  C6_8 
REMARK    3  A    between atoms: C6_8  and  C7_9 
REMARK    4  A    between atoms: C7_9  and  O2_11 
REMARK    5  A    between atoms: C15_21  and  C16_22 
REMARK    6  A    between atoms: C16_22  and  C17_23 
REMARK    7  A    between atoms: C17_23  and  C18_24 
REMARK    8  A    between atoms: C18_24  and  O4_26 
ROOT
HETATM    1  C1  UNL     1      25.984   3.997  49.880  1.00  0.00     0.152 C 
HETATM    2  N1  UNL     1      24.834   4.149  50.760  1.00  0.00    -0.363 N 
HETATM    3  C2  UNL     1      25.091   3.788  52.162  1.00  0.00     0.256 C 
HETATM    4  N2  UNL     1      24.631   2.425  52.405  1.00  0.00    -0.323 N 
HETATM    5  C3  UNL     1      23.376   1.972  52.475  1.00  0.00     0.092 A 
HETATM    6  C4  UNL     1      23.398   0.586  52.718  1.00  0.00    -0.011 A 
HETATM    7  C8  UNL     1      24.749   0.332  52.775  1.00  0.00    -0.000 A 
HETATM    8  C9  UNL     1      25.333  -0.888  52.993  1.00  0.00     0.014 A 
HETATM    9  C10 UNL     1      26.702  -1.004  53.024  1.00  0.00     0.001 A 
HETATM   10  C11 UNL     1      27.471   0.107  52.836  1.00  0.00     0.002 A 
HETATM   11  C12 UNL     1      26.907   1.369  52.610  1.00  0.00     0.030 A 
HETATM   12  C13 UNL     1      25.529   1.450  52.585  1.00  0.00     0.047 A 
HETATM   13  S1  UNL     1      21.921   3.015  52.293  1.00  0.00    -0.032 SA
HETATM   14  S2  UNL     1      21.963   4.221  50.588  1.00  0.00    -0.034 SA
HETATM   15  C14 UNL     1      23.649   4.623  50.087  1.00  0.00     0.076 C 
HETATM   16  C15 UNL     1      23.769   5.394  49.044  1.00  0.00     0.011 C 
ENDROOT
BRANCH  16  17
HETATM   17  C16 UNL     1      24.498   6.146  48.044  1.00  0.00     0.040 C 
BRANCH  17  18
HETATM   18  C17 UNL     1      24.783   7.578  48.469  1.00  0.00     0.113 C 
BRANCH  18  19
HETATM   19  C18 UNL     1      25.745   7.550  49.588  1.00  0.00     0.139 C 
HETATM   20  O3  UNL     1      26.966   7.719  49.297  1.00  0.00    -0.650 OA
BRANCH  19  21
HETATM   21  O4  UNL     1      26.117   7.436  50.881  1.00  0.00    -0.776 OA
HETATM   22  H20 UNL     1      26.005   8.121  51.612  1.00  0.00     0.167 HD
ENDBRANCH  19  21
ENDBRANCH  18  19
ENDBRANCH  17  18
ENDBRANCH  16  17
BRANCH   6  23
HETATM   23  C5  UNL     1      22.132  -0.099  52.822  1.00  0.00     0.053 C 
BRANCH  23  24
HETATM   24  C6  UNL     1      21.507  -0.272  54.151  1.00  0.00     0.115 C 
BRANCH  24  25
HETATM   25  C7  UNL     1      22.085  -1.328  54.980  1.00  0.00     0.139 C 
HETATM   26  O1  UNL     1      21.494  -2.447  54.927  1.00  0.00    -0.650 OA
BRANCH  25  27
HETATM   27  O2  UNL     1      23.103  -1.577  55.857  1.00  0.00    -0.776 OA
HETATM   28  H10 UNL     1      24.061  -1.705  55.507  1.00  0.00     0.167 HD
ENDBRANCH  25  27
ENDBRANCH  24  25
ENDBRANCH  23  24
ENDBRANCH   6  23
TORSDOF 8
ENDMDL
MODEL 6
REMARK VINA RESULT:      -7.3      3.727      7.638
REMARK  8 active torsions:
REMARK  status: ('A' for Active; 'I' for Inactive)
REMARK    1  A    between atoms: C4_6  and  C5_7 
REMARK    2  A    between atoms: C5_7  and  C6_8 
REMARK    3  A    between atoms: C6_8  and  C7_9 
REMARK    4  A    between atoms: C7_9  and  O2_11 
REMARK    5  A    between atoms: C15_21  and  C16_22 
REMARK    6  A    between atoms: C16_22  and  C17_23 
REMARK    7  A    between atoms: C17_23  and  C18_24 
REMARK    8  A    between atoms: C18_24  and  O4_26 
ROOT
HETATM    1  C1  UNL     1      22.833  -1.187  53.301  1.00  0.00     0.152 C 
HETATM    2  N1  UNL     1      22.861   0.264  53.186  1.00  0.00    -0.363 N 
HETATM    3  C2  UNL     1      21.622   0.931  53.615  1.00  0.00     0.256 C 
HETATM    4  N2  UNL     1      20.799   1.223  52.446  1.00  0.00    -0.323 N 
HETATM    5  C3  UNL     1      21.007   2.133  51.490  1.00  0.00     0.092 A 
HETATM    6  C4  UNL     1      19.962   2.063  50.550  1.00  0.00    -0.011 A 
HETATM    7  C8  UNL     1      19.182   1.057  51.070  1.00  0.00    -0.000 A 
HETATM    8  C9  UNL     1      18.016   0.577  50.533  1.00  0.00     0.014 A 
HETATM    9  C10 UNL     1      17.333  -0.438  51.158  1.00  0.00     0.001 A 
HETATM   10  C11 UNL     1      17.828  -0.963  52.316  1.00  0.00     0.002 A 
HETATM   11  C12 UNL     1      19.017  -0.498  52.892  1.00  0.00     0.030 A 
HETATM   12  C13 UNL     1      19.678   0.523  52.239  1.00  0.00     0.047 A 
HETATM   13  S1  UNL     1      22.413   3.256  51.463  1.00  0.00    -0.032 SA
HETATM   14  S2  UNL     1      24.254   2.299  51.705  1.00  0.00    -0.034 SA
HETATM   15  C14 UNL     1      24.104   0.780  52.666  1.00  0.00     0.076 C 
HETATM   16  C15 UNL     1      25.211   0.130  52.888  1.00  0.00     0.011 C 
ENDROOT
BRANCH  16  17
HETATM   17  C16 UNL     1      26.016  -0.949  53.424  1.00  0.00     0.040 C 
BRANCH  17  18
HETATM   18  C17 UNL     1      26.747  -1.733  52.347  1.00  0.00     0.113 C 
BRANCH  18  19
HETATM   19  C18 UNL     1      27.879  -2.444  52.973  1.00  0.00     0.139 C 
HETATM   20  O3  UNL     1      28.762  -1.732  53.536  1.00  0.00    -0.650 OA
BRANCH  19  21
HETATM   21  O4  UNL     1      28.595  -3.532  53.331  1.00  0.00    -0.776 OA
HETATM   22  H20 UNL     1      29.452  -3.863  52.917  1.00  0.00     0.167 HD
ENDBRANCH  19  21
ENDBRANCH  18  19
ENDBRANCH  17  18
ENDBRANCH  16  17
BRANCH   6  23
HETATM   23  C5  UNL     1      20.006   2.968  49.427  1.00  0.00     0.053 C 
BRANCH  23  24
HETATM   24  C6  UNL     1      20.342   2.445  48.085  1.00  0.00     0.115 C 
BRANCH  24  25
HETATM   25  C7  UNL     1      21.757   2.513  47.725  1.00  0.00     0.139 C 
HETATM   26  O1  UNL     1      22.317   3.631  47.929  1.00  0.00    -0.650 OA
BRANCH  25  27
HETATM   27  O2  UNL     1      22.779   1.764  47.214  1.00  0.00    -0.776 OA
HETATM   28  H10 UNL     1      22.592   1.090  46.460  1.00  0.00     0.167 HD
ENDBRANCH  25  27
ENDBRANCH  24  25
ENDBRANCH  23  24
ENDBRANCH   6  23
TORSDOF 8
ENDMDL
MODEL 7
REMARK VINA RESULT:      -7.3      3.213      8.199
REMARK  8 active torsions:
REMARK  status: ('A' for Active; 'I' for Inactive)
REMARK    1  A    between atoms: C4_6  and  C5_7 
REMARK    2  A    between atoms: C5_7  and  C6_8 
REMARK    3  A    between atoms: C6_8  and  C7_9 
REMARK    4  A    between atoms: C7_9  and  O2_11 
REMARK    5  A    between atoms: C15_21  and  C16_22 
REMARK    6  A    between atoms: C16_22  and  C17_23 
REMARK    7  A    between atoms: C17_23  and  C18_24 
REMARK    8  A    between atoms: C18_24  and  O4_26 
ROOT
HETATM    1  C1  UNL     1      22.947  -1.361  53.702  1.00  0.00     0.152 C 
HETATM    2  N1  UNL     1      22.799   0.052  53.386  1.00  0.00    -0.363 N 
HETATM    3  C2  UNL     1      21.553   0.658  53.878  1.00  0.00     0.256 C 
HETATM    4  N2  UNL     1      20.571   0.694  52.800  1.00  0.00    -0.323 N 
HETATM    5  C3  UNL     1      20.564   1.464  51.708  1.00  0.00     0.092 A 
HETATM    6  C4  UNL     1      19.429   1.157  50.934  1.00  0.00    -0.011 A 
HETATM    7  C8  UNL     1      18.833   0.173  51.687  1.00  0.00    -0.000 A 
HETATM    8  C9  UNL     1      17.672  -0.488  51.380  1.00  0.00     0.014 A 
HETATM    9  C10 UNL     1      17.183  -1.456  52.224  1.00  0.00     0.001 A 
HETATM   10  C11 UNL     1      17.866  -1.753  53.367  1.00  0.00     0.002 A 
HETATM   11  C12 UNL     1      19.056  -1.098  53.711  1.00  0.00     0.030 A 
HETATM   12  C13 UNL     1      19.518  -0.130  52.841  1.00  0.00     0.047 A 
HETATM   13  S1  UNL     1      21.823   2.695  51.341  1.00  0.00    -0.032 SA
HETATM   14  S2  UNL     1      23.775   1.960  51.466  1.00  0.00    -0.034 SA
HETATM   15  C14 UNL     1      23.908   0.597  52.639  1.00  0.00     0.076 C 
HETATM   16  C15 UNL     1      25.099   0.092  52.800  1.00  0.00     0.011 C 
ENDROOT
BRANCH  16  17
HETATM   17  C16 UNL     1      26.075  -0.814  53.368  1.00  0.00     0.040 C 
BRANCH  17  18
HETATM   18  C17 UNL     1      26.726  -1.711  52.328  1.00  0.00     0.113 C 
BRANCH  18  19
HETATM   19  C18 UNL     1      27.841  -2.437  52.968  1.00  0.00     0.139 C 
HETATM   20  O3  UNL     1      28.717  -1.737  53.557  1.00  0.00    -0.650 OA
BRANCH  19  21
HETATM   21  O4  UNL     1      28.543  -3.534  53.327  1.00  0.00    -0.776 OA
HETATM   22  H20 UNL     1      28.181  -4.391  53.713  1.00  0.00     0.167 HD
ENDBRANCH  19  21
ENDBRANCH  18  19
ENDBRANCH  17  18
ENDBRANCH  16  17
BRANCH   6  23
HETATM   23  C5  UNL     1      19.240   1.882  49.701  1.00  0.00     0.053 C 
BRANCH  23  24
HETATM   24  C6  UNL     1      18.061   2.762  49.548  1.00  0.00     0.115 C 
BRANCH  24  25
HETATM   25  C7  UNL     1      17.891   3.765  50.596  1.00  0.00     0.139 C 
HETATM   26  O1  UNL     1      18.132   4.960  50.250  1.00  0.00    -0.650 OA
BRANCH  25  27
HETATM   27  O2  UNL     1      17.541   3.907  51.910  1.00  0.00    -0.776 OA
HETATM   28  H10 UNL     1      16.549   3.896  52.179  1.00  0.00     0.167 HD
ENDBRANCH  25  27
ENDBRANCH  24  25
ENDBRANCH  23  24
ENDBRANCH   6  23
TORSDOF 8
ENDMDL
MODEL 8
REMARK VINA RESULT:      -7.3      2.842      7.301
REMARK  8 active torsions:
REMARK  status: ('A' for Active; 'I' for Inactive)
REMARK    1  A    between atoms: C4_6  and  C5_7 
REMARK    2  A    between atoms: C5_7  and  C6_8 
REMARK    3  A    between atoms: C6_8  and  C7_9 
REMARK    4  A    between atoms: C7_9  and  O2_11 
REMARK    5  A    between atoms: C15_21  and  C16_22 
REMARK    6  A    between atoms: C16_22  and  C17_23 
REMARK    7  A    between atoms: C17_23  and  C18_24 
REMARK    8  A    between atoms: C18_24  and  O4_26 
ROOT
HETATM    1  C1  UNL     1      25.179   4.190  50.448  1.00  0.00     0.152 C 
HETATM    2  N1  UNL     1      23.836   4.363  50.980  1.00  0.00    -0.363 N 
HETATM    3  C2  UNL     1      23.702   4.046  52.410  1.00  0.00     0.256 C 
HETATM    4  N2  UNL     1      23.189   2.689  52.561  1.00  0.00    -0.323 N 
HETATM    5  C3  UNL     1      21.960   2.232  52.302  1.00  0.00     0.092 A 
HETATM    6  C4  UNL     1      21.911   0.854  52.584  1.00  0.00    -0.011 A 
HETATM    7  C8  UNL     1      23.195   0.608  53.012  1.00  0.00    -0.000 A 
HETATM    8  C9  UNL     1      23.694  -0.602  53.416  1.00  0.00     0.014 A 
HETATM    9  C10 UNL     1      25.003  -0.710  53.820  1.00  0.00     0.001 A 
HETATM   10  C11 UNL     1      25.799   0.398  53.813  1.00  0.00     0.002 A 
HETATM   11  C12 UNL     1      25.321   1.650  53.405  1.00  0.00     0.030 A 
HETATM   12  C13 UNL     1      24.001   1.724  53.005  1.00  0.00     0.047 A 
HETATM   13  S1  UNL     1      20.613   3.262  51.702  1.00  0.00    -0.032 SA
HETATM   14  S2  UNL     1      21.118   4.416  50.036  1.00  0.00    -0.034 SA
HETATM   15  C14 UNL     1      22.878   4.810  49.997  1.00  0.00     0.076 C 
HETATM   16  C15 UNL     1      23.278   5.551  49.003  1.00  0.00     0.011 C 
ENDROOT
BRANCH  16  17
HETATM   17  C16 UNL     1      24.254   6.276  48.214  1.00  0.00     0.040 C 
BRANCH  17  18
HETATM   18  C17 UNL     1      24.419   7.720  48.659  1.00  0.00     0.113 C 
BRANCH  18  19
HETATM   19  C18 UNL     1      25.072   7.729  49.983  1.00  0.00     0.139 C 
HETATM   20  O3  UNL     1      24.367   8.099  50.967  1.00  0.00    -0.650 OA
BRANCH  19  21
HETATM   21  O4  UNL     1      26.099   7.554  50.844  1.00  0.00    -0.776 OA
HETATM   22  H20 UNL     1      26.503   8.242  51.460  1.00  0.00     0.167 HD
ENDBRANCH  19  21
ENDBRANCH  18  19
ENDBRANCH  17  18
ENDBRANCH  16  17
BRANCH   6  23
HETATM   23  C5  UNL     1      20.661   0.166  52.363  1.00  0.00     0.053 C 
BRANCH  23  24
HETATM   24  C6  UNL     1      20.004  -0.529  53.491  1.00  0.00     0.115 C 
BRANCH  24  25
HETATM   25  C7  UNL     1      18.600  -0.872  53.279  1.00  0.00     0.139 C 
HETATM   26  O1  UNL     1      18.200  -0.812  52.079  1.00  0.00    -0.650 OA
BRANCH  25  27
HETATM   27  O2  UNL     1      17.472  -1.264  53.944  1.00  0.00    -0.776 OA
HETATM   28  H10 UNL     1      16.736  -1.779  53.443  1.00  0.00     0.167 HD
ENDBRANCH  25  27
ENDBRANCH  24  25
ENDBRANCH  23  24
ENDBRANCH   6  23
TORSDOF 8
ENDMDL
MODEL 9
REMARK VINA RESULT:      -7.2      2.754      7.200
REMARK  8 active torsions:
REMARK  status: ('A' for Active; 'I' for Inactive)
REMARK    1  A    between atoms: C4_6  and  C5_7 
REMARK    2  A    between atoms: C5_7  and  C6_8 
REMARK    3  A    between atoms: C6_8  and  C7_9 
REMARK    4  A    between atoms: C7_9  and  O2_11 
REMARK    5  A    between atoms: C15_21  and  C16_22 
REMARK    6  A    between atoms: C16_22  and  C17_23 
REMARK    7  A    between atoms: C17_23  and  C18_24 
REMARK    8  A    between atoms: C18_24  and  O4_26 
ROOT
HETATM    1  C1  UNL     1      27.561   2.161  52.658  1.00  0.00     0.152 C 
HETATM    2  N1  UNL     1      26.450   1.256  52.403  1.00  0.00    -0.363 N 
HETATM    3  C2  UNL     1      25.732   1.515  51.146  1.00  0.00     0.256 C 
HETATM    4  N2  UNL     1      24.540   2.309  51.422  1.00  0.00    -0.323 N 
HETATM    5  C3  UNL     1      23.415   1.932  52.036  1.00  0.00     0.092 A 
HETATM    6  C4  UNL     1      22.531   3.026  52.092  1.00  0.00    -0.011 A 
HETATM    7  C8  UNL     1      23.260   4.010  51.466  1.00  0.00    -0.000 A 
HETATM    8  C9  UNL     1      22.857   5.301  51.250  1.00  0.00     0.014 A 
HETATM    9  C10 UNL     1      23.689   6.188  50.609  1.00  0.00     0.001 A 
HETATM   10  C11 UNL     1      24.918   5.769  50.192  1.00  0.00     0.002 A 
HETATM   11  C12 UNL     1      25.363   4.456  50.398  1.00  0.00     0.030 A 
HETATM   12  C13 UNL     1      24.502   3.592  51.044  1.00  0.00     0.047 A 
HETATM   13  S1  UNL     1      23.121   0.271  52.661  1.00  0.00    -0.032 SA
HETATM   14  S2  UNL     1      24.662  -0.453  53.871  1.00  0.00    -0.034 SA
HETATM   15  C14 UNL     1      26.256   0.271  53.440  1.00  0.00     0.076 C 
HETATM   16  C15 UNL     1      27.280  -0.144  54.130  1.00  0.00     0.011 C 
ENDROOT
BRANCH  16  17
HETATM   17  C16 UNL     1      28.679  -0.193  54.503  1.00  0.00     0.040 C 
BRANCH  17  18
HETATM   18  C17 UNL     1      29.545  -0.887  53.464  1.00  0.00     0.113 C 
BRANCH  18  19
HETATM   19  C18 UNL     1      29.054  -2.268  53.293  1.00  0.00     0.139 C 
HETATM   20  O3  UNL     1      29.646  -3.173  53.953  1.00  0.00    -0.650 OA
BRANCH  19  21
HETATM   21  O4  UNL     1      28.253  -3.229  52.783  1.00  0.00    -0.776 OA
HETATM   22  H20 UNL     1      27.329  -3.112  52.396  1.00  0.00     0.167 HD
ENDBRANCH  19  21
ENDBRANCH  18  19
ENDBRANCH  17  18
ENDBRANCH  16  17
BRANCH   6  23
HETATM   23  C5  UNL     1      21.251   2.824  52.728  1.00  0.00     0.053 C 
BRANCH  23  24
HETATM   24  C6  UNL     1      20.093   2.401  51.912  1.00  0.00     0.115 C 
BRANCH  24  25
HETATM   25  C7  UNL     1      19.089   3.435  51.670  1.00  0.00     0.139 C 
HETATM   26  O1  UNL     1      19.444   4.366  50.887  1.00  0.00    -0.650 OA
BRANCH  25  27
HETATM   27  O2  UNL     1      17.813   3.800  51.997  1.00  0.00    -0.776 OA
HETATM   28  H10 UNL     1      17.017   3.268  51.623  1.00  0.00     0.167 HD
ENDBRANCH  25  27
ENDBRANCH  24  25
ENDBRANCH  23  24
ENDBRANCH   6  23
TORSDOF 8
ENDMDL
