MODEL 1
REMARK VINA RESULT:      -9.0      0.000      0.000
REMARK  3 active torsions:
REMARK  status: ('A' for Active; 'I' for Inactive)
REMARK    1  A    between atoms: O1_2  and  C2_3 
REMARK    2  A    between atoms: C7_8  and  N1_9 
REMARK    3  A    between atoms: C16_20  and  C17_21 
ROOT
HETATM    1  C2  UNL     1      26.577  -0.015  53.395  1.00  0.00     0.045 C 
HETATM    2  C3  UNL     1      25.701  -0.364  54.305  1.00  0.00     0.032 C 
HETATM    3  C4  UNL     1      24.369  -0.728  54.585  1.00  0.00    -0.002 C 
HETATM    4  C5  UNL     1      23.121  -1.004  54.368  1.00  0.00    -0.024 C 
HETATM    5  C6  UNL     1      22.260  -1.039  53.104  1.00  0.00     0.054 C 
HETATM    6  C7  UNL     1      21.214   0.015  53.246  1.00  0.00     0.131 A 
HETATM    7  C8  UNL     1      20.625   0.443  51.914  1.00  0.00     0.175 A 
HETATM    8  C9  UNL     1      19.550  -0.026  52.458  1.00  0.00     0.051 A 
HETATM    9  C10 UNL     1      18.088  -0.122  52.653  1.00  0.00     0.059 C 
HETATM   10  P1  UNL     1      17.441   0.124  50.862  1.00  0.00    -0.064 P 
HETATM   11  C11 UNL     1      18.750   0.770  50.072  1.00  0.00     0.001 C 
HETATM   12  C12 UNL     1      20.124   0.892  50.570  1.00  0.00     0.068 A 
HETATM   13  C13 UNL     1      20.626   0.502  51.771  1.00  0.00     0.175 A 
HETATM   14  N2  UNL     1      21.863   0.998  51.206  1.00  0.00    -0.042 N 
HETATM   15  C14 UNL     1      22.737   1.413  50.151  1.00  0.00     0.265 C 
HETATM   16  C15 UNL     1      22.444   2.773  49.598  1.00  0.00     0.011 C 
HETATM   17  C16 UNL     1      23.028   4.043  49.442  1.00  0.00    -0.017 C 
HETATM   18  C18 UNL     1      24.165   3.456  50.097  1.00  0.00     0.035 C 
HETATM   19  C19 UNL     1      25.363   3.810  50.510  1.00  0.00     0.005 C 
HETATM   20  C20 UNL     1      26.264   2.858  51.158  1.00  0.00     0.023 C 
HETATM   21  C21 UNL     1      26.686   1.651  51.663  1.00  0.00    -0.017 C 
HETATM   22  C22 UNL     1      26.447   0.172  51.949  1.00  0.00     0.065 C 
HETATM   23  H15 UNL     1      22.660   1.321  51.769  1.00  0.00     0.282 HD
ENDROOT
BRANCH   6  24
HETATM   24  N1  UNL     1      20.396  -0.246  54.360  1.00  0.00    -0.423 N 
HETATM   25  H10 UNL     1      20.441  -1.183  54.763  1.00  0.00     0.150 HD
HETATM   26  H11 UNL     1      20.349   0.528  55.005  1.00  0.00     0.150 HD
ENDBRANCH   6  24
BRANCH   1  27
HETATM   27  O1  UNL     1      27.891   0.271  53.603  1.00  0.00    -0.360 OA
HETATM   28  C1  UNL     1      28.619   0.205  54.790  1.00  0.00     0.209 C 
ENDBRANCH   1  27
BRANCH  17  29
HETATM   29  C17 UNL     1      22.022   4.731  48.812  1.00  0.00     0.265 C 
HETATM   30  O2  UNL     1      20.864   4.367  48.546  1.00  0.00    -0.302 OA
ENDBRANCH  17  29
TORSDOF 3
ENDMDL
MODEL 2
REMARK VINA RESULT:      -8.1      1.997      5.554
REMARK  3 active torsions:
REMARK  status: ('A' for Active; 'I' for Inactive)
REMARK    1  A    between atoms: O1_2  and  C2_3 
REMARK    2  A    between atoms: C7_8  and  N1_9 
REMARK    3  A    between atoms: C16_20  and  C17_21 
ROOT
HETATM    1  C2  UNL     1      24.048   5.565  48.698  1.00  0.00     0.045 C 
HETATM    2  C3  UNL     1      22.961   5.176  48.078  1.00  0.00     0.032 C 
HETATM    3  C4  UNL     1      21.728   4.502  48.166  1.00  0.00    -0.002 C 
HETATM    4  C5  UNL     1      20.749   3.839  48.697  1.00  0.00    -0.024 C 
HETATM    5  C6  UNL     1      20.487   3.307  50.108  1.00  0.00     0.054 C 
HETATM    6  C7  UNL     1      20.444   1.818  50.024  1.00  0.00     0.131 A 
HETATM    7  C8  UNL     1      20.700   1.146  51.360  1.00  0.00     0.175 A 
HETATM    8  C9  UNL     1      19.498   0.716  51.156  1.00  0.00     0.051 A 
HETATM    9  C10 UNL     1      18.379  -0.238  51.308  1.00  0.00     0.059 C 
HETATM   10  P1  UNL     1      18.600  -0.805  53.130  1.00  0.00    -0.064 P 
HETATM   11  C11 UNL     1      20.150  -0.332  53.489  1.00  0.00     0.001 C 
HETATM   12  C12 UNL     1      21.034   0.520  52.685  1.00  0.00     0.068 A 
HETATM   13  C13 UNL     1      20.780   1.108  51.487  1.00  0.00     0.175 A 
HETATM   14  N2  UNL     1      22.117   1.632  51.671  1.00  0.00    -0.042 N 
HETATM   15  C14 UNL     1      23.288   1.977  52.421  1.00  0.00     0.265 C 
HETATM   16  C15 UNL     1      24.159   0.815  52.784  1.00  0.00     0.011 C 
HETATM   17  C16 UNL     1      25.459   0.314  52.589  1.00  0.00    -0.017 C 
HETATM   18  C18 UNL     1      25.657   1.505  51.808  1.00  0.00     0.035 C 
HETATM   19  C19 UNL     1      26.601   2.071  51.086  1.00  0.00     0.005 C 
HETATM   20  C20 UNL     1      26.395   3.359  50.427  1.00  0.00     0.023 C 
HETATM   21  C21 UNL     1      25.728   4.502  50.054  1.00  0.00    -0.017 C 
HETATM   22  C22 UNL     1      24.487   5.388  50.084  1.00  0.00     0.065 C 
HETATM   23  H15 UNL     1      22.723   1.935  50.899  1.00  0.00     0.282 HD
ENDROOT
BRANCH   6  24
HETATM   24  N1  UNL     1      19.400   1.400  49.180  1.00  0.00    -0.423 N 
HETATM   25  H10 UNL     1      18.566   1.987  49.142  1.00  0.00     0.150 HD
HETATM   26  H11 UNL     1      19.728   1.015  48.307  1.00  0.00     0.150 HD
ENDBRANCH   6  24
BRANCH   1  27
HETATM   27  O1  UNL     1      25.082   6.266  48.159  1.00  0.00    -0.360 OA
HETATM   28  C1  UNL     1      25.334   7.637  48.228  1.00  0.00     0.209 C 
ENDBRANCH   1  27
BRANCH  17  29
HETATM   29  C17 UNL     1      25.411  -0.858  53.300  1.00  0.00     0.265 C 
HETATM   30  O2  UNL     1      26.089  -1.215  54.278  1.00  0.00    -0.302 OA
ENDBRANCH  17  29
TORSDOF 3
ENDMDL
MODEL 3
REMARK VINA RESULT:      -8.1      2.530      5.101
REMARK  3 active torsions:
REMARK  status: ('A' for Active; 'I' for Inactive)
REMARK    1  A    between atoms: O1_2  and  C2_3 
REMARK    2  A    between atoms: C7_8  and  N1_9 
REMARK    3  A    between atoms: C16_20  and  C17_21 
ROOT
HETATM    1  C2  UNL     1      26.566   2.028  52.152  1.00  0.00     0.045 C 
HETATM    2  C3  UNL     1      26.569   2.509  50.933  1.00  0.00     0.032 C 
HETATM    3  C4  UNL     1      25.869   3.233  49.948  1.00  0.00    -0.002 C 
HETATM    4  C5  UNL     1      24.910   3.913  49.401  1.00  0.00    -0.024 C 
HETATM    5  C6  UNL     1      23.544   4.386  49.900  1.00  0.00     0.054 C 
HETATM    6  C7  UNL     1      22.505   3.705  49.073  1.00  0.00     0.131 A 
HETATM    7  C8  UNL     1      21.148   3.665  49.749  1.00  0.00     0.175 A 
HETATM    8  C9  UNL     1      20.827   4.372  48.714  1.00  0.00     0.051 A 
HETATM    9  C10 UNL     1      19.892   4.895  47.695  1.00  0.00     0.059 C 
HETATM   10  P1  UNL     1      18.282   5.107  48.719  1.00  0.00    -0.064 P 
HETATM   11  C11 UNL     1      18.572   4.194  50.075  1.00  0.00     0.001 C 
HETATM   12  C12 UNL     1      19.839   3.581  50.485  1.00  0.00     0.068 A 
HETATM   13  C13 UNL     1      21.044   3.629  49.858  1.00  0.00     0.175 A 
HETATM   14  N2  UNL     1      21.463   2.850  51.004  1.00  0.00    -0.042 N 
HETATM   15  C14 UNL     1      21.352   2.326  52.333  1.00  0.00     0.265 C 
HETATM   16  C15 UNL     1      20.361   1.214  52.482  1.00  0.00     0.011 C 
HETATM   17  C16 UNL     1      20.281  -0.142  52.846  1.00  0.00    -0.017 C 
HETATM   18  C18 UNL     1      21.700  -0.035  53.051  1.00  0.00     0.035 C 
HETATM   19  C19 UNL     1      22.711  -0.800  53.405  1.00  0.00     0.005 C 
HETATM   20  C20 UNL     1      24.072  -0.275  53.506  1.00  0.00     0.023 C 
HETATM   21  C21 UNL     1      25.079   0.659  53.458  1.00  0.00    -0.017 C 
HETATM   22  C22 UNL     1      25.559   2.086  53.213  1.00  0.00     0.065 C 
HETATM   23  H15 UNL     1      22.275   2.221  51.002  1.00  0.00     0.282 HD
ENDROOT
BRANCH   6  24
HETATM   24  N1  UNL     1      22.642   4.058  47.719  1.00  0.00    -0.423 N 
HETATM   25  H10 UNL     1      21.818   4.438  47.249  1.00  0.00     0.150 HD
HETATM   26  H11 UNL     1      23.527   4.494  47.512  1.00  0.00     0.150 HD
ENDBRANCH   6  24
BRANCH   1  27
HETATM   27  O1  UNL     1      27.564   1.318  52.745  1.00  0.00    -0.360 OA
HETATM   28  C1  UNL     1      28.666   1.793  53.458  1.00  0.00     0.209 C 
ENDBRANCH   1  27
BRANCH  17  29
HETATM   29  C17 UNL     1      18.941  -0.389  52.691  1.00  0.00     0.265 C 
HETATM   30  O2  UNL     1      18.219  -1.215  53.274  1.00  0.00    -0.302 OA
ENDBRANCH  17  29
TORSDOF 3
ENDMDL
MODEL 4
REMARK VINA RESULT:      -8.1      2.997      6.362
REMARK  3 active torsions:
REMARK  status: ('A' for Active; 'I' for Inactive)
REMARK    1  A    between atoms: O1_2  and  C2_3 
REMARK    2  A    between atoms: C7_8  and  N1_9 
REMARK    3  A    between atoms: C16_20  and  C17_21 
ROOT
HETATM    1  C2  UNL     1      18.643   2.905  50.662  1.00  0.00     0.045 C 
HETATM    2  C3  UNL     1      18.733   1.679  51.116  1.00  0.00     0.032 C 
HETATM    3  C4  UNL     1      19.456   0.760  51.902  1.00  0.00    -0.002 C 
HETATM    4  C5  UNL     1      20.385   0.309  52.684  1.00  0.00    -0.024 C 
HETATM    5  C6  UNL     1      21.614   0.952  53.332  1.00  0.00     0.054 C 
HETATM    6  C7  UNL     1      22.820   0.278  52.769  1.00  0.00     0.131 A 
HETATM    7  C8  UNL     1      24.079   1.112  52.911  1.00  0.00     0.175 A 
HETATM    8  C9  UNL     1      24.437   0.100  53.632  1.00  0.00     0.051 A 
HETATM    9  C10 UNL     1      25.420  -0.818  54.247  1.00  0.00     0.059 C 
HETATM   10  P1  UNL     1      26.855   0.384  54.676  1.00  0.00    -0.064 P 
HETATM   11  C11 UNL     1      26.513   1.725  53.760  1.00  0.00     0.001 C 
HETATM   12  C12 UNL     1      25.288   2.002  53.003  1.00  0.00     0.068 A 
HETATM   13  C13 UNL     1      24.172   1.234  52.890  1.00  0.00     0.175 A 
HETATM   14  N2  UNL     1      23.712   2.348  52.087  1.00  0.00    -0.042 N 
HETATM   15  C14 UNL     1      23.722   3.697  51.606  1.00  0.00     0.265 C 
HETATM   16  C15 UNL     1      24.814   4.002  50.628  1.00  0.00     0.011 C 
HETATM   17  C16 UNL     1      25.012   4.419  49.299  1.00  0.00    -0.017 C 
HETATM   18  C18 UNL     1      23.575   4.448  49.234  1.00  0.00     0.035 C 
HETATM   19  C19 UNL     1      22.628   4.705  48.357  1.00  0.00     0.005 C 
HETATM   20  C20 UNL     1      21.212   4.625  48.712  1.00  0.00     0.023 C 
HETATM   21  C21 UNL     1      20.113   4.425  49.513  1.00  0.00    -0.017 C 
HETATM   22  C22 UNL     1      19.499   4.077  50.864  1.00  0.00     0.065 C 
HETATM   23  H15 UNL     1      22.989   2.270  51.362  1.00  0.00     0.282 HD
ENDROOT
BRANCH   6  24
HETATM   24  N1  UNL     1      22.809  -1.094  53.077  1.00  0.00    -0.423 N 
HETATM   25  H10 UNL     1      22.898  -1.353  54.061  1.00  0.00     0.150 HD
HETATM   26  H11 UNL     1      22.148  -1.618  52.524  1.00  0.00     0.150 HD
ENDBRANCH   6  24
BRANCH   1  27
HETATM   27  O1  UNL     1      17.673   3.398  49.846  1.00  0.00    -0.360 OA
HETATM   28  C1  UNL     1      16.338   3.671  50.146  1.00  0.00     0.209 C 
ENDBRANCH   1  27
BRANCH  17  29
HETATM   29  C17 UNL     1      26.380   4.433  49.218  1.00  0.00     0.265 C 
HETATM   30  O2  UNL     1      27.122   5.165  48.540  1.00  0.00    -0.302 OA
ENDBRANCH  17  29
TORSDOF 3
ENDMDL
MODEL 5
REMARK VINA RESULT:      -8.0      1.661      1.780
REMARK  3 active torsions:
REMARK  status: ('A' for Active; 'I' for Inactive)
REMARK    1  A    between atoms: O1_2  and  C2_3 
REMARK    2  A    between atoms: C7_8  and  N1_9 
REMARK    3  A    between atoms: C16_20  and  C17_21 
ROOT
HETATM    1  C2  UNL     1      25.137  -0.126  54.542  1.00  0.00     0.045 C 
HETATM    2  C3  UNL     1      24.187  -0.844  55.090  1.00  0.00     0.032 C 
HETATM    3  C4  UNL     1      22.907  -1.414  54.950  1.00  0.00    -0.002 C 
HETATM    4  C5  UNL     1      21.779  -1.729  54.394  1.00  0.00    -0.024 C 
HETATM    5  C6  UNL     1      21.168  -1.432  53.023  1.00  0.00     0.054 C 
HETATM    6  C7  UNL     1      19.952  -0.597  53.247  1.00  0.00     0.131 A 
HETATM    7  C8  UNL     1      19.539   0.184  52.014  1.00  0.00     0.175 A 
HETATM    8  C9  UNL     1      18.480  -0.546  52.142  1.00  0.00     0.051 A 
HETATM    9  C10 UNL     1      17.043  -0.850  51.976  1.00  0.00     0.059 C 
HETATM   10  P1  UNL     1      16.684  -0.094  50.248  1.00  0.00    -0.064 P 
HETATM   11  C11 UNL     1      17.983   0.908  49.995  1.00  0.00     0.001 C 
HETATM   12  C12 UNL     1      19.210   0.998  50.793  1.00  0.00     0.068 A 
HETATM   13  C13 UNL     1      19.555   0.287  51.899  1.00  0.00     0.175 A 
HETATM   14  N2  UNL     1      20.771   1.065  51.794  1.00  0.00    -0.042 N 
HETATM   15  C14 UNL     1      21.732   1.893  51.130  1.00  0.00     0.265 C 
HETATM   16  C15 UNL     1      21.316   3.323  50.966  1.00  0.00     0.011 C 
HETATM   17  C16 UNL     1      21.698   4.625  51.333  1.00  0.00    -0.017 C 
HETATM   18  C18 UNL     1      22.786   3.974  52.011  1.00  0.00     0.035 C 
HETATM   19  C19 UNL     1      23.819   4.293  52.761  1.00  0.00     0.005 C 
HETATM   20  C20 UNL     1      24.740   3.277  53.269  1.00  0.00     0.023 C 
HETATM   21  C21 UNL     1      25.264   2.021  53.464  1.00  0.00    -0.017 C 
HETATM   22  C22 UNL     1      25.229   0.515  53.229  1.00  0.00     0.065 C 
HETATM   23  H15 UNL     1      21.393   1.264  52.587  1.00  0.00     0.282 HD
ENDROOT
BRANCH   6  24
HETATM   24  N1  UNL     1      19.009  -1.295  54.024  1.00  0.00    -0.423 N 
HETATM   25  H10 UNL     1      19.159  -2.296  54.152  1.00  0.00     0.150 HD
HETATM   26  H11 UNL     1      18.696  -0.772  54.828  1.00  0.00     0.150 HD
ENDBRANCH   6  24
BRANCH   1  27
HETATM   27  O1  UNL     1      26.329   0.209  55.107  1.00  0.00    -0.360 OA
HETATM   28  C1  UNL     1      27.617  -0.061  54.646  1.00  0.00     0.209 C 
ENDBRANCH   1  27
BRANCH  17  29
HETATM   29  C17 UNL     1      20.716   5.376  50.739  1.00  0.00     0.265 C 
HETATM   30  O2  UNL     1      19.591   5.029  50.340  1.00  0.00    -0.302 OA
ENDBRANCH  17  29
TORSDOF 3
ENDMDL
MODEL 6
REMARK VINA RESULT:      -7.9      2.953      5.672
REMARK  3 active torsions:
REMARK  status: ('A' for Active; 'I' for Inactive)
REMARK    1  A    between atoms: O1_2  and  C2_3 
REMARK    2  A    between atoms: C7_8  and  N1_9 
REMARK    3  A    between atoms: C16_20  and  C17_21 
ROOT
HETATM    1  C2  UNL     1      25.888   0.532  52.609  1.00  0.00     0.045 C 
HETATM    2  C3  UNL     1      26.453   1.148  51.599  1.00  0.00     0.032 C 
HETATM    3  C4  UNL     1      26.509   2.311  50.807  1.00  0.00    -0.002 C 
HETATM    4  C5  UNL     1      26.218   3.503  50.388  1.00  0.00    -0.024 C 
HETATM    5  C6  UNL     1      25.216   4.562  50.854  1.00  0.00     0.054 C 
HETATM    6  C7  UNL     1      24.231   4.760  49.751  1.00  0.00     0.131 A 
HETATM    7  C8  UNL     1      22.927   5.369  50.230  1.00  0.00     0.175 A 
HETATM    8  C9  UNL     1      23.296   6.313  49.427  1.00  0.00     0.051 A 
HETATM    9  C10 UNL     1      23.066   7.455  48.517  1.00  0.00     0.059 C 
HETATM   10  P1  UNL     1      21.596   8.343  49.374  1.00  0.00    -0.064 P 
HETATM   11  C11 UNL     1      21.011   7.190  50.416  1.00  0.00     0.001 C 
HETATM   12  C12 UNL     1      21.624   5.903  50.759  1.00  0.00     0.068 A 
HETATM   13  C13 UNL     1      22.795   5.378  50.311  1.00  0.00     0.175 A 
HETATM   14  N2  UNL     1      22.440   4.298  51.209  1.00  0.00    -0.042 N 
HETATM   15  C14 UNL     1      21.735   3.690  52.297  1.00  0.00     0.265 C 
HETATM   16  C15 UNL     1      20.313   3.330  51.995  1.00  0.00     0.011 C 
HETATM   17  C16 UNL     1      19.454   2.219  51.923  1.00  0.00    -0.017 C 
HETATM   18  C18 UNL     1      20.616   1.463  52.305  1.00  0.00     0.035 C 
HETATM   19  C19 UNL     1      20.956   0.209  52.521  1.00  0.00     0.005 C 
HETATM   20  C20 UNL     1      22.312  -0.159  52.924  1.00  0.00     0.023 C 
HETATM   21  C21 UNL     1      23.629   0.029  53.270  1.00  0.00    -0.017 C 
HETATM   22  C22 UNL     1      24.820   0.948  53.521  1.00  0.00     0.065 C 
HETATM   23  H15 UNL     1      22.779   3.335  51.106  1.00  0.00     0.282 HD
ENDROOT
BRANCH   6  24
HETATM   24  N1  UNL     1      24.875   5.223  48.589  1.00  0.00    -0.423 N 
HETATM   25  H10 UNL     1      25.724   4.737  48.301  1.00  0.00     0.150 HD
HETATM   26  H11 UNL     1      24.230   5.489  47.861  1.00  0.00     0.150 HD
ENDBRANCH   6  24
BRANCH   1  27
HETATM   27  O1  UNL     1      26.184  -0.715  53.066  1.00  0.00    -0.360 OA
HETATM   28  C1  UNL     1      26.885  -1.734  52.422  1.00  0.00     0.209 C 
ENDBRANCH   1  27
BRANCH  17  29
HETATM   29  C17 UNL     1      18.273   2.809  51.555  1.00  0.00     0.265 C 
HETATM   30  O2  UNL     1      17.748   3.854  51.978  1.00  0.00    -0.302 OA
ENDBRANCH  17  29
TORSDOF 3
ENDMDL
MODEL 7
REMARK VINA RESULT:      -7.9      1.188      1.464
REMARK  3 active torsions:
REMARK  status: ('A' for Active; 'I' for Inactive)
REMARK    1  A    between atoms: O1_2  and  C2_3 
REMARK    2  A    between atoms: C7_8  and  N1_9 
REMARK    3  A    between atoms: C16_20  and  C17_21 
ROOT
HETATM    1  C2  UNL     1      26.677   1.631  52.298  1.00  0.00     0.045 C 
HETATM    2  C3  UNL     1      25.963   1.163  53.292  1.00  0.00     0.032 C 
HETATM    3  C4  UNL     1      24.750   0.575  53.701  1.00  0.00    -0.002 C 
HETATM    4  C5  UNL     1      23.559   0.072  53.607  1.00  0.00    -0.024 C 
HETATM    5  C6  UNL     1      22.611  -0.164  52.429  1.00  0.00     0.054 C 
HETATM    6  C7  UNL     1      21.407   0.689  52.647  1.00  0.00     0.131 A 
HETATM    7  C8  UNL     1      20.635   0.956  51.368  1.00  0.00     0.175 A 
HETATM    8  C9  UNL     1      19.716   0.320  52.018  1.00  0.00     0.051 A 
HETATM    9  C10 UNL     1      18.318  -0.030  52.350  1.00  0.00     0.059 C 
HETATM   10  P1  UNL     1      17.483   0.030  50.622  1.00  0.00    -0.064 P 
HETATM   11  C11 UNL     1      18.578   0.873  49.701  1.00  0.00     0.001 C 
HETATM   12  C12 UNL     1      19.944   1.259  50.067  1.00  0.00     0.068 A 
HETATM   13  C13 UNL     1      20.612   1.009  51.225  1.00  0.00     0.175 A 
HETATM   14  N2  UNL     1      21.684   1.699  50.538  1.00  0.00    -0.042 N 
HETATM   15  C14 UNL     1      22.371   2.227  49.397  1.00  0.00     0.265 C 
HETATM   16  C15 UNL     1      21.787   3.492  48.848  1.00  0.00     0.011 C 
HETATM   17  C16 UNL     1      22.112   4.839  48.614  1.00  0.00    -0.017 C 
HETATM   18  C18 UNL     1      23.391   4.490  49.172  1.00  0.00     0.035 C 
HETATM   19  C19 UNL     1      24.536   5.069  49.465  1.00  0.00     0.005 C 
HETATM   20  C20 UNL     1      25.649   4.319  50.045  1.00  0.00     0.023 C 
HETATM   21  C21 UNL     1      26.327   3.227  50.531  1.00  0.00    -0.017 C 
HETATM   22  C22 UNL     1      26.388   1.741  50.867  1.00  0.00     0.065 C 
HETATM   23  H15 UNL     1      22.454   2.180  51.018  1.00  0.00     0.282 HD
ENDROOT
BRANCH   6  24
HETATM   24  N1  UNL     1      20.752   0.325  53.837  1.00  0.00    -0.423 N 
HETATM   25  H10 UNL     1      20.324  -0.601  53.871  1.00  0.00     0.150 HD
HETATM   26  H11 UNL     1      21.237   0.635  54.665  1.00  0.00     0.150 HD
ENDBRANCH   6  24
BRANCH   1  27
HETATM   27  O1  UNL     1      27.929   2.157  52.377  1.00  0.00    -0.360 OA
HETATM   28  C1  UNL     1      28.724   2.348  53.508  1.00  0.00     0.209 C 
ENDBRANCH   1  27
BRANCH  17  29
HETATM   29  C17 UNL     1      20.947   5.312  48.067  1.00  0.00     0.265 C 
HETATM   30  O2  UNL     1      20.298   6.332  48.354  1.00  0.00    -0.302 OA
ENDBRANCH  17  29
TORSDOF 3
ENDMDL
MODEL 8
REMARK VINA RESULT:      -7.6      2.353      5.876
REMARK  3 active torsions:
REMARK  status: ('A' for Active; 'I' for Inactive)
REMARK    1  A    between atoms: O1_2  and  C2_3 
REMARK    2  A    between atoms: C7_8  and  N1_9 
REMARK    3  A    between atoms: C16_20  and  C17_21 
ROOT
HETATM    1  C2  UNL     1      22.339   6.799  49.813  1.00  0.00     0.045 C 
HETATM    2  C3  UNL     1      21.188   6.192  49.663  1.00  0.00     0.032 C 
HETATM    3  C4  UNL     1      20.314   5.187  50.121  1.00  0.00    -0.002 C 
HETATM    4  C5  UNL     1      19.871   4.212  50.851  1.00  0.00    -0.024 C 
HETATM    5  C6  UNL     1      20.442   3.462  52.057  1.00  0.00     0.054 C 
HETATM    6  C7  UNL     1      20.655   2.045  51.642  1.00  0.00     0.131 A 
HETATM    7  C8  UNL     1      21.657   1.319  52.520  1.00  0.00     0.175 A 
HETATM    8  C9  UNL     1      20.618   0.590  52.771  1.00  0.00     0.051 A 
HETATM    9  C10 UNL     1      19.929  -0.656  53.166  1.00  0.00     0.059 C 
HETATM   10  P1  UNL     1      21.118  -1.350  54.504  1.00  0.00    -0.064 P 
HETATM   11  C11 UNL     1      22.519  -0.498  54.244  1.00  0.00     0.001 C 
HETATM   12  C12 UNL     1      22.711   0.661  53.366  1.00  0.00     0.068 A 
HETATM   13  C13 UNL     1      21.794   1.291  52.586  1.00  0.00     0.175 A 
HETATM   14  N2  UNL     1      22.919   2.151  52.281  1.00  0.00    -0.042 N 
HETATM   15  C14 UNL     1      24.214   2.724  52.495  1.00  0.00     0.265 C 
HETATM   16  C15 UNL     1      25.359   1.826  52.143  1.00  0.00     0.011 C 
HETATM   17  C16 UNL     1      26.466   1.747  51.279  1.00  0.00    -0.017 C 
HETATM   18  C18 UNL     1      26.020   3.029  50.805  1.00  0.00     0.035 C 
HETATM   19  C19 UNL     1      26.359   3.924  49.901  1.00  0.00     0.005 C 
HETATM   20  C20 UNL     1      25.610   5.168  49.735  1.00  0.00     0.023 C 
HETATM   21  C21 UNL     1      24.638   6.109  49.985  1.00  0.00    -0.017 C 
HETATM   22  C22 UNL     1      23.425   6.590  50.773  1.00  0.00     0.065 C 
HETATM   23  H15 UNL     1      22.998   2.705  51.420  1.00  0.00     0.282 HD
ENDROOT
BRANCH   6  24
HETATM   24  N1  UNL     1      19.435   1.449  51.273  1.00  0.00    -0.423 N 
HETATM   25  H10 UNL     1      18.591   2.014  51.372  1.00  0.00     0.150 HD
HETATM   26  H11 UNL     1      19.510   0.879  50.445  1.00  0.00     0.150 HD
ENDBRANCH   6  24
BRANCH   1  27
HETATM   27  O1  UNL     1      22.818   7.827  49.061  1.00  0.00    -0.360 OA
HETATM   28  C1  UNL     1      22.350   9.138  48.980  1.00  0.00     0.209 C 
ENDBRANCH   1  27
BRANCH  17  29
HETATM   29  C17 UNL     1      27.001   0.534  51.630  1.00  0.00     0.265 C 
HETATM   30  O2  UNL     1      26.505  -0.378  52.313  1.00  0.00    -0.302 OA
ENDBRANCH  17  29
TORSDOF 3
ENDMDL
MODEL 9
REMARK VINA RESULT:      -7.5      2.975      7.359
REMARK  3 active torsions:
REMARK  status: ('A' for Active; 'I' for Inactive)
REMARK    1  A    between atoms: O1_2  and  C2_3 
REMARK    2  A    between atoms: C7_8  and  N1_9 
REMARK    3  A    between atoms: C16_20  and  C17_21 
ROOT
HETATM    1  C2  UNL     1      20.657   4.336  47.451  1.00  0.00     0.045 C 
HETATM    2  C3  UNL     1      21.644   5.004  47.995  1.00  0.00     0.032 C 
HETATM    3  C4  UNL     1      22.805   4.957  48.791  1.00  0.00    -0.002 C 
HETATM    4  C5  UNL     1      23.750   4.451  49.521  1.00  0.00    -0.024 C 
HETATM    5  C6  UNL     1      24.069   3.028  49.984  1.00  0.00     0.054 C 
HETATM    6  C7  UNL     1      23.951   3.006  51.472  1.00  0.00     0.131 A 
HETATM    7  C8  UNL     1      23.735   1.609  52.024  1.00  0.00     0.175 A 
HETATM    8  C9  UNL     1      24.867   1.869  52.593  1.00  0.00     0.051 A 
HETATM    9  C10 UNL     1      25.890   1.728  53.652  1.00  0.00     0.059 C 
HETATM   10  P1  UNL     1      25.760  -0.141  54.071  1.00  0.00    -0.064 P 
HETATM   11  C11 UNL     1      24.300  -0.576  53.410  1.00  0.00     0.001 C 
HETATM   12  C12 UNL     1      23.447   0.220  52.523  1.00  0.00     0.068 A 
HETATM   13  C13 UNL     1      23.663   1.474  52.044  1.00  0.00     0.175 A 
HETATM   14  N2  UNL     1      22.406   1.232  51.368  1.00  0.00    -0.042 N 
HETATM   15  C14 UNL     1      21.341   0.426  50.850  1.00  0.00     0.265 C 
HETATM   16  C15 UNL     1      20.387  -0.085  51.885  1.00  0.00     0.011 C 
HETATM   17  C16 UNL     1      19.031  -0.023  52.253  1.00  0.00    -0.017 C 
HETATM   18  C18 UNL     1      18.894   0.827  51.102  1.00  0.00     0.035 C 
HETATM   19  C19 UNL     1      17.958   1.518  50.485  1.00  0.00     0.005 C 
HETATM   20  C20 UNL     1      18.243   2.283  49.273  1.00  0.00     0.023 C 
HETATM   21  C21 UNL     1      18.991   2.786  48.235  1.00  0.00    -0.017 C 
HETATM   22  C22 UNL     1      20.315   2.912  47.489  1.00  0.00     0.065 C 
HETATM   23  H15 UNL     1      21.774   1.977  51.052  1.00  0.00     0.282 HD
ENDROOT
BRANCH   6  24
HETATM   24  N1  UNL     1      24.875   3.891  52.054  1.00  0.00    -0.423 N 
HETATM   25  H10 UNL     1      25.223   4.654  51.472  1.00  0.00     0.150 HD
HETATM   26  H11 UNL     1      24.659   4.112  53.015  1.00  0.00     0.150 HD
ENDBRANCH   6  24
BRANCH   1  27
HETATM   27  O1  UNL     1      19.660   4.848  46.679  1.00  0.00    -0.360 OA
HETATM   28  C1  UNL     1      19.654   5.072  45.302  1.00  0.00     0.209 C 
ENDBRANCH   1  27
BRANCH  17  29
HETATM   29  C17 UNL     1      19.015  -0.812  53.375  1.00  0.00     0.265 C 
HETATM   30  O2  UNL     1      19.965  -1.323  53.992  1.00  0.00    -0.302 OA
ENDBRANCH  17  29
TORSDOF 3
ENDMDL
