MODEL 1
REMARK VINA RESULT:      -8.4      0.000      0.000
REMARK  4 active torsions:
REMARK  status: ('A' for Active; 'I' for Inactive)
REMARK    1  A    between atoms: C7_7  and  C8_8 
REMARK    2  A    between atoms: C8_8  and  O1_9 
REMARK    3  A    between atoms: C13_15  and  C14_16 
REMARK       I    between atoms: C14_16  and  N2_18 
REMARK    4  A    between atoms: N2_18  and  C15_19 
ROOT
HETATM    1  C1  UNL     1      27.239   0.230  54.827  1.00  0.00     0.049 C 
HETATM    2  C2  UNL     1      26.025   0.455  53.962  1.00  0.00    -0.051 A 
HETATM    3  C3  UNL     1      24.748  -0.089  54.116  1.00  0.00     0.039 A 
HETATM    4  C4  UNL     1      23.662   0.173  53.258  1.00  0.00     0.068 A 
HETATM    5  C5  UNL     1      23.937   1.024  52.218  1.00  0.00    -0.010 A 
HETATM    6  C6  UNL     1      25.196   1.557  52.071  1.00  0.00     0.023 A 
HETATM    7  C7  UNL     1      26.254   1.305  52.906  1.00  0.00    -0.028 A 
HETATM    8  C9  UNL     1      23.119   1.406  51.270  1.00  0.00    -0.006 C 
HETATM    9  C10 UNL     1      21.758   1.284  50.741  1.00  0.00     0.043 C 
HETATM   10  C11 UNL     1      21.030   0.085  51.376  1.00  0.00     0.154 C 
HETATM   11  N1  UNL     1      20.593   0.619  52.621  1.00  0.00    -0.303 N 
HETATM   12  C12 UNL     1      20.529   2.059  52.584  1.00  0.00     0.159 C 
HETATM   13  C13 UNL     1      20.860   2.407  51.176  1.00  0.00     0.107 C 
HETATM   14  N3  UNL     1      20.411  -0.573  53.384  1.00  0.00    -0.170 NA
HETATM   15  C19 UNL     1      21.569  -0.963  53.883  1.00  0.00     0.255 C 
HETATM   16  N4  UNL     1      22.826  -0.527  53.848  1.00  0.00    -0.240 NA
ENDROOT
BRANCH  13  17
HETATM   17  C14 UNL     1      21.505   3.739  51.053  1.00  0.00     0.228 C 
HETATM   18  O2  UNL     1      21.780   4.129  49.865  1.00  0.00    -0.273 OA
HETATM   19  N2  UNL     1      21.861   4.642  52.056  1.00  0.00    -0.326 N 
HETATM   20  H16 UNL     1      21.655   4.362  53.035  1.00  0.00     0.169 HD
BRANCH  19  21
HETATM   21  C15 UNL     1      22.450   5.779  51.440  1.00  0.00     0.041 A 
HETATM   22  C16 UNL     1      21.671   6.764  50.906  1.00  0.00     0.037 A 
HETATM   23  C17 UNL     1      22.410   7.873  50.318  1.00  0.00     0.052 A 
HETATM   24  S1  UNL     1      24.205   7.431  50.568  1.00  0.00    -0.111 SA
HETATM   25  C18 UNL     1      23.830   5.823  51.426  1.00  0.00     0.079 A 
ENDBRANCH  19  21
ENDBRANCH  13  17
BRANCH   7  26
HETATM   26  C8  UNL     1      27.590   1.932  52.667  1.00  0.00     0.203 C 
BRANCH  26  27
HETATM   27  O1  UNL     1      27.526   2.937  51.684  1.00  0.00    -0.396 OA
HETATM   28  H8  UNL     1      28.467   3.293  51.627  1.00  0.00     0.209 HD
ENDBRANCH  26  27
ENDBRANCH   7  26
TORSDOF 4
ENDMDL
MODEL 2
REMARK VINA RESULT:      -8.1      3.079      5.212
REMARK  4 active torsions:
REMARK  status: ('A' for Active; 'I' for Inactive)
REMARK    1  A    between atoms: C7_7  and  C8_8 
REMARK    2  A    between atoms: C8_8  and  O1_9 
REMARK    3  A    between atoms: C13_15  and  C14_16 
REMARK       I    between atoms: C14_16  and  N2_18 
REMARK    4  A    between atoms: N2_18  and  C15_19 
ROOT
HETATM    1  C1  UNL     1      27.669  -0.564  52.703  1.00  0.00     0.049 C 
HETATM    2  C2  UNL     1      26.590   0.481  52.571  1.00  0.00    -0.051 A 
HETATM    3  C3  UNL     1      26.573   1.595  51.729  1.00  0.00     0.039 A 
HETATM    4  C4  UNL     1      25.521   2.529  51.667  1.00  0.00     0.068 A 
HETATM    5  C5  UNL     1      24.471   2.279  52.514  1.00  0.00    -0.010 A 
HETATM    6  C6  UNL     1      24.493   1.180  53.341  1.00  0.00     0.023 A 
HETATM    7  C7  UNL     1      25.516   0.268  53.402  1.00  0.00    -0.028 A 
HETATM    8  C9  UNL     1      23.390   3.000  52.671  1.00  0.00    -0.006 C 
HETATM    9  C10 UNL     1      22.684   4.209  52.239  1.00  0.00     0.043 C 
HETATM   10  C11 UNL     1      23.629   5.149  51.468  1.00  0.00     0.154 C 
HETATM   11  N1  UNL     1      23.629   4.576  50.164  1.00  0.00    -0.303 N 
HETATM   12  C12 UNL     1      22.461   3.759  49.947  1.00  0.00     0.159 C 
HETATM   13  C13 UNL     1      21.652   3.935  51.182  1.00  0.00     0.107 C 
HETATM   14  N3  UNL     1      24.850   5.093  49.636  1.00  0.00    -0.170 NA
HETATM   15  C19 UNL     1      25.860   4.344  50.037  1.00  0.00     0.255 C 
HETATM   16  N4  UNL     1      26.011   3.257  50.791  1.00  0.00    -0.240 NA
ENDROOT
BRANCH  13  17
HETATM   17  C14 UNL     1      20.813   2.749  51.491  1.00  0.00     0.228 C 
HETATM   18  O2  UNL     1      19.945   2.894  52.421  1.00  0.00    -0.273 OA
HETATM   19  N2  UNL     1      20.833   1.480  50.909  1.00  0.00    -0.326 N 
HETATM   20  H16 UNL     1      21.524   1.322  50.150  1.00  0.00     0.169 HD
BRANCH  19  21
HETATM   21  C15 UNL     1      19.841   0.687  51.545  1.00  0.00     0.041 A 
HETATM   22  C16 UNL     1      20.113   0.035  52.713  1.00  0.00     0.037 A 
HETATM   23  C17 UNL     1      19.000  -0.731  53.257  1.00  0.00     0.052 A 
HETATM   24  S1  UNL     1      17.608  -0.469  52.044  1.00  0.00    -0.111 SA
HETATM   25  C18 UNL     1      18.609   0.628  50.922  1.00  0.00     0.079 A 
ENDBRANCH  19  21
ENDBRANCH  13  17
BRANCH   7  26
HETATM   26  C8  UNL     1      25.451  -0.899  54.334  1.00  0.00     0.203 C 
BRANCH  26  27
HETATM   27  O1  UNL     1      25.844  -0.548  55.638  1.00  0.00    -0.396 OA
HETATM   28  H8  UNL     1      26.786  -0.207  55.534  1.00  0.00     0.209 HD
ENDBRANCH  26  27
ENDBRANCH   7  26
TORSDOF 4
ENDMDL
MODEL 3
REMARK VINA RESULT:      -7.7      1.846      2.782
REMARK  4 active torsions:
REMARK  status: ('A' for Active; 'I' for Inactive)
REMARK    1  A    between atoms: C7_7  and  C8_8 
REMARK    2  A    between atoms: C8_8  and  O1_9 
REMARK    3  A    between atoms: C13_15  and  C14_16 
REMARK       I    between atoms: C14_16  and  N2_18 
REMARK    4  A    between atoms: N2_18  and  C15_19 
ROOT
HETATM    1  C1  UNL     1      23.369  -1.459  55.629  1.00  0.00     0.049 C 
HETATM    2  C2  UNL     1      22.609  -0.887  54.458  1.00  0.00    -0.051 A 
HETATM    3  C3  UNL     1      21.240  -0.977  54.198  1.00  0.00     0.039 A 
HETATM    4  C4  UNL     1      20.605  -0.413  53.075  1.00  0.00     0.068 A 
HETATM    5  C5  UNL     1      21.437   0.255  52.212  1.00  0.00    -0.010 A 
HETATM    6  C6  UNL     1      22.785   0.340  52.474  1.00  0.00     0.023 A 
HETATM    7  C7  UNL     1      23.405  -0.207  53.568  1.00  0.00    -0.028 A 
HETATM    8  C9  UNL     1      21.109   0.841  51.089  1.00  0.00    -0.006 C 
HETATM    9  C10 UNL     1      20.004   1.147  50.176  1.00  0.00     0.043 C 
HETATM   10  C11 UNL     1      18.773   0.282  50.498  1.00  0.00     0.154 C 
HETATM   11  N1  UNL     1      18.184   0.984  51.588  1.00  0.00    -0.303 N 
HETATM   12  C12 UNL     1      18.605   2.363  51.616  1.00  0.00     0.159 C 
HETATM   13  C13 UNL     1      19.434   2.521  50.391  1.00  0.00     0.107 C 
HETATM   14  N3  UNL     1      17.406  -0.048  52.193  1.00  0.00    -0.170 NA
HETATM   15  C19 UNL     1      18.171  -0.772  52.988  1.00  0.00     0.255 C 
HETATM   16  N4  UNL     1      19.452  -0.773  53.350  1.00  0.00    -0.240 NA
ENDROOT
BRANCH  13  17
HETATM   17  C14 UNL     1      20.482   3.562  50.539  1.00  0.00     0.228 C 
HETATM   18  O2  UNL     1      21.171   3.828  49.493  1.00  0.00    -0.273 OA
HETATM   19  N2  UNL     1      20.833   4.304  51.669  1.00  0.00    -0.326 N 
HETATM   20  H16 UNL     1      20.298   4.117  52.539  1.00  0.00     0.169 HD
BRANCH  19  21
HETATM   21  C15 UNL     1      21.898   5.175  51.312  1.00  0.00     0.041 A 
HETATM   22  C16 UNL     1      23.195   4.757  51.383  1.00  0.00     0.037 A 
HETATM   23  C17 UNL     1      24.178   5.751  50.976  1.00  0.00     0.052 A 
HETATM   24  S1  UNL     1      23.171   7.250  50.510  1.00  0.00    -0.111 SA
HETATM   25  C18 UNL     1      21.539   6.441  50.889  1.00  0.00     0.079 A 
ENDBRANCH  19  21
ENDBRANCH  13  17
BRANCH   7  26
HETATM   26  C8  UNL     1      24.879  -0.062  53.769  1.00  0.00     0.203 C 
BRANCH  26  27
HETATM   27  O1  UNL     1      25.608  -0.908  52.914  1.00  0.00    -0.396 OA
HETATM   28  H8  UNL     1      24.923  -1.551  52.551  1.00  0.00     0.209 HD
ENDBRANCH  26  27
ENDBRANCH   7  26
TORSDOF 4
ENDMDL
MODEL 4
REMARK VINA RESULT:      -7.3      2.513      4.737
REMARK  4 active torsions:
REMARK  status: ('A' for Active; 'I' for Inactive)
REMARK    1  A    between atoms: C7_7  and  C8_8 
REMARK    2  A    between atoms: C8_8  and  O1_9 
REMARK    3  A    between atoms: C13_15  and  C14_16 
REMARK       I    between atoms: C14_16  and  N2_18 
REMARK    4  A    between atoms: N2_18  and  C15_19 
ROOT
HETATM    1  C1  UNL     1      20.465  -1.268  53.579  1.00  0.00     0.049 C 
HETATM    2  C2  UNL     1      21.713  -0.438  53.412  1.00  0.00    -0.051 A 
HETATM    3  C3  UNL     1      23.039  -0.876  53.395  1.00  0.00     0.039 A 
HETATM    4  C4  UNL     1      24.155  -0.032  53.234  1.00  0.00     0.068 A 
HETATM    5  C5  UNL     1      23.858   1.301  53.093  1.00  0.00    -0.010 A 
HETATM    6  C6  UNL     1      22.550   1.726  53.110  1.00  0.00     0.023 A 
HETATM    7  C7  UNL     1      21.463   0.906  53.265  1.00  0.00    -0.028 A 
HETATM    8  C9  UNL     1      24.704   2.290  52.957  1.00  0.00    -0.006 C 
HETATM    9  C10 UNL     1      26.122   2.651  52.879  1.00  0.00     0.043 C 
HETATM   10  C11 UNL     1      27.010   1.488  53.355  1.00  0.00     0.154 C 
HETATM   11  N1  UNL     1      27.067   0.657  52.200  1.00  0.00    -0.303 N 
HETATM   12  C12 UNL     1      26.763   1.398  51.001  1.00  0.00     0.159 C 
HETATM   13  C13 UNL     1      26.607   2.803  51.465  1.00  0.00     0.107 C 
HETATM   14  N3  UNL     1      27.413  -0.600  52.782  1.00  0.00    -0.170 NA
HETATM   15  C19 UNL     1      26.326  -1.193  53.237  1.00  0.00     0.255 C 
HETATM   16  N4  UNL     1      25.025  -0.913  53.283  1.00  0.00    -0.240 NA
ENDROOT
BRANCH  13  17
HETATM   17  C14 UNL     1      25.673   3.585  50.616  1.00  0.00     0.228 C 
HETATM   18  O2  UNL     1      25.431   3.111  49.452  1.00  0.00    -0.273 OA
HETATM   19  N2  UNL     1      25.010   4.779  50.905  1.00  0.00    -0.326 N 
HETATM   20  H16 UNL     1      25.181   5.197  51.840  1.00  0.00     0.169 HD
BRANCH  19  21
HETATM   21  C15 UNL     1      24.227   5.135  49.774  1.00  0.00     0.041 A 
HETATM   22  C16 UNL     1      24.709   6.002  48.837  1.00  0.00     0.037 A 
HETATM   23  C17 UNL     1      23.803   6.266  47.727  1.00  0.00     0.052 A 
HETATM   24  S1  UNL     1      22.290   5.240  48.099  1.00  0.00    -0.111 SA
HETATM   25  C18 UNL     1      22.979   4.550  49.684  1.00  0.00     0.079 A 
ENDBRANCH  19  21
ENDBRANCH  13  17
BRANCH   7  26
HETATM   26  C8  UNL     1      20.075   1.460  53.271  1.00  0.00     0.203 C 
BRANCH  26  27
HETATM   27  O1  UNL     1      20.050   2.808  52.869  1.00  0.00    -0.396 OA
HETATM   28  H8  UNL     1      21.005   3.017  52.627  1.00  0.00     0.209 HD
ENDBRANCH  26  27
ENDBRANCH   7  26
TORSDOF 4
ENDMDL
MODEL 5
REMARK VINA RESULT:      -7.2      2.015      3.024
REMARK  4 active torsions:
REMARK  status: ('A' for Active; 'I' for Inactive)
REMARK    1  A    between atoms: C7_7  and  C8_8 
REMARK    2  A    between atoms: C8_8  and  O1_9 
REMARK    3  A    between atoms: C13_15  and  C14_16 
REMARK       I    between atoms: C14_16  and  N2_18 
REMARK    4  A    between atoms: N2_18  and  C15_19 
ROOT
HETATM    1  C1  UNL     1      25.572   0.422  53.955  1.00  0.00     0.049 C 
HETATM    2  C2  UNL     1      24.724   1.202  52.982  1.00  0.00    -0.051 A 
HETATM    3  C3  UNL     1      23.346   1.422  53.031  1.00  0.00     0.039 A 
HETATM    4  C4  UNL     1      22.625   2.166  52.077  1.00  0.00     0.068 A 
HETATM    5  C5  UNL     1      23.379   2.683  51.053  1.00  0.00    -0.010 A 
HETATM    6  C6  UNL     1      24.736   2.463  51.011  1.00  0.00     0.023 A 
HETATM    7  C7  UNL     1      25.440   1.740  51.939  1.00  0.00    -0.028 A 
HETATM    8  C9  UNL     1      22.954   3.382  50.032  1.00  0.00    -0.006 C 
HETATM    9  C10 UNL     1      21.774   3.964  49.386  1.00  0.00     0.043 C 
HETATM   10  C11 UNL     1      20.481   3.368  49.970  1.00  0.00     0.154 C 
HETATM   11  N1  UNL     1      20.310   4.124  51.165  1.00  0.00    -0.303 N 
HETATM   12  C12 UNL     1      21.021   5.377  51.102  1.00  0.00     0.159 C 
HETATM   13  C13 UNL     1      21.581   5.415  49.725  1.00  0.00     0.107 C 
HETATM   14  N3  UNL     1      19.472   3.254  51.925  1.00  0.00    -0.170 NA
HETATM   15  C19 UNL     1      20.211   2.342  52.529  1.00  0.00     0.255 C 
HETATM   16  N4  UNL     1      21.507   2.048  52.600  1.00  0.00    -0.240 NA
ENDROOT
BRANCH  13  17
HETATM   17  C14 UNL     1      22.840   6.198  49.641  1.00  0.00     0.228 C 
HETATM   18  O2  UNL     1      23.245   6.498  48.463  1.00  0.00    -0.273 OA
HETATM   19  N2  UNL     1      23.660   6.661  50.671  1.00  0.00    -0.326 N 
HETATM   20  H16 UNL     1      23.367   6.438  51.642  1.00  0.00     0.169 HD
BRANCH  19  21
HETATM   21  C15 UNL     1      24.751   7.361  50.088  1.00  0.00     0.041 A 
HETATM   22  C16 UNL     1      25.889   6.701  49.726  1.00  0.00     0.037 A 
HETATM   23  C17 UNL     1      26.918   7.542  49.131  1.00  0.00     0.052 A 
HETATM   24  S1  UNL     1      26.183   9.256  49.124  1.00  0.00    -0.111 SA
HETATM   25  C18 UNL     1      24.581   8.720  49.907  1.00  0.00     0.079 A 
ENDBRANCH  19  21
ENDBRANCH  13  17
BRANCH   7  26
HETATM   26  C8  UNL     1      26.917   1.554  51.811  1.00  0.00     0.203 C 
BRANCH  26  27
HETATM   27  O1  UNL     1      27.610   2.771  51.950  1.00  0.00    -0.396 OA
HETATM   28  H8  UNL     1      28.364   2.560  52.584  1.00  0.00     0.209 HD
ENDBRANCH  26  27
ENDBRANCH   7  26
TORSDOF 4
ENDMDL
MODEL 6
REMARK VINA RESULT:      -7.2      7.823     11.262
REMARK  4 active torsions:
REMARK  status: ('A' for Active; 'I' for Inactive)
REMARK    1  A    between atoms: C7_7  and  C8_8 
REMARK    2  A    between atoms: C8_8  and  O1_9 
REMARK    3  A    between atoms: C13_15  and  C14_16 
REMARK       I    between atoms: C14_16  and  N2_18 
REMARK    4  A    between atoms: N2_18  and  C15_19 
ROOT
HETATM    1  C1  UNL     1      25.292   6.821  50.612  1.00  0.00     0.049 C 
HETATM    2  C2  UNL     1      26.391   7.319  49.708  1.00  0.00    -0.051 A 
HETATM    3  C3  UNL     1      26.892   8.619  49.603  1.00  0.00     0.039 A 
HETATM    4  C4  UNL     1      27.925   9.005  48.727  1.00  0.00     0.068 A 
HETATM    5  C5  UNL     1      28.433   7.996  47.948  1.00  0.00    -0.010 A 
HETATM    6  C6  UNL     1      27.935   6.718  48.056  1.00  0.00     0.023 A 
HETATM    7  C7  UNL     1      26.931   6.340  48.909  1.00  0.00    -0.028 A 
HETATM    8  C9  UNL     1      29.371   8.091  47.040  1.00  0.00    -0.006 C 
HETATM    9  C10 UNL     1      30.295   9.006  46.365  1.00  0.00     0.043 C 
HETATM   10  C11 UNL     1      29.902  10.472  46.625  1.00  0.00     0.154 C 
HETATM   11  N1  UNL     1      30.463  10.713  47.912  1.00  0.00    -0.303 N 
HETATM   12  C12 UNL     1      31.525   9.783  48.207  1.00  0.00     0.159 C 
HETATM   13  C13 UNL     1      31.675   8.985  46.960  1.00  0.00     0.107 C 
HETATM   14  N3  UNL     1      29.679  11.821  48.352  1.00  0.00    -0.170 NA
HETATM   15  C19 UNL     1      28.540  11.386  48.857  1.00  0.00     0.255 C 
HETATM   16  N4  UNL     1      27.964  10.201  49.050  1.00  0.00    -0.240 NA
ENDROOT
BRANCH  13  17
HETATM   17  C14 UNL     1      32.169   7.609  47.217  1.00  0.00     0.228 C 
HETATM   18  O2  UNL     1      32.521   6.931  46.190  1.00  0.00    -0.273 OA
HETATM   19  N2  UNL     1      32.309   6.936  48.432  1.00  0.00    -0.326 N 
HETATM   20  H16 UNL     1      32.034   7.452  49.290  1.00  0.00     0.169 HD
BRANCH  19  21
HETATM   21  C15 UNL     1      32.823   5.639  48.162  1.00  0.00     0.041 A 
HETATM   22  C16 UNL     1      31.989   4.617  47.812  1.00  0.00     0.037 A 
HETATM   23  C17 UNL     1      32.655   3.348  47.553  1.00  0.00     0.052 A 
HETATM   24  S1  UNL     1      34.465   3.698  47.833  1.00  0.00    -0.111 SA
HETATM   25  C18 UNL     1      34.192   5.488  48.266  1.00  0.00     0.079 A 
ENDBRANCH  19  21
ENDBRANCH  13  17
BRANCH   7  26
HETATM   26  C8  UNL     1      26.455   4.924  48.957  1.00  0.00     0.203 C 
BRANCH  26  27
HETATM   27  O1  UNL     1      27.321   4.107  49.707  1.00  0.00    -0.396 OA
HETATM   28  H8  UNL     1      26.831   3.231  49.792  1.00  0.00     0.209 HD
ENDBRANCH  26  27
ENDBRANCH   7  26
TORSDOF 4
ENDMDL
MODEL 7
REMARK VINA RESULT:      -7.1      3.063      6.055
REMARK  4 active torsions:
REMARK  status: ('A' for Active; 'I' for Inactive)
REMARK    1  A    between atoms: C7_7  and  C8_8 
REMARK    2  A    between atoms: C8_8  and  O1_9 
REMARK    3  A    between atoms: C13_15  and  C14_16 
REMARK       I    between atoms: C14_16  and  N2_18 
REMARK    4  A    between atoms: N2_18  and  C15_19 
ROOT
HETATM    1  C1  UNL     1      24.949   7.303  47.313  1.00  0.00     0.049 C 
HETATM    2  C2  UNL     1      24.403   6.387  48.379  1.00  0.00    -0.051 A 
HETATM    3  C3  UNL     1      23.257   5.591  48.322  1.00  0.00     0.039 A 
HETATM    4  C4  UNL     1      22.813   4.760  49.368  1.00  0.00     0.068 A 
HETATM    5  C5  UNL     1      23.596   4.775  50.495  1.00  0.00    -0.010 A 
HETATM    6  C6  UNL     1      24.724   5.561  50.544  1.00  0.00     0.023 A 
HETATM    7  C7  UNL     1      25.159   6.370  49.527  1.00  0.00    -0.028 A 
HETATM    8  C9  UNL     1      23.394   4.120  51.609  1.00  0.00    -0.006 C 
HETATM    9  C10 UNL     1      22.502   3.190  52.307  1.00  0.00     0.043 C 
HETATM   10  C11 UNL     1      21.150   3.079  51.579  1.00  0.00     0.154 C 
HETATM   11  N1  UNL     1      21.442   2.155  50.535  1.00  0.00    -0.303 N 
HETATM   12  C12 UNL     1      22.599   1.354  50.848  1.00  0.00     0.159 C 
HETATM   13  C13 UNL     1      22.970   1.765  52.229  1.00  0.00     0.107 C 
HETATM   14  N3  UNL     1      20.406   2.458  49.602  1.00  0.00    -0.170 NA
HETATM   15  C19 UNL     1      20.758   3.498  48.870  1.00  0.00     0.255 C 
HETATM   16  N4  UNL     1      21.812   4.307  48.793  1.00  0.00    -0.240 NA
ENDROOT
BRANCH  13  17
HETATM   17  C14 UNL     1      24.423   1.621  52.498  1.00  0.00     0.228 C 
HETATM   18  O2  UNL     1      24.823   1.973  53.662  1.00  0.00    -0.273 OA
HETATM   19  N2  UNL     1      25.433   1.153  51.655  1.00  0.00    -0.326 N 
HETATM   20  H16 UNL     1      25.150   0.858  50.701  1.00  0.00     0.169 HD
BRANCH  19  21
HETATM   21  C15 UNL     1      26.662   1.206  52.366  1.00  0.00     0.041 A 
HETATM   22  C16 UNL     1      27.314   2.391  52.546  1.00  0.00     0.037 A 
HETATM   23  C17 UNL     1      28.555   2.296  53.303  1.00  0.00     0.052 A 
HETATM   24  S1  UNL     1      28.717   0.485  53.718  1.00  0.00    -0.111 SA
HETATM   25  C18 UNL     1      27.137   0.006  52.860  1.00  0.00     0.079 A 
ENDBRANCH  19  21
ENDBRANCH  13  17
BRANCH   7  26
HETATM   26  C8  UNL     1      26.401   7.189  49.672  1.00  0.00     0.203 C 
BRANCH  26  27
HETATM   27  O1  UNL     1      26.391   7.946  50.858  1.00  0.00    -0.396 OA
HETATM   28  H8  UNL     1      25.463   7.820  51.229  1.00  0.00     0.209 HD
ENDBRANCH  26  27
ENDBRANCH   7  26
TORSDOF 4
ENDMDL
MODEL 8
REMARK VINA RESULT:      -7.0      2.777      5.761
REMARK  4 active torsions:
REMARK  status: ('A' for Active; 'I' for Inactive)
REMARK    1  A    between atoms: C7_7  and  C8_8 
REMARK    2  A    between atoms: C8_8  and  O1_9 
REMARK    3  A    between atoms: C13_15  and  C14_16 
REMARK       I    between atoms: C14_16  and  N2_18 
REMARK    4  A    between atoms: N2_18  and  C15_19 
ROOT
HETATM    1  C1  UNL     1      23.410   6.225  48.091  1.00  0.00     0.049 C 
HETATM    2  C2  UNL     1      22.979   5.217  49.126  1.00  0.00    -0.051 A 
HETATM    3  C3  UNL     1      21.890   4.344  49.071  1.00  0.00     0.039 A 
HETATM    4  C4  UNL     1      21.554   3.428  50.086  1.00  0.00     0.068 A 
HETATM    5  C5  UNL     1      22.385   3.440  51.179  1.00  0.00    -0.010 A 
HETATM    6  C6  UNL     1      23.456   4.302  51.226  1.00  0.00     0.023 A 
HETATM    7  C7  UNL     1      23.786   5.194  50.238  1.00  0.00    -0.028 A 
HETATM    8  C9  UNL     1      22.279   2.714  52.262  1.00  0.00    -0.006 C 
HETATM    9  C10 UNL     1      21.487   1.686  52.942  1.00  0.00     0.043 C 
HETATM   10  C11 UNL     1      20.115   1.515  52.266  1.00  0.00     0.154 C 
HETATM   11  N1  UNL     1      20.424   0.672  51.161  1.00  0.00    -0.303 N 
HETATM   12  C12 UNL     1      21.647  -0.058  51.380  1.00  0.00     0.159 C 
HETATM   13  C13 UNL     1      22.051   0.304  52.765  1.00  0.00     0.107 C 
HETATM   14  N3  UNL     1      19.328   0.948  50.289  1.00  0.00    -0.170 NA
HETATM   15  C19 UNL     1      19.572   2.049  49.603  1.00  0.00     0.255 C 
HETATM   16  N4  UNL     1      20.562   2.936  49.529  1.00  0.00    -0.240 NA
ENDROOT
BRANCH  13  17
HETATM   17  C14 UNL     1      23.521   0.252  52.964  1.00  0.00     0.228 C 
HETATM   18  O2  UNL     1      23.932  -0.376  54.002  1.00  0.00    -0.273 OA
HETATM   19  N2  UNL     1      24.537   0.797  52.177  1.00  0.00    -0.326 N 
HETATM   20  H16 UNL     1      24.245   1.316  51.326  1.00  0.00     0.169 HD
BRANCH  19  21
HETATM   21  C15 UNL     1      25.783   0.481  52.782  1.00  0.00     0.041 A 
HETATM   22  C16 UNL     1      26.480  -0.631  52.404  1.00  0.00     0.037 A 
HETATM   23  C17 UNL     1      27.745  -0.823  53.100  1.00  0.00     0.052 A 
HETATM   24  S1  UNL     1      27.863   0.623  54.273  1.00  0.00    -0.111 SA
HETATM   25  C18 UNL     1      26.236   1.358  53.748  1.00  0.00     0.079 A 
ENDBRANCH  19  21
ENDBRANCH  13  17
BRANCH   7  26
HETATM   26  C8  UNL     1      24.972   6.092  50.378  1.00  0.00     0.203 C 
BRANCH  26  27
HETATM   27  O1  UNL     1      24.834   6.974  51.465  1.00  0.00    -0.396 OA
HETATM   28  H8  UNL     1      23.843   6.999  51.644  1.00  0.00     0.209 HD
ENDBRANCH  26  27
ENDBRANCH   7  26
TORSDOF 4
ENDMDL
MODEL 9
REMARK VINA RESULT:      -7.0      3.389      5.590
REMARK  4 active torsions:
REMARK  status: ('A' for Active; 'I' for Inactive)
REMARK    1  A    between atoms: C7_7  and  C8_8 
REMARK    2  A    between atoms: C8_8  and  O1_9 
REMARK    3  A    between atoms: C13_15  and  C14_16 
REMARK       I    between atoms: C14_16  and  N2_18 
REMARK    4  A    between atoms: N2_18  and  C15_19 
ROOT
HETATM    1  C1  UNL     1      26.382   0.338  52.113  1.00  0.00     0.049 C 
HETATM    2  C2  UNL     1      25.158   1.209  51.989  1.00  0.00    -0.051 A 
HETATM    3  C3  UNL     1      24.963   2.298  51.136  1.00  0.00     0.039 A 
HETATM    4  C4  UNL     1      23.783   3.065  51.082  1.00  0.00     0.068 A 
HETATM    5  C5  UNL     1      22.795   2.672  51.949  1.00  0.00    -0.010 A 
HETATM    6  C6  UNL     1      22.993   1.599  52.786  1.00  0.00     0.023 A 
HETATM    7  C7  UNL     1      24.140   0.850  52.839  1.00  0.00    -0.028 A 
HETATM    8  C9  UNL     1      21.622   3.228  52.117  1.00  0.00    -0.006 C 
HETATM    9  C10 UNL     1      20.738   4.313  51.684  1.00  0.00     0.043 C 
HETATM   10  C11 UNL     1      21.521   5.373  50.888  1.00  0.00     0.154 C 
HETATM   11  N1  UNL     1      21.587   4.790  49.590  1.00  0.00    -0.303 N 
HETATM   12  C12 UNL     1      20.550   3.806  49.401  1.00  0.00     0.159 C 
HETATM   13  C13 UNL     1      19.742   3.876  50.648  1.00  0.00     0.107 C 
HETATM   14  N3  UNL     1      22.709   5.475  49.037  1.00  0.00    -0.170 NA
HETATM   15  C19 UNL     1      23.825   4.890  49.428  1.00  0.00     0.255 C 
HETATM   16  N4  UNL     1      24.146   3.846  50.190  1.00  0.00    -0.240 NA
ENDROOT
BRANCH  13  17
HETATM   17  C14 UNL     1      19.093   2.583  50.982  1.00  0.00     0.228 C 
HETATM   18  O2  UNL     1      18.127   2.632  51.821  1.00  0.00    -0.273 OA
HETATM   19  N2  UNL     1      19.386   1.302  50.511  1.00  0.00    -0.326 N 
HETATM   20  H16 UNL     1      20.165   1.219  49.829  1.00  0.00     0.169 HD
BRANCH  19  21
HETATM   21  C15 UNL     1      18.489   0.388  51.126  1.00  0.00     0.041 A 
HETATM   22  C16 UNL     1      17.317   0.045  50.516  1.00  0.00     0.037 A 
HETATM   23  C17 UNL     1      16.502  -0.909  51.256  1.00  0.00     0.052 A 
HETATM   24  S1  UNL     1      17.478  -1.263  52.806  1.00  0.00    -0.111 SA
HETATM   25  C18 UNL     1      18.877  -0.125  52.348  1.00  0.00     0.079 A 
ENDBRANCH  19  21
ENDBRANCH  13  17
BRANCH   7  26
HETATM   26  C8  UNL     1      24.263  -0.302  53.784  1.00  0.00     0.203 C 
BRANCH  26  27
HETATM   27  O1  UNL     1      23.009  -0.860  54.093  1.00  0.00    -0.396 OA
HETATM   28  H8  UNL     1      22.343  -0.207  53.715  1.00  0.00     0.209 HD
ENDBRANCH  26  27
ENDBRANCH   7  26
TORSDOF 4
ENDMDL
