MODEL 1
REMARK VINA RESULT:      -7.6      0.000      0.000
REMARK  5 active torsions:
REMARK  status: ('A' for Active; 'I' for Inactive)
REMARK    1  A    between atoms: C2_2  and  C3_3 
REMARK       I    between atoms: C3_3  and  N1_5 
REMARK    2  A    between atoms: N1_5  and  C4_6 
REMARK    3  A    between atoms: C8_10  and  N2_11 
REMARK    4  A    between atoms: N2_11  and  C9_12 
REMARK    5  A    between atoms: N4_17  and  C13_18 
ROOT
HETATM    1  N2  UNL     1      22.181   1.005  52.309  1.00  0.00    -0.342 N 
HETATM    2  H8  UNL     1      21.498   1.441  52.994  1.00  0.00     0.167 HD
ENDROOT
BRANCH   1   3
HETATM    3  C8  UNL     1      22.916   0.243  53.258  1.00  0.00     0.035 A 
HETATM    4  C7  UNL     1      22.228  -0.443  54.252  1.00  0.00     0.029 A 
HETATM    5  C6  UNL     1      22.920  -1.184  55.182  1.00  0.00     0.004 A 
HETATM    6  C5  UNL     1      24.286  -1.183  55.047  1.00  0.00     0.029 A 
HETATM    7  C4  UNL     1      25.032  -0.522  54.082  1.00  0.00     0.036 A 
HETATM    8  C15 UNL     1      24.299   0.208  53.169  1.00  0.00     0.059 A 
BRANCH   7   9
HETATM    9  N1  UNL     1      26.458  -0.643  54.110  1.00  0.00    -0.327 N 
HETATM   10  C3  UNL     1      27.514   0.217  54.558  1.00  0.00     0.222 C 
HETATM   11  O1  UNL     1      26.897   1.248  54.985  1.00  0.00    -0.273 OA
HETATM   12  H4  UNL     1      26.449  -1.604  53.679  1.00  0.00     0.169 HD
BRANCH  10  13
HETATM   13  C2  UNL     1      28.854  -0.329  54.389  1.00  0.00     0.062 C 
HETATM   14  C1  UNL     1      29.590  -1.036  53.515  1.00  0.00     0.051 C 
ENDBRANCH  10  13
ENDBRANCH   7   9
ENDBRANCH   1   3
BRANCH   1  15
HETATM   15  C9  UNL     1      22.024   1.373  50.947  1.00  0.00     0.112 A 
HETATM   16  C10 UNL     1      21.486   0.648  49.979  1.00  0.00     0.067 A 
HETATM   17  C11 UNL     1      21.438   1.244  48.661  1.00  0.00     0.116 A 
HETATM   18  N3  UNL     1      21.873   2.404  48.376  1.00  0.00    -0.282 NA
HETATM   19  C12 UNL     1      22.471   3.266  49.343  1.00  0.00     0.281 A 
HETATM   20  N4  UNL     1      22.525   2.697  50.675  1.00  0.00    -0.299 N 
BRANCH  20  21
HETATM   21  C13 UNL     1      23.109   3.552  51.682  1.00  0.00     0.148 A 
HETATM   22  N5  UNL     1      24.303   3.532  52.210  1.00  0.00    -0.164 NA
HETATM   23  N6  UNL     1      23.900   4.630  52.977  1.00  0.00    -0.305 N 
HETATM   24  C14 UNL     1      22.553   4.727  52.447  1.00  0.00     0.222 A 
HETATM   25  H13 UNL     1      24.176   5.325  53.705  1.00  0.00     0.182 HD
ENDBRANCH  20  21
ENDBRANCH   1  15
TORSDOF 5
ENDMDL
MODEL 2
REMARK VINA RESULT:      -7.6      2.986      6.090
REMARK  5 active torsions:
REMARK  status: ('A' for Active; 'I' for Inactive)
REMARK    1  A    between atoms: C2_2  and  C3_3 
REMARK       I    between atoms: C3_3  and  N1_5 
REMARK    2  A    between atoms: N1_5  and  C4_6 
REMARK    3  A    between atoms: C8_10  and  N2_11 
REMARK    4  A    between atoms: N2_11  and  C9_12 
REMARK    5  A    between atoms: N4_17  and  C13_18 
ROOT
HETATM    1  N2  UNL     1      23.852   0.936  52.573  1.00  0.00    -0.342 N 
HETATM    2  H8  UNL     1      24.866   1.162  52.792  1.00  0.00     0.167 HD
ENDROOT
BRANCH   1   3
HETATM    3  C8  UNL     1      23.767   1.672  51.360  1.00  0.00     0.035 A 
HETATM    4  C7  UNL     1      22.606   1.592  50.601  1.00  0.00     0.029 A 
HETATM    5  C6  UNL     1      22.505   2.294  49.422  1.00  0.00     0.004 A 
HETATM    6  C5  UNL     1      23.602   3.044  49.079  1.00  0.00     0.029 A 
HETATM    7  C4  UNL     1      24.788   3.166  49.789  1.00  0.00     0.036 A 
HETATM    8  C15 UNL     1      24.847   2.446  50.965  1.00  0.00     0.059 A 
BRANCH   7   9
HETATM    9  N1  UNL     1      25.825   4.000  49.261  1.00  0.00    -0.327 N 
HETATM   10  C3  UNL     1      26.140   5.392  49.402  1.00  0.00     0.222 C 
HETATM   11  O1  UNL     1      25.225   5.828  50.176  1.00  0.00    -0.273 OA
HETATM   12  H4  UNL     1      26.276   3.212  48.729  1.00  0.00     0.169 HD
BRANCH  10  13
HETATM   13  C2  UNL     1      27.320   5.824  48.665  1.00  0.00     0.062 C 
HETATM   14  C1  UNL     1      28.548   5.402  48.323  1.00  0.00     0.051 C 
ENDBRANCH  10  13
ENDBRANCH   7   9
ENDBRANCH   1   3
BRANCH   1  15
HETATM   15  C9  UNL     1      23.180   0.108  53.510  1.00  0.00     0.112 A 
HETATM   16  C10 UNL     1      21.872  -0.028  53.664  1.00  0.00     0.067 A 
HETATM   17  C11 UNL     1      21.423  -0.939  54.695  1.00  0.00     0.116 A 
HETATM   18  N3  UNL     1      22.193  -1.609  55.453  1.00  0.00    -0.282 NA
HETATM   19  C12 UNL     1      23.616  -1.536  55.371  1.00  0.00     0.281 A 
HETATM   20  N4  UNL     1      24.094  -0.636  54.341  1.00  0.00    -0.299 N 
BRANCH  20  21
HETATM   21  C13 UNL     1      25.530  -0.552  54.220  1.00  0.00     0.148 A 
HETATM   22  N5  UNL     1      26.343  -1.181  53.414  1.00  0.00    -0.164 NA
HETATM   23  N6  UNL     1      27.381  -0.475  54.032  1.00  0.00    -0.305 N 
HETATM   24  C14 UNL     1      26.555   0.268  54.964  1.00  0.00     0.222 A 
HETATM   25  H13 UNL     1      28.410  -0.303  54.066  1.00  0.00     0.182 HD
ENDBRANCH  20  21
ENDBRANCH   1  15
TORSDOF 5
ENDMDL
MODEL 3
REMARK VINA RESULT:      -7.5      2.480      6.587
REMARK  5 active torsions:
REMARK  status: ('A' for Active; 'I' for Inactive)
REMARK    1  A    between atoms: C2_2  and  C3_3 
REMARK       I    between atoms: C3_3  and  N1_5 
REMARK    2  A    between atoms: N1_5  and  C4_6 
REMARK    3  A    between atoms: C8_10  and  N2_11 
REMARK    4  A    between atoms: N2_11  and  C9_12 
REMARK    5  A    between atoms: N4_17  and  C13_18 
ROOT
HETATM    1  N2  UNL     1      26.110   0.211  52.355  1.00  0.00    -0.342 N 
HETATM    2  H8  UNL     1      26.473   1.027  51.782  1.00  0.00     0.167 HD
ENDROOT
BRANCH   1   3
HETATM    3  C8  UNL     1      24.775   0.679  52.498  1.00  0.00     0.035 A 
HETATM    4  C7  UNL     1      23.868  -0.079  53.229  1.00  0.00     0.029 A 
HETATM    5  C6  UNL     1      22.571   0.355  53.377  1.00  0.00     0.004 A 
HETATM    6  C5  UNL     1      22.267   1.546  52.766  1.00  0.00     0.029 A 
HETATM    7  C4  UNL     1      23.122   2.348  52.024  1.00  0.00     0.036 A 
HETATM    8  C15 UNL     1      24.414   1.877  51.901  1.00  0.00     0.059 A 
BRANCH   7   9
HETATM    9  N1  UNL     1      22.614   3.562  51.460  1.00  0.00    -0.327 N 
HETATM   10  C3  UNL     1      22.632   4.931  51.885  1.00  0.00     0.222 C 
HETATM   11  O1  UNL     1      23.256   4.890  52.996  1.00  0.00    -0.273 OA
HETATM   12  H4  UNL     1      22.221   3.078  50.612  1.00  0.00     0.169 HD
BRANCH  10  13
HETATM   13  C2  UNL     1      21.975   5.857  50.973  1.00  0.00     0.062 C 
HETATM   14  C1  UNL     1      21.668   7.159  50.850  1.00  0.00     0.051 C 
ENDBRANCH  10  13
ENDBRANCH   7   9
ENDBRANCH   1   3
BRANCH   1  15
HETATM   15  C9  UNL     1      27.048  -0.813  52.651  1.00  0.00     0.112 A 
HETATM   16  C10 UNL     1      26.879  -2.118  52.509  1.00  0.00     0.067 A 
HETATM   17  C11 UNL     1      27.990  -2.968  52.883  1.00  0.00     0.116 A 
HETATM   18  N3  UNL     1      29.102  -2.548  53.332  1.00  0.00    -0.282 NA
HETATM   19  C12 UNL     1      29.386  -1.163  53.525  1.00  0.00     0.281 A 
HETATM   20  N4  UNL     1      28.294  -0.288  53.151  1.00  0.00    -0.299 N 
BRANCH  20  21
HETATM   21  C13 UNL     1      28.557   1.122  53.317  1.00  0.00     0.148 A 
HETATM   22  N5  UNL     1      28.227   2.132  52.558  1.00  0.00    -0.164 NA
HETATM   23  N6  UNL     1      28.873   2.948  53.493  1.00  0.00    -0.305 N 
HETATM   24  C14 UNL     1      29.282   1.889  54.395  1.00  0.00     0.222 A 
HETATM   25  H13 UNL     1      29.139   3.924  53.752  1.00  0.00     0.182 HD
ENDBRANCH  20  21
ENDBRANCH   1  15
TORSDOF 5
ENDMDL
MODEL 4
REMARK VINA RESULT:      -7.4      3.244      6.842
REMARK  5 active torsions:
REMARK  status: ('A' for Active; 'I' for Inactive)
REMARK    1  A    between atoms: C2_2  and  C3_3 
REMARK       I    between atoms: C3_3  and  N1_5 
REMARK    2  A    between atoms: N1_5  and  C4_6 
REMARK    3  A    between atoms: C8_10  and  N2_11 
REMARK    4  A    between atoms: N2_11  and  C9_12 
REMARK    5  A    between atoms: N4_17  and  C13_18 
ROOT
HETATM    1  N2  UNL     1      25.643  -0.251  53.393  1.00  0.00    -0.342 N 
HETATM    2  H8  UNL     1      25.782  -1.121  52.801  1.00  0.00     0.167 HD
ENDROOT
BRANCH   1   3
HETATM    3  C8  UNL     1      24.322  -0.544  53.827  1.00  0.00     0.035 A 
HETATM    4  C7  UNL     1      24.138  -1.183  55.047  1.00  0.00     0.029 A 
HETATM    5  C6  UNL     1      22.868  -1.479  55.485  1.00  0.00     0.004 A 
HETATM    6  C5  UNL     1      21.847  -1.105  54.646  1.00  0.00     0.029 A 
HETATM    7  C4  UNL     1      21.962  -0.467  53.420  1.00  0.00     0.036 A 
HETATM    8  C15 UNL     1      23.253  -0.188  53.019  1.00  0.00     0.059 A 
BRANCH   7   9
HETATM    9  N1  UNL     1      20.770  -0.160  52.688  1.00  0.00    -0.327 N 
HETATM   10  C3  UNL     1      20.000   1.037  52.513  1.00  0.00     0.222 C 
HETATM   11  O1  UNL     1      20.630   1.900  53.207  1.00  0.00    -0.273 OA
HETATM   12  H4  UNL     1      20.666  -1.141  52.321  1.00  0.00     0.169 HD
BRANCH  10  13
HETATM   13  C2  UNL     1      18.830   0.885  51.658  1.00  0.00     0.062 C 
HETATM   14  C1  UNL     1      18.264   0.010  50.810  1.00  0.00     0.051 C 
ENDBRANCH  10  13
ENDBRANCH   7   9
ENDBRANCH   1   3
BRANCH   1  15
HETATM   15  C9  UNL     1      26.733   0.658  53.435  1.00  0.00     0.112 A 
HETATM   16  C10 UNL     1      26.673   1.974  53.561  1.00  0.00     0.067 A 
HETATM   17  C11 UNL     1      27.931   2.691  53.577  1.00  0.00     0.116 A 
HETATM   18  N3  UNL     1      29.075   2.145  53.478  1.00  0.00    -0.282 NA
HETATM   19  C12 UNL     1      29.251   0.736  53.336  1.00  0.00     0.281 A 
HETATM   20  N4  UNL     1      28.008  -0.007  53.325  1.00  0.00    -0.299 N 
BRANCH  20  21
HETATM   21  C13 UNL     1      28.152  -1.439  53.200  1.00  0.00     0.148 A 
HETATM   22  N5  UNL     1      27.265  -2.349  52.900  1.00  0.00    -0.164 NA
HETATM   23  N6  UNL     1      28.295  -3.287  53.030  1.00  0.00    -0.305 N 
HETATM   24  C14 UNL     1      29.345  -2.347  53.371  1.00  0.00     0.222 A 
HETATM   25  H13 UNL     1      28.558  -4.296  52.978  1.00  0.00     0.182 HD
ENDBRANCH  20  21
ENDBRANCH   1  15
TORSDOF 5
ENDMDL
MODEL 5
REMARK VINA RESULT:      -7.4      3.617      4.719
REMARK  5 active torsions:
REMARK  status: ('A' for Active; 'I' for Inactive)
REMARK    1  A    between atoms: C2_2  and  C3_3 
REMARK       I    between atoms: C3_3  and  N1_5 
REMARK    2  A    between atoms: N1_5  and  C4_6 
REMARK    3  A    between atoms: C8_10  and  N2_11 
REMARK    4  A    between atoms: N2_11  and  C9_12 
REMARK    5  A    between atoms: N4_17  and  C13_18 
ROOT
HETATM    1  N2  UNL     1      25.591   4.192  49.627  1.00  0.00    -0.342 N 
HETATM    2  H8  UNL     1      24.667   4.105  49.111  1.00  0.00     0.167 HD
ENDROOT
BRANCH   1   3
HETATM    3  C8  UNL     1      25.402   3.094  50.509  1.00  0.00     0.035 A 
HETATM    4  C7  UNL     1      24.111   2.641  50.757  1.00  0.00     0.029 A 
HETATM    5  C6  UNL     1      23.906   1.581  51.610  1.00  0.00     0.004 A 
HETATM    6  C5  UNL     1      25.036   1.039  52.169  1.00  0.00     0.029 A 
HETATM    7  C4  UNL     1      26.347   1.443  51.966  1.00  0.00     0.036 A 
HETATM    8  C15 UNL     1      26.509   2.507  51.102  1.00  0.00     0.059 A 
BRANCH   7   9
HETATM    9  N1  UNL     1      27.397   0.747  52.646  1.00  0.00    -0.327 N 
HETATM   10  C3  UNL     1      28.180   1.036  53.812  1.00  0.00     0.222 C 
HETATM   11  O1  UNL     1      27.733   2.166  54.198  1.00  0.00    -0.273 OA
HETATM   12  H4  UNL     1      27.383  -0.063  51.974  1.00  0.00     0.169 HD
BRANCH  10  13
HETATM   13  C2  UNL     1      29.164   0.017  54.151  1.00  0.00     0.062 C 
HETATM   14  C1  UNL     1      29.808  -1.031  53.611  1.00  0.00     0.051 C 
ENDBRANCH  10  13
ENDBRANCH   7   9
ENDBRANCH   1   3
BRANCH   1  15
HETATM   15  C9  UNL     1      26.442   5.249  49.211  1.00  0.00     0.112 A 
HETATM   16  C10 UNL     1      27.589   5.144  48.557  1.00  0.00     0.067 A 
HETATM   17  C11 UNL     1      28.281   6.375  48.243  1.00  0.00     0.116 A 
HETATM   18  N3  UNL     1      27.866   7.537  48.551  1.00  0.00    -0.282 NA
HETATM   19  C12 UNL     1      26.647   7.761  49.257  1.00  0.00     0.281 A 
HETATM   20  N4  UNL     1      25.927   6.546  49.577  1.00  0.00    -0.299 N 
BRANCH  20  21
HETATM   21  C13 UNL     1      24.678   6.739  50.276  1.00  0.00     0.148 A 
HETATM   22  N5  UNL     1      24.338   6.409  51.492  1.00  0.00    -0.164 NA
HETATM   23  N6  UNL     1      23.086   6.969  51.212  1.00  0.00    -0.305 N 
HETATM   24  C14 UNL     1      23.377   7.372  49.850  1.00  0.00     0.222 A 
HETATM   25  H13 UNL     1      22.132   7.180  51.578  1.00  0.00     0.182 HD
ENDBRANCH  20  21
ENDBRANCH   1  15
TORSDOF 5
ENDMDL
MODEL 6
REMARK VINA RESULT:      -7.2      2.225      4.014
REMARK  5 active torsions:
REMARK  status: ('A' for Active; 'I' for Inactive)
REMARK    1  A    between atoms: C2_2  and  C3_3 
REMARK       I    between atoms: C3_3  and  N1_5 
REMARK    2  A    between atoms: N1_5  and  C4_6 
REMARK    3  A    between atoms: C8_10  and  N2_11 
REMARK    4  A    between atoms: N2_11  and  C9_12 
REMARK    5  A    between atoms: N4_17  and  C13_18 
ROOT
HETATM    1  N2  UNL     1      22.690   1.413  52.944  1.00  0.00    -0.342 N 
HETATM    2  H8  UNL     1      22.413   2.411  53.178  1.00  0.00     0.167 HD
ENDROOT
BRANCH   1   3
HETATM    3  C8  UNL     1      23.951   1.714  52.362  1.00  0.00     0.035 A 
HETATM    4  C7  UNL     1      24.008   2.606  51.298  1.00  0.00     0.029 A 
HETATM    5  C6  UNL     1      25.219   2.909  50.718  1.00  0.00     0.004 A 
HETATM    6  C5  UNL     1      26.312   2.279  51.258  1.00  0.00     0.029 A 
HETATM    7  C4  UNL     1      26.323   1.380  52.315  1.00  0.00     0.036 A 
HETATM    8  C15 UNL     1      25.089   1.105  52.868  1.00  0.00     0.059 A 
BRANCH   7   9
HETATM    9  N1  UNL     1      27.574   0.825  52.735  1.00  0.00    -0.327 N 
HETATM   10  C3  UNL     1      28.608   1.276  53.620  1.00  0.00     0.222 C 
HETATM   11  O1  UNL     1      28.179   2.405  54.028  1.00  0.00    -0.273 OA
HETATM   12  H4  UNL     1      27.456  -0.045  52.153  1.00  0.00     0.169 HD
BRANCH  10  13
HETATM   13  C2  UNL     1      29.734   0.362  53.753  1.00  0.00     0.062 C 
HETATM   14  C1  UNL     1      30.048  -0.935  53.599  1.00  0.00     0.051 C 
ENDBRANCH  10  13
ENDBRANCH   7   9
ENDBRANCH   1   3
BRANCH   1  15
HETATM   15  C9  UNL     1      21.752   0.406  53.295  1.00  0.00     0.112 A 
HETATM   16  C10 UNL     1      21.994  -0.718  53.952  1.00  0.00     0.067 A 
HETATM   17  C11 UNL     1      20.867  -1.594  54.190  1.00  0.00     0.116 A 
HETATM   18  N3  UNL     1      19.675  -1.358  53.815  1.00  0.00    -0.282 NA
HETATM   19  C12 UNL     1      19.308  -0.179  53.101  1.00  0.00     0.281 A 
HETATM   20  N4  UNL     1      20.416   0.721  52.854  1.00  0.00    -0.299 N 
BRANCH  20  21
HETATM   21  C13 UNL     1      20.074   1.933  52.147  1.00  0.00     0.148 A 
HETATM   22  N5  UNL     1      20.029   3.167  52.571  1.00  0.00    -0.164 NA
HETATM   23  N6  UNL     1      19.640   3.518  51.274  1.00  0.00    -0.305 N 
HETATM   24  C14 UNL     1      19.663   2.179  50.717  1.00  0.00     0.222 A 
HETATM   25  H13 UNL     1      19.371   4.296  50.632  1.00  0.00     0.182 HD
ENDBRANCH  20  21
ENDBRANCH   1  15
TORSDOF 5
ENDMDL
MODEL 7
REMARK VINA RESULT:      -7.2      2.825      6.229
REMARK  5 active torsions:
REMARK  status: ('A' for Active; 'I' for Inactive)
REMARK    1  A    between atoms: C2_2  and  C3_3 
REMARK       I    between atoms: C3_3  and  N1_5 
REMARK    2  A    between atoms: N1_5  and  C4_6 
REMARK    3  A    between atoms: C8_10  and  N2_11 
REMARK    4  A    between atoms: N2_11  and  C9_12 
REMARK    5  A    between atoms: N4_17  and  C13_18 
ROOT
HETATM    1  N2  UNL     1      25.330   0.105  53.227  1.00  0.00    -0.342 N 
HETATM    2  H8  UNL     1      25.250  -0.048  52.180  1.00  0.00     0.167 HD
ENDROOT
BRANCH   1   3
HETATM    3  C8  UNL     1      23.982  -0.206  53.553  1.00  0.00     0.035 A 
HETATM    4  C7  UNL     1      23.712  -0.885  54.735  1.00  0.00     0.029 A 
HETATM    5  C6  UNL     1      22.414  -1.198  55.068  1.00  0.00     0.004 A 
HETATM    6  C5  UNL     1      21.456  -0.801  54.168  1.00  0.00     0.029 A 
HETATM    7  C4  UNL     1      21.658  -0.124  52.975  1.00  0.00     0.036 A 
HETATM    8  C15 UNL     1      22.974   0.172  52.680  1.00  0.00     0.059 A 
BRANCH   7   9
HETATM    9  N1  UNL     1      20.522   0.203  52.167  1.00  0.00    -0.327 N 
HETATM   10  C3  UNL     1      19.649   1.339  52.104  1.00  0.00     0.222 C 
HETATM   11  O1  UNL     1      20.106   2.116  53.005  1.00  0.00    -0.273 OA
HETATM   12  H4  UNL     1      20.564  -0.702  51.629  1.00  0.00     0.169 HD
BRANCH  10  13
HETATM   13  C2  UNL     1      18.597   1.239  51.101  1.00  0.00     0.062 C 
HETATM   14  C1  UNL     1      17.850   0.326  50.460  1.00  0.00     0.051 C 
ENDBRANCH  10  13
ENDBRANCH   7   9
ENDBRANCH   1   3
BRANCH   1  15
HETATM   15  C9  UNL     1      26.607   0.502  53.705  1.00  0.00     0.112 A 
HETATM   16  C10 UNL     1      27.378  -0.150  54.562  1.00  0.00     0.067 A 
HETATM   17  C11 UNL     1      28.646   0.461  54.900  1.00  0.00     0.116 A 
HETATM   18  N3  UNL     1      29.062   1.569  54.434  1.00  0.00    -0.282 NA
HETATM   19  C12 UNL     1      28.309   2.350  53.507  1.00  0.00     0.281 A 
HETATM   20  N4  UNL     1      27.038   1.758  53.145  1.00  0.00    -0.299 N 
BRANCH  20  21
HETATM   21  C13 UNL     1      26.259   2.516  52.194  1.00  0.00     0.148 A 
HETATM   22  N5  UNL     1      25.073   3.049  52.316  1.00  0.00    -0.164 NA
HETATM   23  N6  UNL     1      25.222   3.497  50.999  1.00  0.00    -0.305 N 
HETATM   24  C14 UNL     1      26.542   2.940  50.774  1.00  0.00     0.222 A 
HETATM   25  H13 UNL     1      24.787   4.023  50.209  1.00  0.00     0.182 HD
ENDBRANCH  20  21
ENDBRANCH   1  15
TORSDOF 5
ENDMDL
MODEL 8
REMARK VINA RESULT:      -6.9      2.619      6.689
REMARK  5 active torsions:
REMARK  status: ('A' for Active; 'I' for Inactive)
REMARK    1  A    between atoms: C2_2  and  C3_3 
REMARK       I    between atoms: C3_3  and  N1_5 
REMARK    2  A    between atoms: N1_5  and  C4_6 
REMARK    3  A    between atoms: C8_10  and  N2_11 
REMARK    4  A    between atoms: N2_11  and  C9_12 
REMARK    5  A    between atoms: N4_17  and  C13_18 
ROOT
HETATM    1  N2  UNL     1      24.242   0.519  52.158  1.00  0.00    -0.342 N 
HETATM    2  H8  UNL     1      24.680  -0.162  51.472  1.00  0.00     0.167 HD
ENDROOT
BRANCH   1   3
HETATM    3  C8  UNL     1      24.726   1.711  51.554  1.00  0.00     0.035 A 
HETATM    4  C7  UNL     1      26.086   1.830  51.289  1.00  0.00     0.029 A 
HETATM    5  C6  UNL     1      26.576   2.976  50.706  1.00  0.00     0.004 A 
HETATM    6  C5  UNL     1      25.646   3.946  50.425  1.00  0.00     0.029 A 
HETATM    7  C4  UNL     1      24.280   3.890  50.664  1.00  0.00     0.036 A 
HETATM    8  C15 UNL     1      23.831   2.724  51.248  1.00  0.00     0.059 A 
BRANCH   7   9
HETATM    9  N1  UNL     1      23.470   5.013  50.299  1.00  0.00    -0.327 N 
HETATM   10  C3  UNL     1      23.222   6.290  50.903  1.00  0.00     0.222 C 
HETATM   11  O1  UNL     1      23.934   6.262  51.960  1.00  0.00    -0.273 OA
HETATM   12  H4  UNL     1      23.121   4.556  49.417  1.00  0.00     0.169 HD
BRANCH  10  13
HETATM   13  C2  UNL     1      22.302   7.142  50.162  1.00  0.00     0.062 C 
HETATM   14  C1  UNL     1      21.106   7.741  50.287  1.00  0.00     0.051 C 
ENDBRANCH  10  13
ENDBRANCH   7   9
ENDBRANCH   1   3
BRANCH   1  15
HETATM   15  C9  UNL     1      23.484  -0.055  53.213  1.00  0.00     0.112 A 
HETATM   16  C10 UNL     1      22.164  -0.107  53.313  1.00  0.00     0.067 A 
HETATM   17  C11 UNL     1      21.620  -0.748  54.491  1.00  0.00     0.116 A 
HETATM   18  N3  UNL     1      22.317  -1.257  55.424  1.00  0.00    -0.282 NA
HETATM   19  C12 UNL     1      23.744  -1.253  55.415  1.00  0.00     0.281 A 
HETATM   20  N4  UNL     1      24.317  -0.624  54.242  1.00  0.00    -0.299 N 
BRANCH  20  21
HETATM   21  C13 UNL     1      25.760  -0.619  54.194  1.00  0.00     0.148 A 
HETATM   22  N5  UNL     1      26.579  -1.353  53.490  1.00  0.00    -0.164 NA
HETATM   23  N6  UNL     1      27.619  -0.646  54.102  1.00  0.00    -0.305 N 
HETATM   24  C14 UNL     1      26.787   0.213  54.922  1.00  0.00     0.222 A 
HETATM   25  H13 UNL     1      28.653  -0.521  54.178  1.00  0.00     0.182 HD
ENDBRANCH  20  21
ENDBRANCH   1  15
TORSDOF 5
ENDMDL
MODEL 9
REMARK VINA RESULT:      -6.9      2.175      3.697
REMARK  5 active torsions:
REMARK  status: ('A' for Active; 'I' for Inactive)
REMARK    1  A    between atoms: C2_2  and  C3_3 
REMARK       I    between atoms: C3_3  and  N1_5 
REMARK    2  A    between atoms: N1_5  and  C4_6 
REMARK    3  A    between atoms: C8_10  and  N2_11 
REMARK    4  A    between atoms: N2_11  and  C9_12 
REMARK    5  A    between atoms: N4_17  and  C13_18 
ROOT
HETATM    1  N2  UNL     1      22.259   0.814  51.404  1.00  0.00    -0.342 N 
HETATM    2  H8  UNL     1      22.884   0.265  50.745  1.00  0.00     0.167 HD
ENDROOT
BRANCH   1   3
HETATM    3  C8  UNL     1      23.294   1.495  52.101  1.00  0.00     0.035 A 
HETATM    4  C7  UNL     1      23.097   2.817  52.480  1.00  0.00     0.029 A 
HETATM    5  C6  UNL     1      24.087   3.495  53.153  1.00  0.00     0.004 A 
HETATM    6  C5  UNL     1      25.234   2.781  53.402  1.00  0.00     0.029 A 
HETATM    7  C4  UNL     1      25.493   1.465  53.051  1.00  0.00     0.036 A 
HETATM    8  C15 UNL     1      24.474   0.822  52.379  1.00  0.00     0.059 A 
BRANCH   7   9
HETATM    9  N1  UNL     1      26.759   0.895  53.401  1.00  0.00    -0.327 N 
HETATM   10  C3  UNL     1      27.224   0.136  54.525  1.00  0.00     0.222 C 
HETATM   11  O1  UNL     1      26.191   0.037  55.265  1.00  0.00    -0.273 OA
HETATM   12  H4  UNL     1      27.228   1.238  52.522  1.00  0.00     0.169 HD
BRANCH  10  13
HETATM   13  C2  UNL     1      28.628  -0.246  54.460  1.00  0.00     0.062 C 
HETATM   14  C1  UNL     1      29.565  -0.627  53.576  1.00  0.00     0.051 C 
ENDBRANCH  10  13
ENDBRANCH   7   9
ENDBRANCH   1   3
BRANCH   1  15
HETATM   15  C9  UNL     1      20.862   0.602  51.262  1.00  0.00     0.112 A 
HETATM   16  C10 UNL     1      20.096   0.969  50.247  1.00  0.00     0.067 A 
HETATM   17  C11 UNL     1      18.689   0.639  50.333  1.00  0.00     0.116 A 
HETATM   18  N3  UNL     1      18.148   0.028  51.307  1.00  0.00    -0.282 NA
HETATM   19  C12 UNL     1      18.882  -0.410  52.450  1.00  0.00     0.281 A 
HETATM   20  N4  UNL     1      20.296  -0.100  52.388  1.00  0.00    -0.299 N 
BRANCH  20  21
HETATM   21  C13 UNL     1      21.071  -0.545  53.522  1.00  0.00     0.148 A 
HETATM   22  N5  UNL     1      21.892  -1.554  53.633  1.00  0.00    -0.164 NA
HETATM   23  N6  UNL     1      22.085  -1.152  54.959  1.00  0.00    -0.305 N 
HETATM   24  C14 UNL     1      21.192  -0.011  54.928  1.00  0.00     0.222 A 
HETATM   25  H13 UNL     1      22.578  -1.347  55.859  1.00  0.00     0.182 HD
ENDBRANCH  20  21
ENDBRANCH   1  15
TORSDOF 5
ENDMDL
