MODEL 1
REMARK VINA RESULT:      -8.4      0.000      0.000
REMARK  8 active torsions:
REMARK  status: ('A' for Active; 'I' for Inactive)
REMARK    1  A    between atoms: O1_1  and  C1_2 
REMARK    2  A    between atoms: C4_5  and  C5_6 
REMARK    3  A    between atoms: C5_6  and  N1_7 
REMARK    4  A    between atoms: N1_7  and  C6_8 
REMARK    5  A    between atoms: N1_7  and  C13_17 
REMARK    6  A    between atoms: C6_8  and  C7_9 
REMARK    7  A    between atoms: C13_17  and  N2_19 
REMARK    8  A    between atoms: N2_19  and  C14_20 
ROOT
HETATM    1  N1  UNL     1      24.651   2.054  51.988  1.00  0.00    -0.350 N 
ENDROOT
BRANCH   1   2
HETATM    2  C5  UNL     1      24.042   1.922  53.292  1.00  0.00     0.164 C 
BRANCH   2   3
HETATM    3  C4  UNL     1      23.043   0.819  53.371  1.00  0.00    -0.042 A 
HETATM    4  C3  UNL     1      23.357  -0.527  53.834  1.00  0.00     0.007 A 
HETATM    5  C2  UNL     1      22.226  -1.214  53.759  1.00  0.00     0.009 A 
HETATM    6  C1  UNL     1      21.126  -0.358  53.249  1.00  0.00     0.164 A 
HETATM    7  C20 UNL     1      21.771   0.942  53.032  1.00  0.00     0.017 A 
BRANCH   6   8
HETATM    8  O1  UNL     1      20.079  -0.243  54.172  1.00  0.00    -0.388 OA
HETATM    9  H1  UNL     1      19.311  -0.748  53.796  1.00  0.00     0.210 HD
ENDBRANCH   6   8
ENDBRANCH   2   3
ENDBRANCH   1   2
BRANCH   1  10
HETATM   10  C6  UNL     1      25.601   1.052  51.613  1.00  0.00     0.166 C 
BRANCH  10  11
HETATM   11  C7  UNL     1      26.838   0.977  52.374  1.00  0.00    -0.017 A 
HETATM   12  C8  UNL     1      27.443   2.168  52.787  1.00  0.00     0.011 A 
HETATM   13  C9  UNL     1      28.625   2.387  53.510  1.00  0.00     0.002 A 
HETATM   14  C10 UNL     1      29.251   1.181  53.839  1.00  0.00     0.026 A 
HETATM   15  C11 UNL     1      28.741  -0.023  53.484  1.00  0.00     0.056 A 
HETATM   16 CL1  UNL     1      29.605  -1.490  53.948  1.00  0.00    -0.083 Cl
HETATM   17  C12 UNL     1      27.560  -0.153  52.766  1.00  0.00     0.063 A 
HETATM   18 CL2  UNL     1      26.875  -1.680  52.294  1.00  0.00    -0.082 Cl
ENDBRANCH  10  11
ENDBRANCH   1  10
BRANCH   1  19
HETATM   19  C13 UNL     1      24.363   3.144  51.133  1.00  0.00     0.174 C 
HETATM   20  S1  UNL     1      23.121   2.910  50.057  1.00  0.00    -0.041 SA
BRANCH  19  21
HETATM   21  N2  UNL     1      24.770   4.463  50.819  1.00  0.00    -0.333 N 
HETATM   22  H12 UNL     1      24.189   5.159  51.347  1.00  0.00     0.168 HD
BRANCH  21  23
HETATM   23  C14 UNL     1      25.720   5.115  49.994  1.00  0.00     0.034 A 
HETATM   24  C15 UNL     1      26.649   4.248  49.494  1.00  0.00     0.029 A 
HETATM   25  C16 UNL     1      27.641   4.681  48.662  1.00  0.00     0.002 A 
HETATM   26  C17 UNL     1      27.636   6.040  48.369  1.00  0.00     0.000 A 
HETATM   27  C18 UNL     1      26.684   6.861  48.898  1.00  0.00     0.002 A 
HETATM   28  C19 UNL     1      25.661   6.490  49.740  1.00  0.00     0.029 A 
ENDBRANCH  21  23
ENDBRANCH  19  21
ENDBRANCH   1  19
TORSDOF 8
ENDMDL
MODEL 2
REMARK VINA RESULT:      -8.3      3.305      6.657
REMARK  8 active torsions:
REMARK  status: ('A' for Active; 'I' for Inactive)
REMARK    1  A    between atoms: O1_1  and  C1_2 
REMARK    2  A    between atoms: C4_5  and  C5_6 
REMARK    3  A    between atoms: C5_6  and  N1_7 
REMARK    4  A    between atoms: N1_7  and  C6_8 
REMARK    5  A    between atoms: N1_7  and  C13_17 
REMARK    6  A    between atoms: C6_8  and  C7_9 
REMARK    7  A    between atoms: C13_17  and  N2_19 
REMARK    8  A    between atoms: N2_19  and  C14_20 
ROOT
HETATM    1  N1  UNL     1      25.369   2.687  51.009  1.00  0.00    -0.350 N 
ENDROOT
BRANCH   1   2
HETATM    2  C5  UNL     1      26.636   2.537  51.688  1.00  0.00     0.164 C 
BRANCH   2   3
HETATM    3  C4  UNL     1      26.720   1.307  52.524  1.00  0.00    -0.042 A 
HETATM    4  C3  UNL     1      26.716  -0.044  51.980  1.00  0.00     0.007 A 
HETATM    5  C2  UNL     1      26.801  -0.860  53.021  1.00  0.00     0.009 A 
HETATM    6  C1  UNL     1      26.867  -0.087  54.287  1.00  0.00     0.164 A 
HETATM    7  C20 UNL     1      26.808   1.310  53.843  1.00  0.00     0.017 A 
BRANCH   6   8
HETATM    8  O1  UNL     1      28.051  -0.334  54.992  1.00  0.00    -0.388 OA
HETATM    9  H1  UNL     1      28.747   0.253  54.595  1.00  0.00     0.210 HD
ENDBRANCH   6   8
ENDBRANCH   2   3
ENDBRANCH   1   2
BRANCH   1  10
HETATM   10  C6  UNL     1      25.415   2.977  49.608  1.00  0.00     0.166 C 
BRANCH  10  11
HETATM   11  C7  UNL     1      25.941   4.271  49.205  1.00  0.00    -0.017 A 
HETATM   12  C8  UNL     1      27.298   4.372  48.884  1.00  0.00     0.011 A 
HETATM   13  C9  UNL     1      28.060   5.479  48.482  1.00  0.00     0.002 A 
HETATM   14  C10 UNL     1      27.278   6.635  48.411  1.00  0.00     0.026 A 
HETATM   15  C11 UNL     1      25.954   6.637  48.701  1.00  0.00     0.056 A 
HETATM   16 CL1  UNL     1      25.052   8.148  48.579  1.00  0.00    -0.083 Cl
HETATM   17  C12 UNL     1      25.273   5.492  49.092  1.00  0.00     0.063 A 
HETATM   18 CL2  UNL     1      23.576   5.455  49.471  1.00  0.00    -0.082 Cl
ENDBRANCH  10  11
ENDBRANCH   1  10
BRANCH   1  19
HETATM   19  C13 UNL     1      24.135   2.597  51.697  1.00  0.00     0.174 C 
HETATM   20  S1  UNL     1      23.810   3.827  52.762  1.00  0.00    -0.041 SA
BRANCH  19  21
HETATM   21  N2  UNL     1      22.984   1.785  51.835  1.00  0.00    -0.333 N 
HETATM   22  H12 UNL     1      22.414   1.808  50.955  1.00  0.00     0.168 HD
BRANCH  21  23
HETATM   23  C14 UNL     1      22.372   0.965  52.815  1.00  0.00     0.034 A 
HETATM   24  C15 UNL     1      23.236   0.035  53.320  1.00  0.00     0.029 A 
HETATM   25  C16 UNL     1      22.840  -0.841  54.290  1.00  0.00     0.002 A 
HETATM   26  C17 UNL     1      21.522  -0.720  54.714  1.00  0.00     0.000 A 
HETATM   27  C18 UNL     1      20.702   0.227  54.174  1.00  0.00     0.002 A 
HETATM   28  C19 UNL     1      21.037   1.137  53.198  1.00  0.00     0.029 A 
ENDBRANCH  21  23
ENDBRANCH  19  21
ENDBRANCH   1  19
TORSDOF 8
ENDMDL
MODEL 3
REMARK VINA RESULT:      -8.3      3.017      5.191
REMARK  8 active torsions:
REMARK  status: ('A' for Active; 'I' for Inactive)
REMARK    1  A    between atoms: O1_1  and  C1_2 
REMARK    2  A    between atoms: C4_5  and  C5_6 
REMARK    3  A    between atoms: C5_6  and  N1_7 
REMARK    4  A    between atoms: N1_7  and  C6_8 
REMARK    5  A    between atoms: N1_7  and  C13_17 
REMARK    6  A    between atoms: C6_8  and  C7_9 
REMARK    7  A    between atoms: C13_17  and  N2_19 
REMARK    8  A    between atoms: N2_19  and  C14_20 
ROOT
HETATM    1  N1  UNL     1      24.181   2.350  52.326  1.00  0.00    -0.350 N 
ENDROOT
BRANCH   1   2
HETATM    2  C5  UNL     1      24.912   2.576  53.552  1.00  0.00     0.164 C 
BRANCH   2   3
HETATM    3  C4  UNL     1      26.223   1.870  53.601  1.00  0.00    -0.042 A 
HETATM    4  C3  UNL     1      27.328   2.150  52.693  1.00  0.00     0.007 A 
HETATM    5  C2  UNL     1      28.308   1.328  53.043  1.00  0.00     0.009 A 
HETATM    6  C1  UNL     1      27.894   0.479  54.190  1.00  0.00     0.164 A 
HETATM    7  C20 UNL     1      26.523   0.918  54.469  1.00  0.00     0.017 A 
BRANCH   6   8
HETATM    8  O1  UNL     1      28.714   0.672  55.308  1.00  0.00    -0.388 OA
HETATM    9  H1  UNL     1      29.651   0.569  54.996  1.00  0.00     0.210 HD
ENDBRANCH   6   8
ENDBRANCH   2   3
ENDBRANCH   1   2
BRANCH   1  10
HETATM   10  C6  UNL     1      23.901   0.990  51.981  1.00  0.00     0.166 C 
BRANCH  10  11
HETATM   11  C7  UNL     1      22.828   0.320  52.698  1.00  0.00    -0.017 A 
HETATM   12  C8  UNL     1      23.136  -0.367  53.876  1.00  0.00     0.011 A 
HETATM   13  C9  UNL     1      22.315  -1.098  54.747  1.00  0.00     0.002 A 
HETATM   14  C10 UNL     1      20.987  -1.103  54.309  1.00  0.00     0.026 A 
HETATM   15  C11 UNL     1      20.591  -0.465  53.181  1.00  0.00     0.056 A 
HETATM   16 CL1  UNL     1      18.891  -0.528  52.712  1.00  0.00    -0.083 Cl
HETATM   17  C12 UNL     1      21.472   0.240  52.372  1.00  0.00     0.063 A 
HETATM   18 CL2  UNL     1      21.001   1.071  50.918  1.00  0.00    -0.082 Cl
ENDBRANCH  10  11
ENDBRANCH   1  10
BRANCH   1  19
HETATM   19  C13 UNL     1      23.794   3.414  51.476  1.00  0.00     0.174 C 
HETATM   20  S1  UNL     1      22.448   4.263  51.948  1.00  0.00    -0.041 SA
BRANCH  19  21
HETATM   21  N2  UNL     1      24.147   4.077  50.277  1.00  0.00    -0.333 N 
HETATM   22  H12 UNL     1      23.296   4.234  49.683  1.00  0.00     0.168 HD
BRANCH  21  23
HETATM   23  C14 UNL     1      25.310   4.576  49.639  1.00  0.00     0.034 A 
HETATM   24  C15 UNL     1      25.147   5.860  49.202  1.00  0.00     0.029 A 
HETATM   25  C16 UNL     1      26.161   6.525  48.576  1.00  0.00     0.002 A 
HETATM   26  C17 UNL     1      27.345   5.815  48.418  1.00  0.00     0.000 A 
HETATM   27  C18 UNL     1      27.453   4.533  48.873  1.00  0.00     0.002 A 
HETATM   28  C19 UNL     1      26.472   3.808  49.510  1.00  0.00     0.029 A 
ENDBRANCH  21  23
ENDBRANCH  19  21
ENDBRANCH   1  19
TORSDOF 8
ENDMDL
MODEL 4
REMARK VINA RESULT:      -8.2      3.597      6.095
REMARK  8 active torsions:
REMARK  status: ('A' for Active; 'I' for Inactive)
REMARK    1  A    between atoms: O1_1  and  C1_2 
REMARK    2  A    between atoms: C4_5  and  C5_6 
REMARK    3  A    between atoms: C5_6  and  N1_7 
REMARK    4  A    between atoms: N1_7  and  C6_8 
REMARK    5  A    between atoms: N1_7  and  C13_17 
REMARK    6  A    between atoms: C6_8  and  C7_9 
REMARK    7  A    between atoms: C13_17  and  N2_19 
REMARK    8  A    between atoms: N2_19  and  C14_20 
ROOT
HETATM    1  N1  UNL     1      24.139   2.495  51.904  1.00  0.00    -0.350 N 
ENDROOT
BRANCH   1   2
HETATM    2  C5  UNL     1      23.380   3.414  52.720  1.00  0.00     0.164 C 
BRANCH   2   3
HETATM    3  C4  UNL     1      22.580   4.390  51.928  1.00  0.00    -0.042 A 
HETATM    4  C3  UNL     1      21.177   4.198  51.584  1.00  0.00     0.007 A 
HETATM    5  C2  UNL     1      20.821   5.264  50.882  1.00  0.00     0.009 A 
HETATM    6  C1  UNL     1      21.966   6.199  50.735  1.00  0.00     0.164 A 
HETATM    7  C20 UNL     1      23.055   5.530  51.455  1.00  0.00     0.017 A 
BRANCH   6   8
HETATM    8  O1  UNL     1      21.695   7.452  51.298  1.00  0.00    -0.388 OA
HETATM    9  H1  UNL     1      22.546   7.776  51.696  1.00  0.00     0.210 HD
ENDBRANCH   6   8
ENDBRANCH   2   3
ENDBRANCH   1   2
BRANCH   1  10
HETATM   10  C6  UNL     1      23.450   1.337  51.421  1.00  0.00     0.166 C 
BRANCH  10  11
HETATM   11  C7  UNL     1      22.740   0.521  52.392  1.00  0.00    -0.017 A 
HETATM   12  C8  UNL     1      23.459  -0.027  53.458  1.00  0.00     0.011 A 
HETATM   13  C9  UNL     1      23.037  -0.848  54.515  1.00  0.00     0.002 A 
HETATM   14  C10 UNL     1      21.670  -1.125  54.430  1.00  0.00     0.026 A 
HETATM   15  C11 UNL     1      20.890  -0.638  53.434  1.00  0.00     0.056 A 
HETATM   16 CL1  UNL     1      19.173  -1.043  53.414  1.00  0.00    -0.083 Cl
HETATM   17  C12 UNL     1      21.389   0.171  52.422  1.00  0.00     0.063 A 
HETATM   18 CL2  UNL     1      20.419   0.816  51.129  1.00  0.00    -0.082 Cl
ENDBRANCH  10  11
ENDBRANCH   1  10
BRANCH   1  19
HETATM   19  C13 UNL     1      25.513   2.698  51.626  1.00  0.00     0.174 C 
HETATM   20  S1  UNL     1      25.862   3.334  50.134  1.00  0.00    -0.041 SA
BRANCH  19  21
HETATM   21  N2  UNL     1      26.805   2.544  52.183  1.00  0.00    -0.333 N 
HETATM   22  H12 UNL     1      27.343   3.441  52.107  1.00  0.00     0.168 HD
BRANCH  21  23
HETATM   23  C14 UNL     1      27.585   1.534  52.799  1.00  0.00     0.034 A 
HETATM   24  C15 UNL     1      27.095   0.283  52.551  1.00  0.00     0.029 A 
HETATM   25  C16 UNL     1      27.717  -0.828  53.043  1.00  0.00     0.002 A 
HETATM   26  C17 UNL     1      28.860  -0.596  53.801  1.00  0.00     0.000 A 
HETATM   27  C18 UNL     1      29.304   0.675  54.018  1.00  0.00     0.002 A 
HETATM   28  C19 UNL     1      28.725   1.833  53.552  1.00  0.00     0.029 A 
ENDBRANCH  21  23
ENDBRANCH  19  21
ENDBRANCH   1  19
TORSDOF 8
ENDMDL
MODEL 5
REMARK VINA RESULT:      -7.9      3.328      6.030
REMARK  8 active torsions:
REMARK  status: ('A' for Active; 'I' for Inactive)
REMARK    1  A    between atoms: O1_1  and  C1_2 
REMARK    2  A    between atoms: C4_5  and  C5_6 
REMARK    3  A    between atoms: C5_6  and  N1_7 
REMARK    4  A    between atoms: N1_7  and  C6_8 
REMARK    5  A    between atoms: N1_7  and  C13_17 
REMARK    6  A    between atoms: C6_8  and  C7_9 
REMARK    7  A    between atoms: C13_17  and  N2_19 
REMARK    8  A    between atoms: N2_19  and  C14_20 
ROOT
HETATM    1  N1  UNL     1      24.118   2.778  51.741  1.00  0.00    -0.350 N 
ENDROOT
BRANCH   1   2
HETATM    2  C5  UNL     1      23.305   1.671  51.290  1.00  0.00     0.164 C 
BRANCH   2   3
HETATM    3  C4  UNL     1      22.833   0.792  52.397  1.00  0.00    -0.042 A 
HETATM    4  C3  UNL     1      23.725   0.096  53.315  1.00  0.00     0.007 A 
HETATM    5  C2  UNL     1      22.944  -0.579  54.145  1.00  0.00     0.009 A 
HETATM    6  C1  UNL     1      21.513  -0.358  53.814  1.00  0.00     0.164 A 
HETATM    7  C20 UNL     1      21.561   0.549  52.662  1.00  0.00     0.017 A 
BRANCH   6   8
HETATM    8  O1  UNL     1      20.812   0.225  54.876  1.00  0.00    -0.388 OA
HETATM    9  H1  UNL     1      19.852   0.215  54.624  1.00  0.00     0.210 HD
ENDBRANCH   6   8
ENDBRANCH   2   3
ENDBRANCH   1   2
BRANCH   1  10
HETATM   10  C6  UNL     1      23.456   3.807  52.482  1.00  0.00     0.166 C 
BRANCH  10  11
HETATM   11  C7  UNL     1      22.994   4.975  51.750  1.00  0.00    -0.017 A 
HETATM   12  C8  UNL     1      23.878   6.042  51.564  1.00  0.00     0.011 A 
HETATM   13  C9  UNL     1      23.698   7.274  50.919  1.00  0.00     0.002 A 
HETATM   14  C10 UNL     1      22.405   7.392  50.400  1.00  0.00     0.026 A 
HETATM   15  C11 UNL     1      21.478   6.411  50.528  1.00  0.00     0.056 A 
HETATM   16 CL1  UNL     1      19.873   6.653  49.837  1.00  0.00    -0.083 Cl
HETATM   17  C12 UNL     1      21.740   5.216  51.185  1.00  0.00     0.063 A 
HETATM   18 CL2  UNL     1      20.577   3.935  51.369  1.00  0.00    -0.082 Cl
ENDBRANCH  10  11
ENDBRANCH   1  10
BRANCH   1  19
HETATM   19  C13 UNL     1      25.496   2.871  51.430  1.00  0.00     0.174 C 
HETATM   20  S1  UNL     1      25.858   3.280  49.863  1.00  0.00    -0.041 SA
BRANCH  19  21
HETATM   21  N2  UNL     1      26.786   2.729  51.995  1.00  0.00    -0.333 N 
HETATM   22  H12 UNL     1      27.360   3.588  51.814  1.00  0.00     0.168 HD
BRANCH  21  23
HETATM   23  C14 UNL     1      27.530   1.764  52.719  1.00  0.00     0.034 A 
HETATM   24  C15 UNL     1      27.136   0.488  52.431  1.00  0.00     0.029 A 
HETATM   25  C16 UNL     1      27.744  -0.586  53.015  1.00  0.00     0.002 A 
HETATM   26  C17 UNL     1      28.769  -0.291  53.907  1.00  0.00     0.000 A 
HETATM   27  C18 UNL     1      29.120   1.003  54.159  1.00  0.00     0.002 A 
HETATM   28  C19 UNL     1      28.550   2.127  53.606  1.00  0.00     0.029 A 
ENDBRANCH  21  23
ENDBRANCH  19  21
ENDBRANCH   1  19
TORSDOF 8
ENDMDL
MODEL 6
REMARK VINA RESULT:      -7.9      2.467      6.246
REMARK  8 active torsions:
REMARK  status: ('A' for Active; 'I' for Inactive)
REMARK    1  A    between atoms: O1_1  and  C1_2 
REMARK    2  A    between atoms: C4_5  and  C5_6 
REMARK    3  A    between atoms: C5_6  and  N1_7 
REMARK    4  A    between atoms: N1_7  and  C6_8 
REMARK    5  A    between atoms: N1_7  and  C13_17 
REMARK    6  A    between atoms: C6_8  and  C7_9 
REMARK    7  A    between atoms: C13_17  and  N2_19 
REMARK    8  A    between atoms: N2_19  and  C14_20 
ROOT
HETATM    1  N1  UNL     1      25.076   2.520  51.170  1.00  0.00    -0.350 N 
ENDROOT
BRANCH   1   2
HETATM    2  C5  UNL     1      25.625   2.671  49.842  1.00  0.00     0.164 C 
BRANCH   2   3
HETATM    3  C4  UNL     1      26.019   4.071  49.518  1.00  0.00    -0.042 A 
HETATM    4  C3  UNL     1      27.281   4.432  48.886  1.00  0.00     0.007 A 
HETATM    5  C2  UNL     1      27.268   5.752  48.765  1.00  0.00     0.009 A 
HETATM    6  C1  UNL     1      26.004   6.314  49.307  1.00  0.00     0.164 A 
HETATM    7  C20 UNL     1      25.269   5.131  49.768  1.00  0.00     0.017 A 
BRANCH   6   8
HETATM    8  O1  UNL     1      25.274   7.002  48.330  1.00  0.00    -0.388 OA
HETATM    9  H1  UNL     1      25.851   7.747  48.015  1.00  0.00     0.210 HD
ENDBRANCH   6   8
ENDBRANCH   2   3
ENDBRANCH   1   2
BRANCH   1  10
HETATM   10  C6  UNL     1      26.006   2.515  52.258  1.00  0.00     0.166 C 
BRANCH  10  11
HETATM   11  C7  UNL     1      26.722   1.278  52.528  1.00  0.00    -0.017 A 
HETATM   12  C8  UNL     1      26.115   0.066  52.186  1.00  0.00     0.011 A 
HETATM   13  C9  UNL     1      26.564  -1.254  52.341  1.00  0.00     0.002 A 
HETATM   14  C10 UNL     1      27.827  -1.294  52.939  1.00  0.00     0.026 A 
HETATM   15  C11 UNL     1      28.495  -0.173  53.303  1.00  0.00     0.056 A 
HETATM   16 CL1  UNL     1      30.086  -0.327  54.050  1.00  0.00    -0.083 Cl
HETATM   17  C12 UNL     1      27.977   1.101  53.114  1.00  0.00     0.063 A 
HETATM   18 CL2  UNL     1      28.804   2.562  53.567  1.00  0.00    -0.082 Cl
ENDBRANCH  10  11
ENDBRANCH   1  10
BRANCH   1  19
HETATM   19  C13 UNL     1      23.690   2.340  51.392  1.00  0.00     0.174 C 
HETATM   20  S1  UNL     1      22.730   2.376  50.039  1.00  0.00    -0.041 SA
BRANCH  19  21
HETATM   21  N2  UNL     1      22.735   2.131  52.416  1.00  0.00    -0.333 N 
HETATM   22  H12 UNL     1      22.422   3.049  52.816  1.00  0.00     0.168 HD
BRANCH  21  23
HETATM   23  C14 UNL     1      22.092   1.048  53.066  1.00  0.00     0.034 A 
HETATM   24  C15 UNL     1      22.986   0.160  53.594  1.00  0.00     0.029 A 
HETATM   25  C16 UNL     1      22.563  -0.944  54.276  1.00  0.00     0.002 A 
HETATM   26  C17 UNL     1      21.186  -1.097  54.388  1.00  0.00     0.000 A 
HETATM   27  C18 UNL     1      20.338  -0.179  53.839  1.00  0.00     0.002 A 
HETATM   28  C19 UNL     1      20.698   0.951  53.143  1.00  0.00     0.029 A 
ENDBRANCH  21  23
ENDBRANCH  19  21
ENDBRANCH   1  19
TORSDOF 8
ENDMDL
MODEL 7
REMARK VINA RESULT:      -7.9      3.701      5.919
REMARK  8 active torsions:
REMARK  status: ('A' for Active; 'I' for Inactive)
REMARK    1  A    between atoms: O1_1  and  C1_2 
REMARK    2  A    between atoms: C4_5  and  C5_6 
REMARK    3  A    between atoms: C5_6  and  N1_7 
REMARK    4  A    between atoms: N1_7  and  C6_8 
REMARK    5  A    between atoms: N1_7  and  C13_17 
REMARK    6  A    between atoms: C6_8  and  C7_9 
REMARK    7  A    between atoms: C13_17  and  N2_19 
REMARK    8  A    between atoms: N2_19  and  C14_20 
ROOT
HETATM    1  N1  UNL     1      25.457   3.000  51.447  1.00  0.00    -0.350 N 
ENDROOT
BRANCH   1   2
HETATM    2  C5  UNL     1      26.793   2.462  51.569  1.00  0.00     0.164 C 
BRANCH   2   3
HETATM    3  C4  UNL     1      26.873   1.264  52.451  1.00  0.00    -0.042 A 
HETATM    4  C3  UNL     1      26.602  -0.094  51.998  1.00  0.00     0.007 A 
HETATM    5  C2  UNL     1      26.771  -0.875  53.056  1.00  0.00     0.009 A 
HETATM    6  C1  UNL     1      27.159  -0.071  54.243  1.00  0.00     0.164 A 
HETATM    7  C20 UNL     1      27.196   1.304  53.733  1.00  0.00     0.017 A 
BRANCH   6   8
HETATM    8  O1  UNL     1      28.411  -0.447  54.744  1.00  0.00    -0.388 OA
HETATM    9  H1  UNL     1      28.551   0.070  55.581  1.00  0.00     0.210 HD
ENDBRANCH   6   8
ENDBRANCH   2   3
ENDBRANCH   1   2
BRANCH   1  10
HETATM   10  C6  UNL     1      24.620   2.922  52.605  1.00  0.00     0.166 C 
BRANCH  10  11
HETATM   11  C7  UNL     1      23.290   2.359  52.439  1.00  0.00    -0.017 A 
HETATM   12  C8  UNL     1      23.150   0.968  52.407  1.00  0.00     0.011 A 
HETATM   13  C9  UNL     1      22.008   0.170  52.249  1.00  0.00     0.002 A 
HETATM   14  C10 UNL     1      20.857   0.951  52.104  1.00  0.00     0.026 A 
HETATM   15  C11 UNL     1      20.892   2.306  52.123  1.00  0.00     0.056 A 
HETATM   16 CL1  UNL     1      19.385   3.204  51.933  1.00  0.00    -0.083 Cl
HETATM   17  C12 UNL     1      22.070   3.022  52.285  1.00  0.00     0.063 A 
HETATM   18 CL2  UNL     1      22.153   4.759  52.315  1.00  0.00    -0.082 Cl
ENDBRANCH  10  11
ENDBRANCH   1  10
BRANCH   1  19
HETATM   19  C13 UNL     1      24.975   3.541  50.231  1.00  0.00     0.174 C 
HETATM   20  S1  UNL     1      25.523   5.059  49.848  1.00  0.00    -0.041 SA
BRANCH  19  21
HETATM   21  N2  UNL     1      24.129   3.255  49.134  1.00  0.00    -0.333 N 
HETATM   22  H12 UNL     1      24.697   3.092  48.267  1.00  0.00     0.168 HD
BRANCH  21  23
HETATM   23  C14 UNL     1      22.743   3.138  48.861  1.00  0.00     0.034 A 
HETATM   24  C15 UNL     1      22.350   1.835  48.739  1.00  0.00     0.029 A 
HETATM   25  C16 UNL     1      21.047   1.513  48.492  1.00  0.00     0.002 A 
HETATM   26  C17 UNL     1      20.169   2.584  48.374  1.00  0.00     0.000 A 
HETATM   27  C18 UNL     1      20.616   3.866  48.503  1.00  0.00     0.002 A 
HETATM   28  C19 UNL     1      21.912   4.259  48.752  1.00  0.00     0.029 A 
ENDBRANCH  21  23
ENDBRANCH  19  21
ENDBRANCH   1  19
TORSDOF 8
ENDMDL
MODEL 8
REMARK VINA RESULT:      -7.7      3.794      7.276
REMARK  8 active torsions:
REMARK  status: ('A' for Active; 'I' for Inactive)
REMARK    1  A    between atoms: O1_1  and  C1_2 
REMARK    2  A    between atoms: C4_5  and  C5_6 
REMARK    3  A    between atoms: C5_6  and  N1_7 
REMARK    4  A    between atoms: N1_7  and  C6_8 
REMARK    5  A    between atoms: N1_7  and  C13_17 
REMARK    6  A    between atoms: C6_8  and  C7_9 
REMARK    7  A    between atoms: C13_17  and  N2_19 
REMARK    8  A    between atoms: N2_19  and  C14_20 
ROOT
HETATM    1  N1  UNL     1      23.922   3.042  51.604  1.00  0.00    -0.350 N 
ENDROOT
BRANCH   1   2
HETATM    2  C5  UNL     1      25.356   2.886  51.525  1.00  0.00     0.164 C 
BRANCH   2   3
HETATM    3  C4  UNL     1      25.886   1.815  52.416  1.00  0.00    -0.042 A 
HETATM    4  C3  UNL     1      26.338   0.514  51.938  1.00  0.00     0.007 A 
HETATM    5  C2  UNL     1      26.730  -0.156  53.012  1.00  0.00     0.009 A 
HETATM    6  C1  UNL     1      26.557   0.669  54.235  1.00  0.00     0.164 A 
HETATM    7  C20 UNL     1      26.003   1.929  53.728  1.00  0.00     0.017 A 
BRANCH   6   8
HETATM    8  O1  UNL     1      27.772   0.891  54.895  1.00  0.00    -0.388 OA
HETATM    9  H1  UNL     1      27.790   0.275  55.673  1.00  0.00     0.210 HD
ENDBRANCH   6   8
ENDBRANCH   2   3
ENDBRANCH   1   2
BRANCH   1  10
HETATM   10  C6  UNL     1      23.433   4.154  52.361  1.00  0.00     0.166 C 
BRANCH  10  11
HETATM   11  C7  UNL     1      23.079   5.362  51.633  1.00  0.00    -0.017 A 
HETATM   12  C8  UNL     1      24.071   6.320  51.404  1.00  0.00     0.011 A 
HETATM   13  C9  UNL     1      24.008   7.560  50.752  1.00  0.00     0.002 A 
HETATM   14  C10 UNL     1      22.718   7.821  50.279  1.00  0.00     0.026 A 
HETATM   15  C11 UNL     1      21.692   6.953  50.452  1.00  0.00     0.056 A 
HETATM   16 CL1  UNL     1      20.099   7.372  49.817  1.00  0.00    -0.083 Cl
HETATM   17  C12 UNL     1      21.841   5.741  51.112  1.00  0.00     0.063 A 
HETATM   18 CL2  UNL     1      20.547   4.602  51.351  1.00  0.00    -0.082 Cl
ENDBRANCH  10  11
ENDBRANCH   1  10
BRANCH   1  19
HETATM   19  C13 UNL     1      23.033   2.120  51.001  1.00  0.00     0.174 C 
HETATM   20  S1  UNL     1      22.770   2.327  49.376  1.00  0.00    -0.041 SA
BRANCH  19  21
HETATM   21  N2  UNL     1      22.213   1.002  51.285  1.00  0.00    -0.333 N 
HETATM   22  H12 UNL     1      21.736   0.668  50.413  1.00  0.00     0.168 HD
BRANCH  21  23
HETATM   23  C14 UNL     1      21.839   0.213  52.402  1.00  0.00     0.034 A 
HETATM   24  C15 UNL     1      22.912  -0.117  53.181  1.00  0.00     0.029 A 
HETATM   25  C16 UNL     1      22.757  -0.861  54.315  1.00  0.00     0.002 A 
HETATM   26  C17 UNL     1      21.455  -1.250  54.611  1.00  0.00     0.000 A 
HETATM   27  C18 UNL     1      20.421  -0.893  53.796  1.00  0.00     0.002 A 
HETATM   28  C19 UNL     1      20.509  -0.148  52.643  1.00  0.00     0.029 A 
ENDBRANCH  21  23
ENDBRANCH  19  21
ENDBRANCH   1  19
TORSDOF 8
ENDMDL
MODEL 9
REMARK VINA RESULT:      -7.7      3.552      5.601
REMARK  8 active torsions:
REMARK  status: ('A' for Active; 'I' for Inactive)
REMARK    1  A    between atoms: O1_1  and  C1_2 
REMARK    2  A    between atoms: C4_5  and  C5_6 
REMARK    3  A    between atoms: C5_6  and  N1_7 
REMARK    4  A    between atoms: N1_7  and  C6_8 
REMARK    5  A    between atoms: N1_7  and  C13_17 
REMARK    6  A    between atoms: C6_8  and  C7_9 
REMARK    7  A    between atoms: C13_17  and  N2_19 
REMARK    8  A    between atoms: N2_19  and  C14_20 
ROOT
HETATM    1  N1  UNL     1      24.181   2.325  52.370  1.00  0.00    -0.350 N 
ENDROOT
BRANCH   1   2
HETATM    2  C5  UNL     1      24.942   2.608  53.565  1.00  0.00     0.164 C 
BRANCH   2   3
HETATM    3  C4  UNL     1      26.260   1.913  53.609  1.00  0.00    -0.042 A 
HETATM    4  C3  UNL     1      27.362   2.210  52.704  1.00  0.00     0.007 A 
HETATM    5  C2  UNL     1      28.349   1.395  53.047  1.00  0.00     0.009 A 
HETATM    6  C1  UNL     1      27.944   0.533  54.186  1.00  0.00     0.164 A 
HETATM    7  C20 UNL     1      26.568   0.957  54.468  1.00  0.00     0.017 A 
BRANCH   6   8
HETATM    8  O1  UNL     1      28.761   0.724  55.306  1.00  0.00    -0.388 OA
HETATM    9  H1  UNL     1      28.709   1.689  55.537  1.00  0.00     0.210 HD
ENDBRANCH   6   8
ENDBRANCH   2   3
ENDBRANCH   1   2
BRANCH   1  10
HETATM   10  C6  UNL     1      23.944   0.948  52.065  1.00  0.00     0.166 C 
BRANCH  10  11
HETATM   11  C7  UNL     1      22.897   0.263  52.805  1.00  0.00    -0.017 A 
HETATM   12  C8  UNL     1      23.246  -0.442  53.961  1.00  0.00     0.011 A 
HETATM   13  C9  UNL     1      22.455  -1.189  54.847  1.00  0.00     0.002 A 
HETATM   14  C10 UNL     1      21.114  -1.190  54.454  1.00  0.00     0.026 A 
HETATM   15  C11 UNL     1      20.679  -0.535  53.350  1.00  0.00     0.056 A 
HETATM   16 CL1  UNL     1      18.964  -0.594  52.938  1.00  0.00    -0.083 Cl
HETATM   17  C12 UNL     1      21.531   0.185  52.524  1.00  0.00     0.063 A 
HETATM   18 CL2  UNL     1      21.010   1.039  51.101  1.00  0.00    -0.082 Cl
ENDBRANCH  10  11
ENDBRANCH   1  10
BRANCH   1  19
HETATM   19  C13 UNL     1      23.725   3.354  51.511  1.00  0.00     0.174 C 
HETATM   20  S1  UNL     1      22.565   4.360  52.141  1.00  0.00    -0.041 SA
BRANCH  19  21
HETATM   21  N2  UNL     1      23.893   3.888  50.211  1.00  0.00    -0.333 N 
HETATM   22  H12 UNL     1      24.761   4.476  50.168  1.00  0.00     0.168 HD
BRANCH  21  23
HETATM   23  C14 UNL     1      23.229   3.870  48.959  1.00  0.00     0.034 A 
HETATM   24  C15 UNL     1      22.901   2.603  48.569  1.00  0.00     0.029 A 
HETATM   25  C16 UNL     1      22.239   2.377  47.396  1.00  0.00     0.002 A 
HETATM   26  C17 UNL     1      21.933   3.506  46.645  1.00  0.00     0.000 A 
HETATM   27  C18 UNL     1      22.287   4.749  47.083  1.00  0.00     0.002 A 
HETATM   28  C19 UNL     1      22.952   5.045  48.250  1.00  0.00     0.029 A 
ENDBRANCH  21  23
ENDBRANCH  19  21
ENDBRANCH   1  19
TORSDOF 8
ENDMDL
