MODEL 1
REMARK VINA RESULT:      -8.1      0.000      0.000
REMARK  1 active torsions:
REMARK  status: ('A' for Active; 'I' for Inactive)
REMARK    1  A    between atoms: C2_3  and  C3_4 
ROOT
HETATM    1  C3  UNL     1      28.244   0.567  53.148  1.00  0.00     0.031 C 
HETATM    2  C4  UNL     1      26.988   0.205  53.056  1.00  0.00     0.031 C 
HETATM    3  C5  UNL     1      26.143  -0.184  54.167  1.00  0.00     0.021 C 
HETATM    4  C6  UNL     1      25.240  -0.561  55.023  1.00  0.00     0.109 C 
HETATM    5  C7  UNL     1      23.918  -0.948  54.880  1.00  0.00    -0.094 C 
HETATM    6  C8  UNL     1      22.824  -1.291  54.759  1.00  0.00    -0.080 C 
HETATM    7  C9  UNL     1      21.499  -1.732  54.612  1.00  0.00     0.261 C 
HETATM    8  O1  UNL     1      20.663  -1.166  53.719  1.00  0.00    -0.379 OA
HETATM    9  C10 UNL     1      20.298   0.102  53.845  1.00  0.00     0.172 C 
HETATM   10  C11 UNL     1      21.301   1.173  53.642  1.00  0.00     0.053 C 
HETATM   11  C12 UNL     1      21.908   1.231  52.296  1.00  0.00    -0.024 C 
HETATM   12  C13 UNL     1      22.780   1.366  51.316  1.00  0.00     0.013 C 
HETATM   13  C14 UNL     1      24.199   1.683  51.220  1.00  0.00     0.027 A 
HETATM   14  C15 UNL     1      24.177   3.018  50.739  1.00  0.00     0.133 A 
HETATM   15  N1  UNL     1      25.194   3.897  50.436  1.00  0.00    -0.253 NA
HETATM   16  C16 UNL     1      26.441   3.376  50.638  1.00  0.00     0.234 A 
HETATM   17  N2  UNL     1      26.531   2.096  51.100  1.00  0.00    -0.224 NA
HETATM   18  C17 UNL     1      25.500   1.297  51.375  1.00  0.00     0.141 A 
HETATM   19  N3  UNL     1      26.342   0.196  51.790  1.00  0.00    -0.340 N 
HETATM   20  H16 UNL     1      26.612  -0.664  51.303  1.00  0.00     0.167 HD
ENDROOT
BRANCH   1  21
HETATM   21  C2  UNL     1      29.013   0.642  54.381  1.00  0.00     0.032 C 
HETATM   22  C1  UNL     1      29.480   1.779  54.808  1.00  0.00     0.188 C 
HETATM   23  F1  UNL     1      29.148   2.799  53.967  1.00  0.00    -0.219 F 
ENDBRANCH   1  21
TORSDOF 1
ENDMDL
MODEL 2
REMARK VINA RESULT:      -8.1      2.853      5.155
REMARK  1 active torsions:
REMARK  status: ('A' for Active; 'I' for Inactive)
REMARK    1  A    between atoms: C2_3  and  C3_4 
ROOT
HETATM    1  C3  UNL     1      26.674   0.134  53.552  1.00  0.00     0.031 C 
HETATM    2  C4  UNL     1      26.073   1.123  52.935  1.00  0.00     0.031 C 
HETATM    3  C5  UNL     1      26.534   1.755  51.716  1.00  0.00     0.021 C 
HETATM    4  C6  UNL     1      26.783   2.441  50.640  1.00  0.00     0.109 C 
HETATM    5  C7  UNL     1      26.123   3.492  50.026  1.00  0.00    -0.094 C 
HETATM    6  C8  UNL     1      25.585   4.382  49.527  1.00  0.00    -0.080 C 
HETATM    7  C9  UNL     1      24.946   5.480  48.930  1.00  0.00     0.261 C 
HETATM    8  O1  UNL     1      23.602   5.575  48.886  1.00  0.00    -0.379 OA
HETATM    9  C10 UNL     1      22.885   4.697  48.198  1.00  0.00     0.172 C 
HETATM   10  C11 UNL     1      22.809   3.293  48.664  1.00  0.00     0.053 C 
HETATM   11  C12 UNL     1      22.210   3.096  50.000  1.00  0.00    -0.024 C 
HETATM   12  C13 UNL     1      21.973   2.644  51.216  1.00  0.00     0.013 C 
HETATM   13  C14 UNL     1      22.559   1.631  52.083  1.00  0.00     0.027 A 
HETATM   14  C15 UNL     1      21.591   0.593  52.030  1.00  0.00     0.133 A 
HETATM   15  N1  UNL     1      21.545  -0.645  52.632  1.00  0.00    -0.253 NA
HETATM   16  C16 UNL     1      22.631  -0.908  53.419  1.00  0.00     0.234 A 
HETATM   17  N2  UNL     1      23.598   0.049  53.513  1.00  0.00    -0.224 NA
HETATM   18  C17 UNL     1      23.580   1.232  52.900  1.00  0.00     0.141 A 
HETATM   19  N3  UNL     1      24.854   1.643  53.448  1.00  0.00    -0.340 N 
HETATM   20  H16 UNL     1      25.080   2.279  54.219  1.00  0.00     0.167 HD
ENDROOT
BRANCH   1  21
HETATM   21  C2  UNL     1      27.909  -0.504  53.121  1.00  0.00     0.032 C 
HETATM   22  C1  UNL     1      28.948  -0.543  53.903  1.00  0.00     0.188 C 
HETATM   23  F1  UNL     1      28.695   0.068  55.095  1.00  0.00    -0.219 F 
ENDBRANCH   1  21
TORSDOF 1
ENDMDL
MODEL 3
REMARK VINA RESULT:      -8.0      1.843      4.311
REMARK  1 active torsions:
REMARK  status: ('A' for Active; 'I' for Inactive)
REMARK    1  A    between atoms: C2_3  and  C3_4 
ROOT
HETATM    1  C3  UNL     1      26.698   3.210  50.782  1.00  0.00     0.031 C 
HETATM    2  C4  UNL     1      25.703   2.783  51.520  1.00  0.00     0.031 C 
HETATM    3  C5  UNL     1      24.350   2.553  51.055  1.00  0.00     0.021 C 
HETATM    4  C6  UNL     1      23.097   2.294  50.829  1.00  0.00     0.109 C 
HETATM    5  C7  UNL     1      22.070   1.851  51.646  1.00  0.00    -0.094 C 
HETATM    6  C8  UNL     1      21.210   1.504  52.331  1.00  0.00    -0.080 C 
HETATM    7  C9  UNL     1      20.157   1.104  53.168  1.00  0.00     0.261 C 
HETATM    8  O1  UNL     1      20.342   0.205  54.155  1.00  0.00    -0.379 OA
HETATM    9  C10 UNL     1      20.683  -1.045  53.875  1.00  0.00     0.172 C 
HETATM   10  C11 UNL     1      22.026  -1.325  53.315  1.00  0.00     0.053 C 
HETATM   11  C12 UNL     1      23.166  -0.952  54.176  1.00  0.00    -0.024 C 
HETATM   12  C13 UNL     1      24.339  -0.508  54.585  1.00  0.00     0.013 C 
HETATM   13  C14 UNL     1      25.519   0.060  53.947  1.00  0.00     0.027 A 
HETATM   14  C15 UNL     1      26.444  -1.015  54.014  1.00  0.00     0.133 A 
HETATM   15  N1  UNL     1      27.748  -1.127  53.583  1.00  0.00    -0.253 NA
HETATM   16  C16 UNL     1      28.223   0.008  52.989  1.00  0.00     0.234 A 
HETATM   17  N2  UNL     1      27.383   1.079  52.893  1.00  0.00    -0.224 NA
HETATM   18  C17 UNL     1      26.126   1.119  53.333  1.00  0.00     0.141 A 
HETATM   19  N3  UNL     1      25.916   2.481  52.893  1.00  0.00    -0.340 N 
HETATM   20  H16 UNL     1      25.907   3.362  53.416  1.00  0.00     0.167 HD
ENDROOT
BRANCH   1  21
HETATM   21  C2  UNL     1      26.622   3.530  49.364  1.00  0.00     0.032 C 
HETATM   22  C1  UNL     1      26.358   4.741  48.966  1.00  0.00     0.188 C 
HETATM   23  F1  UNL     1      26.182   5.583  50.024  1.00  0.00    -0.219 F 
ENDBRANCH   1  21
TORSDOF 1
ENDMDL
MODEL 4
REMARK VINA RESULT:      -7.9      3.221      5.679
REMARK  1 active torsions:
REMARK  status: ('A' for Active; 'I' for Inactive)
REMARK    1  A    between atoms: C2_3  and  C3_4 
ROOT
HETATM    1  C3  UNL     1      22.540   3.634  47.916  1.00  0.00     0.031 C 
HETATM    2  C4  UNL     1      22.365   3.154  49.123  1.00  0.00     0.031 C 
HETATM    3  C5  UNL     1      21.584   1.980  49.456  1.00  0.00     0.021 C 
HETATM    4  C6  UNL     1      20.935   0.966  49.946  1.00  0.00     0.109 C 
HETATM    5  C7  UNL     1      20.767   0.499  51.239  1.00  0.00    -0.094 C 
HETATM    6  C8  UNL     1      20.609   0.122  52.317  1.00  0.00    -0.080 C 
HETATM    7  C9  UNL     1      20.396  -0.325  53.631  1.00  0.00     0.261 C 
HETATM    8  O1  UNL     1      21.373  -0.284  54.557  1.00  0.00    -0.379 OA
HETATM    9  C10 UNL     1      22.470  -1.016  54.415  1.00  0.00     0.172 C 
HETATM   10  C11 UNL     1      23.428  -0.689  53.333  1.00  0.00     0.053 C 
HETATM   11  C12 UNL     1      24.043   0.651  53.408  1.00  0.00    -0.024 C 
HETATM   12  C13 UNL     1      24.538   1.827  53.073  1.00  0.00     0.013 C 
HETATM   13  C14 UNL     1      24.745   2.554  51.828  1.00  0.00     0.027 A 
HETATM   14  C15 UNL     1      26.149   2.451  51.649  1.00  0.00     0.133 A 
HETATM   15  N1  UNL     1      26.982   2.927  50.660  1.00  0.00    -0.253 NA
HETATM   16  C16 UNL     1      26.324   3.622  49.684  1.00  0.00     0.234 A 
HETATM   17  N2  UNL     1      24.972   3.758  49.797  1.00  0.00    -0.224 NA
HETATM   18  C17 UNL     1      24.224   3.268  50.786  1.00  0.00     0.141 A 
HETATM   19  N3  UNL     1      22.990   3.783  50.235  1.00  0.00    -0.340 N 
HETATM   20  H16 UNL     1      22.427   4.600  50.493  1.00  0.00     0.167 HD
ENDROOT
BRANCH   1  21
HETATM   21  C2  UNL     1      21.980   3.073  46.695  1.00  0.00     0.032 C 
HETATM   22  C1  UNL     1      21.885   3.790  45.614  1.00  0.00     0.188 C 
HETATM   23  F1  UNL     1      22.363   5.051  45.812  1.00  0.00    -0.219 F 
ENDBRANCH   1  21
TORSDOF 1
ENDMDL
MODEL 5
REMARK VINA RESULT:      -7.8      3.200      5.565
REMARK  1 active torsions:
REMARK  status: ('A' for Active; 'I' for Inactive)
REMARK    1  A    between atoms: C2_3  and  C3_4 
ROOT
HETATM    1  C3  UNL     1      26.123   0.313  53.111  1.00  0.00     0.031 C 
HETATM    2  C4  UNL     1      25.760   1.444  52.556  1.00  0.00     0.031 C 
HETATM    3  C5  UNL     1      26.302   1.988  51.328  1.00  0.00     0.021 C 
HETATM    4  C6  UNL     1      26.660   2.632  50.257  1.00  0.00     0.109 C 
HETATM    5  C7  UNL     1      26.255   3.838  49.709  1.00  0.00    -0.094 C 
HETATM    6  C8  UNL     1      25.934   4.852  49.265  1.00  0.00    -0.080 C 
HETATM    7  C9  UNL     1      25.562   6.098  48.736  1.00  0.00     0.261 C 
HETATM    8  O1  UNL     1      24.285   6.527  48.773  1.00  0.00    -0.379 OA
HETATM    9  C10 UNL     1      23.336   5.884  48.107  1.00  0.00     0.172 C 
HETATM   10  C11 UNL     1      22.933   4.527  48.541  1.00  0.00     0.053 C 
HETATM   11  C12 UNL     1      22.373   4.433  49.905  1.00  0.00    -0.024 C 
HETATM   12  C13 UNL     1      22.092   4.006  51.121  1.00  0.00     0.013 C 
HETATM   13  C14 UNL     1      22.447   2.846  51.927  1.00  0.00     0.027 A 
HETATM   14  C15 UNL     1      21.249   2.086  51.904  1.00  0.00     0.133 A 
HETATM   15  N1  UNL     1      20.923   0.876  52.476  1.00  0.00    -0.253 NA
HETATM   16  C16 UNL     1      21.947   0.320  53.191  1.00  0.00     0.234 A 
HETATM   17  N2  UNL     1      23.127   1.001  53.252  1.00  0.00    -0.224 NA
HETATM   18  C17 UNL     1      23.376   2.174  52.671  1.00  0.00     0.141 A 
HETATM   19  N3  UNL     1      24.738   2.232  53.153  1.00  0.00    -0.340 N 
HETATM   20  H16 UNL     1      25.156   2.761  53.925  1.00  0.00     0.167 HD
ENDROOT
BRANCH   1  21
HETATM   21  C2  UNL     1      27.135  -0.596  52.593  1.00  0.00     0.032 C 
HETATM   22  C1  UNL     1      28.234  -0.817  53.252  1.00  0.00     0.188 C 
HETATM   23  F1  UNL     1      28.267  -0.107  54.415  1.00  0.00    -0.219 F 
ENDBRANCH   1  21
TORSDOF 1
ENDMDL
MODEL 6
REMARK VINA RESULT:      -7.7      3.100      5.610
REMARK  1 active torsions:
REMARK  status: ('A' for Active; 'I' for Inactive)
REMARK    1  A    between atoms: C2_3  and  C3_4 
ROOT
HETATM    1  C3  UNL     1      23.755   4.898  48.826  1.00  0.00     0.031 C 
HETATM    2  C4  UNL     1      24.007   3.752  49.412  1.00  0.00     0.031 C 
HETATM    3  C5  UNL     1      25.258   3.391  50.048  1.00  0.00     0.021 C 
HETATM    4  C6  UNL     1      26.290   2.890  50.658  1.00  0.00     0.109 C 
HETATM    5  C7  UNL     1      26.519   1.662  51.256  1.00  0.00    -0.094 C 
HETATM    6  C8  UNL     1      26.717   0.632  51.735  1.00  0.00    -0.080 C 
HETATM    7  C9  UNL     1      26.968  -0.629  52.298  1.00  0.00     0.261 C 
HETATM    8  O1  UNL     1      26.022  -1.294  52.990  1.00  0.00    -0.379 OA
HETATM    9  C10 UNL     1      25.548  -0.806  54.128  1.00  0.00     0.172 C 
HETATM   10  C11 UNL     1      24.722   0.423  54.105  1.00  0.00     0.053 C 
HETATM   11  C12 UNL     1      23.462   0.331  53.341  1.00  0.00    -0.024 C 
HETATM   12  C13 UNL     1      22.445   0.627  52.554  1.00  0.00     0.013 C 
HETATM   13  C14 UNL     1      22.034   1.785  51.773  1.00  0.00     0.027 A 
HETATM   14  C15 UNL     1      20.963   2.304  52.546  1.00  0.00     0.133 A 
HETATM   15  N1  UNL     1      20.144   3.396  52.357  1.00  0.00    -0.253 NA
HETATM   16  C16 UNL     1      20.425   4.095  51.216  1.00  0.00     0.234 A 
HETATM   17  N2  UNL     1      21.444   3.647  50.428  1.00  0.00    -0.224 NA
HETATM   18  C17 UNL     1      22.200   2.578  50.672  1.00  0.00     0.141 A 
HETATM   19  N3  UNL     1      22.999   2.752  49.478  1.00  0.00    -0.340 N 
HETATM   20  H16 UNL     1      22.972   2.269  48.575  1.00  0.00     0.167 HD
ENDROOT
BRANCH   1  21
HETATM   21  C2  UNL     1      24.686   6.010  48.711  1.00  0.00     0.032 C 
HETATM   22  C1  UNL     1      24.613   7.028  49.517  1.00  0.00     0.188 C 
HETATM   23  F1  UNL     1      23.596   6.879  50.413  1.00  0.00    -0.219 F 
ENDBRANCH   1  21
TORSDOF 1
ENDMDL
MODEL 7
REMARK VINA RESULT:      -7.7      4.881      8.160
REMARK  1 active torsions:
REMARK  status: ('A' for Active; 'I' for Inactive)
REMARK    1  A    between atoms: C2_3  and  C3_4 
ROOT
HETATM    1  C3  UNL     1      23.490   3.430  51.613  1.00  0.00     0.031 C 
HETATM    2  C4  UNL     1      24.418   4.238  51.163  1.00  0.00     0.031 C 
HETATM    3  C5  UNL     1      25.413   3.901  50.165  1.00  0.00     0.021 C 
HETATM    4  C6  UNL     1      26.373   3.789  49.295  1.00  0.00     0.109 C 
HETATM    5  C7  UNL     1      27.345   4.672  48.855  1.00  0.00    -0.094 C 
HETATM    6  C8  UNL     1      28.168   5.399  48.504  1.00  0.00    -0.080 C 
HETATM    7  C9  UNL     1      29.185   6.275  48.093  1.00  0.00     0.261 C 
HETATM    8  O1  UNL     1      28.957   7.592  47.926  1.00  0.00    -0.379 OA
HETATM    9  C10 UNL     1      28.119   8.019  46.991  1.00  0.00     0.172 C 
HETATM   10  C11 UNL     1      26.669   7.746  47.133  1.00  0.00     0.053 C 
HETATM   11  C12 UNL     1      26.023   8.336  48.322  1.00  0.00    -0.024 C 
HETATM   12  C13 UNL     1      25.252   8.505  49.379  1.00  0.00     0.013 C 
HETATM   13  C14 UNL     1      24.237   7.717  50.066  1.00  0.00     0.027 A 
HETATM   14  C15 UNL     1      23.038   8.374  49.686  1.00  0.00     0.133 A 
HETATM   15  N1  UNL     1      21.720   8.122  49.998  1.00  0.00    -0.253 NA
HETATM   16  C16 UNL     1      21.552   7.045  50.823  1.00  0.00     0.234 A 
HETATM   17  N2  UNL     1      22.667   6.369  51.225  1.00  0.00    -0.224 NA
HETATM   18  C17 UNL     1      23.920   6.668  50.882  1.00  0.00     0.141 A 
HETATM   19  N3  UNL     1      24.488   5.575  51.641  1.00  0.00    -0.340 N 
HETATM   20  H16 UNL     1      24.960   5.562  52.551  1.00  0.00     0.167 HD
ENDROOT
BRANCH   1  21
HETATM   21  C2  UNL     1      23.293   2.051  51.191  1.00  0.00     0.032 C 
HETATM   22  C1  UNL     1      23.473   1.066  52.022  1.00  0.00     0.188 C 
HETATM   23  F1  UNL     1      23.845   1.518  53.253  1.00  0.00    -0.219 F 
ENDBRANCH   1  21
TORSDOF 1
ENDMDL
MODEL 8
REMARK VINA RESULT:      -7.6      4.202      7.386
REMARK  1 active torsions:
REMARK  status: ('A' for Active; 'I' for Inactive)
REMARK    1  A    between atoms: C2_3  and  C3_4 
ROOT
HETATM    1  C3  UNL     1      19.400   1.890  51.494  1.00  0.00     0.031 C 
HETATM    2  C4  UNL     1      20.700   1.763  51.381  1.00  0.00     0.031 C 
HETATM    3  C5  UNL     1      21.645   2.857  51.291  1.00  0.00     0.021 C 
HETATM    4  C6  UNL     1      22.636   3.694  51.198  1.00  0.00     0.109 C 
HETATM    5  C7  UNL     1      24.003   3.516  51.067  1.00  0.00    -0.094 C 
HETATM    6  C8  UNL     1      25.139   3.368  50.937  1.00  0.00    -0.080 C 
HETATM    7  C9  UNL     1      26.519   3.191  50.754  1.00  0.00     0.261 C 
HETATM    8  O1  UNL     1      27.191   2.200  51.373  1.00  0.00    -0.379 OA
HETATM    9  C10 UNL     1      27.295   2.176  52.695  1.00  0.00     0.172 C 
HETATM   10  C11 UNL     1      26.088   1.923  53.516  1.00  0.00     0.053 C 
HETATM   11  C12 UNL     1      25.435   0.616  53.304  1.00  0.00    -0.024 C 
HETATM   12  C13 UNL     1      24.519  -0.322  53.155  1.00  0.00     0.013 C 
HETATM   13  C14 UNL     1      23.063  -0.368  53.172  1.00  0.00     0.027 A 
HETATM   14  C15 UNL     1      22.796  -0.982  54.424  1.00  0.00     0.133 A 
HETATM   15  N1  UNL     1      21.612  -1.314  55.045  1.00  0.00    -0.253 NA
HETATM   16  C16 UNL     1      20.505  -0.989  54.312  1.00  0.00     0.234 A 
HETATM   17  N2  UNL     1      20.693  -0.396  53.098  1.00  0.00    -0.224 NA
HETATM   18  C17 UNL     1      21.874  -0.101  52.555  1.00  0.00     0.141 A 
HETATM   19  N3  UNL     1      21.288   0.469  51.361  1.00  0.00    -0.340 N 
HETATM   20  H16 UNL     1      21.182   0.087  50.416  1.00  0.00     0.167 HD
ENDROOT
BRANCH   1  21
HETATM   21  C2  UNL     1      18.676   3.151  51.551  1.00  0.00     0.032 C 
HETATM   22  C1  UNL     1      17.375   3.174  51.562  1.00  0.00     0.188 C 
HETATM   23  F1  UNL     1      16.857   1.914  51.516  1.00  0.00    -0.219 F 
ENDBRANCH   1  21
TORSDOF 1
ENDMDL
MODEL 9
REMARK VINA RESULT:      -7.6      2.383      4.778
REMARK  1 active torsions:
REMARK  status: ('A' for Active; 'I' for Inactive)
REMARK    1  A    between atoms: C2_3  and  C3_4 
ROOT
HETATM    1  C3  UNL     1      26.525   3.569  50.495  1.00  0.00     0.031 C 
HETATM    2  C4  UNL     1      25.301   3.364  50.918  1.00  0.00     0.031 C 
HETATM    3  C5  UNL     1      24.109   3.416  50.096  1.00  0.00     0.021 C 
HETATM    4  C6  UNL     1      22.939   3.420  49.530  1.00  0.00     0.109 C 
HETATM    5  C7  UNL     1      21.661   3.208  50.020  1.00  0.00    -0.094 C 
HETATM    6  C8  UNL     1      20.596   3.052  50.432  1.00  0.00    -0.080 C 
HETATM    7  C9  UNL     1      19.296   2.887  50.936  1.00  0.00     0.261 C 
HETATM    8  O1  UNL     1      19.020   1.979  51.892  1.00  0.00    -0.379 OA
HETATM    9  C10 UNL     1      19.165   0.682  51.654  1.00  0.00     0.172 C 
HETATM   10  C11 UNL     1      20.524   0.125  51.462  1.00  0.00     0.053 C 
HETATM   11  C12 UNL     1      21.438   0.261  52.614  1.00  0.00    -0.024 C 
HETATM   12  C13 UNL     1      22.519   0.456  53.344  1.00  0.00     0.013 C 
HETATM   13  C14 UNL     1      23.918   0.761  53.073  1.00  0.00     0.027 A 
HETATM   14  C15 UNL     1      24.552  -0.482  53.334  1.00  0.00     0.133 A 
HETATM   15  N1  UNL     1      25.874  -0.866  53.264  1.00  0.00    -0.253 NA
HETATM   16  C16 UNL     1      26.712   0.141  52.874  1.00  0.00     0.234 A 
HETATM   17  N2  UNL     1      26.164   1.361  52.608  1.00  0.00    -0.224 NA
HETATM   18  C17 UNL     1      24.870   1.665  52.696  1.00  0.00     0.141 A 
HETATM   19  N3  UNL     1      25.067   3.037  52.282  1.00  0.00    -0.340 N 
HETATM   20  H16 UNL     1      25.094   3.906  52.824  1.00  0.00     0.167 HD
ENDROOT
BRANCH   1  21
HETATM   21  C2  UNL     1      26.904   3.885  49.126  1.00  0.00     0.032 C 
HETATM   22  C1  UNL     1      26.945   5.118  48.712  1.00  0.00     0.188 C 
HETATM   23  F1  UNL     1      26.601   5.986  49.705  1.00  0.00    -0.219 F 
ENDBRANCH   1  21
TORSDOF 1
ENDMDL
