MODEL 1
REMARK VINA RESULT:      -7.8      0.000      0.000
REMARK  6 active torsions:
REMARK  status: ('A' for Active; 'I' for Inactive)
REMARK    1  A    between atoms: C4_5  and  N1_6 
REMARK    2  A    between atoms: N1_6  and  C5_7 
REMARK    3  A    between atoms: C7_12  and  C8_13 
REMARK    4  A    between atoms: C9_14  and  C10_15 
REMARK    5  A    between atoms: C10_15  and  C11_16 
REMARK    6  A    between atoms: C11_16  and  C12_17 
ROOT
HETATM    1  C5  UNL     1      27.511   1.623  52.586  1.00  0.00     0.160 A 
HETATM    2  N2  UNL     1      28.365   2.478  53.133  1.00  0.00    -0.220 NA
HETATM    3  C6  UNL     1      29.151   2.233  54.171  1.00  0.00     0.259 A 
HETATM    4  N3  UNL     1      29.058   1.012  54.695  1.00  0.00    -0.143 NA
HETATM    5  N4  UNL     1      28.226   0.131  54.188  1.00  0.00    -0.145 NA
HETATM    6  C7  UNL     1      27.418   0.342  53.141  1.00  0.00     0.124 A 
ENDROOT
BRANCH   1   7
HETATM    7  N1  UNL     1      26.684   1.909  51.478  1.00  0.00    -0.339 N 
HETATM    8  H3  UNL     1      26.982   1.626  50.524  1.00  0.00     0.167 HD
BRANCH   7   9
HETATM    9  C4  UNL     1      25.430   2.566  51.468  1.00  0.00     0.035 A 
HETATM   10  C3  UNL     1      24.733   2.955  52.591  1.00  0.00     0.032 A 
HETATM   11  C2  UNL     1      23.512   3.593  52.593  1.00  0.00     0.046 A 
HETATM   12  C1  UNL     1      22.925   3.875  51.388  1.00  0.00     0.133 A 
HETATM   13  F1  UNL     1      21.737   4.494  51.296  1.00  0.00    -0.205 F 
HETATM   14  C19 UNL     1      23.559   3.518  50.220  1.00  0.00     0.051 A 
HETATM   15  C18 UNL     1      24.775   2.882  50.297  1.00  0.00     0.051 A 
HETATM   16 BR1  UNL     1      22.766   3.895  48.534  1.00  0.00    -0.048 Br
ENDBRANCH   7   9
ENDBRANCH   1   7
BRANCH   6  17
HETATM   17  C8  UNL     1      26.539  -0.713  52.670  1.00  0.00     0.033 C 
HETATM   18  C9  UNL     1      25.281  -0.855  53.044  1.00  0.00    -0.024 C 
BRANCH  18  19
HETATM   19  C10 UNL     1      24.312  -0.185  53.928  1.00  0.00     0.032 C 
BRANCH  19  20
HETATM   20  C11 UNL     1      22.923  -0.797  53.816  1.00  0.00     0.042 C 
BRANCH  20  21
HETATM   21  C12 UNL     1      21.978   0.032  53.060  1.00  0.00    -0.058 A 
HETATM   22  C13 UNL     1      22.057  -0.076  51.689  1.00  0.00     0.007 A 
HETATM   23  C14 UNL     1      21.213   0.658  50.853  1.00  0.00     0.001 A 
HETATM   24  C15 UNL     1      20.291   1.504  51.432  1.00  0.00     0.000 A 
HETATM   25  C16 UNL     1      20.221   1.603  52.808  1.00  0.00     0.001 A 
HETATM   26  C17 UNL     1      21.055   0.878  53.644  1.00  0.00     0.007 A 
ENDBRANCH  20  21
ENDBRANCH  19  20
ENDBRANCH  18  19
ENDBRANCH   6  17
TORSDOF 6
ENDMDL
MODEL 2
REMARK VINA RESULT:      -7.8      2.895      5.618
REMARK  6 active torsions:
REMARK  status: ('A' for Active; 'I' for Inactive)
REMARK    1  A    between atoms: C4_5  and  N1_6 
REMARK    2  A    between atoms: N1_6  and  C5_7 
REMARK    3  A    between atoms: C7_12  and  C8_13 
REMARK    4  A    between atoms: C9_14  and  C10_15 
REMARK    5  A    between atoms: C10_15  and  C11_16 
REMARK    6  A    between atoms: C11_16  and  C12_17 
ROOT
HETATM    1  C5  UNL     1      26.438   0.127  53.657  1.00  0.00     0.160 A 
HETATM    2  N2  UNL     1      27.434  -0.499  54.270  1.00  0.00    -0.220 NA
HETATM    3  C6  UNL     1      28.469   0.081  54.860  1.00  0.00     0.259 A 
HETATM    4  N3  UNL     1      28.489   1.412  54.822  1.00  0.00    -0.143 NA
HETATM    5  N4  UNL     1      27.525   2.077  54.226  1.00  0.00    -0.145 NA
HETATM    6  C7  UNL     1      26.465   1.526  53.621  1.00  0.00     0.124 A 
ENDROOT
BRANCH   1   7
HETATM    7  N1  UNL     1      25.345  -0.515  53.036  1.00  0.00    -0.339 N 
HETATM    8  H3  UNL     1      25.503  -1.111  52.200  1.00  0.00     0.167 HD
BRANCH   7   9
HETATM    9  C4  UNL     1      23.979  -0.467  53.402  1.00  0.00     0.035 A 
HETATM   10  C3  UNL     1      23.468  -0.890  54.609  1.00  0.00     0.032 A 
HETATM   11  C2  UNL     1      22.141  -0.850  54.975  1.00  0.00     0.046 A 
HETATM   12  C1  UNL     1      21.235  -0.347  54.077  1.00  0.00     0.133 A 
HETATM   13  F1  UNL     1      19.923  -0.269  54.351  1.00  0.00    -0.205 F 
HETATM   14  C19 UNL     1      21.667   0.097  52.849  1.00  0.00     0.051 A 
HETATM   15  C18 UNL     1      23.008   0.023  52.555  1.00  0.00     0.051 A 
HETATM   16 BR1  UNL     1      20.433   0.798  51.585  1.00  0.00    -0.048 Br
ENDBRANCH   7   9
ENDBRANCH   1   7
BRANCH   6  17
HETATM   17  C8  UNL     1      25.461   2.367  52.995  1.00  0.00     0.033 C 
HETATM   18  C9  UNL     1      25.558   2.855  51.772  1.00  0.00    -0.024 C 
BRANCH  18  19
HETATM   19  C10 UNL     1      26.506   2.824  50.645  1.00  0.00     0.032 C 
BRANCH  19  20
HETATM   20  C11 UNL     1      25.923   3.466  49.394  1.00  0.00     0.042 C 
BRANCH  20  21
HETATM   21  C12 UNL     1      26.515   4.769  49.075  1.00  0.00    -0.058 A 
HETATM   22  C13 UNL     1      27.818   4.737  48.630  1.00  0.00     0.007 A 
HETATM   23  C14 UNL     1      28.499   5.908  48.292  1.00  0.00     0.001 A 
HETATM   24  C15 UNL     1      27.836   7.111  48.414  1.00  0.00     0.000 A 
HETATM   25  C16 UNL     1      26.529   7.130  48.862  1.00  0.00     0.001 A 
HETATM   26  C17 UNL     1      25.846   5.972  49.199  1.00  0.00     0.007 A 
ENDBRANCH  20  21
ENDBRANCH  19  20
ENDBRANCH  18  19
ENDBRANCH   6  17
TORSDOF 6
ENDMDL
MODEL 3
REMARK VINA RESULT:      -7.5      1.640      1.826
REMARK  6 active torsions:
REMARK  status: ('A' for Active; 'I' for Inactive)
REMARK    1  A    between atoms: C4_5  and  N1_6 
REMARK    2  A    between atoms: N1_6  and  C5_7 
REMARK    3  A    between atoms: C7_12  and  C8_13 
REMARK    4  A    between atoms: C9_14  and  C10_15 
REMARK    5  A    between atoms: C10_15  and  C11_16 
REMARK    6  A    between atoms: C11_16  and  C12_17 
ROOT
HETATM    1  C5  UNL     1      27.491   1.421  52.478  1.00  0.00     0.160 A 
HETATM    2  N2  UNL     1      28.313   2.369  52.910  1.00  0.00    -0.220 NA
HETATM    3  C6  UNL     1      29.005   2.339  54.040  1.00  0.00     0.259 A 
HETATM    4  N3  UNL     1      28.845   1.251  54.791  1.00  0.00    -0.143 NA
HETATM    5  N4  UNL     1      28.043   0.286  54.405  1.00  0.00    -0.145 NA
HETATM    6  C7  UNL     1      27.328   0.280  53.271  1.00  0.00     0.124 A 
ENDROOT
BRANCH   1   7
HETATM    7  N1  UNL     1      26.764   1.476  51.268  1.00  0.00    -0.339 N 
HETATM    8  H3  UNL     1      26.707   0.635  50.661  1.00  0.00     0.167 HD
BRANCH   7   9
HETATM    9  C4  UNL     1      26.057   2.573  50.722  1.00  0.00     0.035 A 
HETATM   10  C3  UNL     1      24.694   2.753  50.803  1.00  0.00     0.032 A 
HETATM   11  C2  UNL     1      23.995   3.816  50.274  1.00  0.00     0.046 A 
HETATM   12  C1  UNL     1      24.696   4.787  49.608  1.00  0.00     0.133 A 
HETATM   13  F1  UNL     1      24.096   5.857  49.062  1.00  0.00    -0.205 F 
HETATM   14  C19 UNL     1      26.062   4.679  49.484  1.00  0.00     0.051 A 
HETATM   15  C18 UNL     1      26.690   3.588  50.038  1.00  0.00     0.051 A 
HETATM   16 BR1  UNL     1      27.059   6.011  48.565  1.00  0.00    -0.048 Br
ENDBRANCH   7   9
ENDBRANCH   1   7
BRANCH   6  17
HETATM   17  C8  UNL     1      26.473  -0.848  52.952  1.00  0.00     0.033 C 
HETATM   18  C9  UNL     1      25.156  -0.833  53.047  1.00  0.00    -0.024 C 
BRANCH  18  19
HETATM   19  C10 UNL     1      24.090   0.107  53.435  1.00  0.00     0.032 C 
BRANCH  19  20
HETATM   20  C11 UNL     1      22.959  -0.591  54.177  1.00  0.00     0.042 C 
BRANCH  20  21
HETATM   21  C12 UNL     1      21.653  -0.442  53.527  1.00  0.00    -0.058 A 
HETATM   22  C13 UNL     1      21.639   0.343  52.395  1.00  0.00     0.007 A 
HETATM   23  C14 UNL     1      20.460   0.566  51.681  1.00  0.00     0.001 A 
HETATM   24  C15 UNL     1      19.297  -0.018  52.136  1.00  0.00     0.000 A 
HETATM   25  C16 UNL     1      19.324  -0.803  53.273  1.00  0.00     0.001 A 
HETATM   26  C17 UNL     1      20.491  -1.030  53.987  1.00  0.00     0.007 A 
ENDBRANCH  20  21
ENDBRANCH  19  20
ENDBRANCH  18  19
ENDBRANCH   6  17
TORSDOF 6
ENDMDL
MODEL 4
REMARK VINA RESULT:      -7.4      3.167      6.079
REMARK  6 active torsions:
REMARK  status: ('A' for Active; 'I' for Inactive)
REMARK    1  A    between atoms: C4_5  and  N1_6 
REMARK    2  A    between atoms: N1_6  and  C5_7 
REMARK    3  A    between atoms: C7_12  and  C8_13 
REMARK    4  A    between atoms: C9_14  and  C10_15 
REMARK    5  A    between atoms: C10_15  and  C11_16 
REMARK    6  A    between atoms: C11_16  and  C12_17 
ROOT
HETATM    1  C5  UNL     1      23.451   2.900  51.571  1.00  0.00     0.160 A 
HETATM    2  N2  UNL     1      22.510   3.653  52.125  1.00  0.00    -0.220 NA
HETATM    3  C6  UNL     1      22.506   4.978  52.174  1.00  0.00     0.259 A 
HETATM    4  N3  UNL     1      23.549   5.584  51.611  1.00  0.00    -0.143 NA
HETATM    5  N4  UNL     1      24.507   4.880  51.050  1.00  0.00    -0.145 NA
HETATM    6  C7  UNL     1      24.545   3.543  50.980  1.00  0.00     0.124 A 
ENDROOT
BRANCH   1   7
HETATM    7  N1  UNL     1      23.432   1.488  51.530  1.00  0.00    -0.339 N 
HETATM    8  H3  UNL     1      24.019   0.983  50.838  1.00  0.00     0.167 HD
BRANCH   7   9
HETATM    9  C4  UNL     1      22.687   0.600  52.342  1.00  0.00     0.035 A 
HETATM   10  C3  UNL     1      23.217  -0.205  53.326  1.00  0.00     0.032 A 
HETATM   11  C2  UNL     1      22.502  -1.074  54.120  1.00  0.00     0.046 A 
HETATM   12  C1  UNL     1      21.147  -1.158  53.933  1.00  0.00     0.133 A 
HETATM   13  F1  UNL     1      20.373  -1.978  54.662  1.00  0.00    -0.205 F 
HETATM   14  C19 UNL     1      20.542  -0.386  52.968  1.00  0.00     0.051 A 
HETATM   15  C18 UNL     1      21.322   0.457  52.214  1.00  0.00     0.051 A 
HETATM   16 BR1  UNL     1      18.665  -0.485  52.687  1.00  0.00    -0.048 Br
ENDBRANCH   7   9
ENDBRANCH   1   7
BRANCH   6  17
HETATM   17  C8  UNL     1      25.659   2.876  50.333  1.00  0.00     0.033 C 
HETATM   18  C9  UNL     1      26.711   2.395  50.971  1.00  0.00    -0.024 C 
BRANCH  18  19
HETATM   19  C10 UNL     1      27.210   2.296  52.353  1.00  0.00     0.032 C 
BRANCH  19  20
HETATM   20  C11 UNL     1      26.543   1.161  53.117  1.00  0.00     0.042 C 
BRANCH  20  21
HETATM   21  C12 UNL     1      27.305  -0.092  53.086  1.00  0.00    -0.058 A 
HETATM   22  C13 UNL     1      28.624   0.005  53.472  1.00  0.00     0.007 A 
HETATM   23  C14 UNL     1      29.460  -1.114  53.488  1.00  0.00     0.001 A 
HETATM   24  C15 UNL     1      28.935  -2.330  53.104  1.00  0.00     0.000 A 
HETATM   25  C16 UNL     1      27.611  -2.414  52.719  1.00  0.00     0.001 A 
HETATM   26  C17 UNL     1      26.775  -1.308  52.701  1.00  0.00     0.007 A 
ENDBRANCH  20  21
ENDBRANCH  19  20
ENDBRANCH  18  19
ENDBRANCH   6  17
TORSDOF 6
ENDMDL
MODEL 5
REMARK VINA RESULT:      -7.4      3.202      5.304
REMARK  6 active torsions:
REMARK  status: ('A' for Active; 'I' for Inactive)
REMARK    1  A    between atoms: C4_5  and  N1_6 
REMARK    2  A    between atoms: N1_6  and  C5_7 
REMARK    3  A    between atoms: C7_12  and  C8_13 
REMARK    4  A    between atoms: C9_14  and  C10_15 
REMARK    5  A    between atoms: C10_15  and  C11_16 
REMARK    6  A    between atoms: C11_16  and  C12_17 
ROOT
HETATM    1  C5  UNL     1      25.675   3.248  51.421  1.00  0.00     0.160 A 
HETATM    2  N2  UNL     1      26.562   3.301  50.437  1.00  0.00    -0.220 NA
HETATM    3  C6  UNL     1      26.435   3.994  49.314  1.00  0.00     0.259 A 
HETATM    4  N3  UNL     1      25.308   4.692  49.186  1.00  0.00    -0.143 NA
HETATM    5  N4  UNL     1      24.399   4.671  50.135  1.00  0.00    -0.145 NA
HETATM    6  C7  UNL     1      24.493   3.984  51.282  1.00  0.00     0.124 A 
ENDROOT
BRANCH   1   7
HETATM    7  N1  UNL     1      25.835   2.502  52.609  1.00  0.00    -0.339 N 
HETATM    8  H3  UNL     1      25.096   2.527  53.339  1.00  0.00     0.167 HD
BRANCH   7   9
HETATM    9  C4  UNL     1      26.919   1.672  52.982  1.00  0.00     0.035 A 
HETATM   10  C3  UNL     1      28.087   2.111  53.564  1.00  0.00     0.032 A 
HETATM   11  C2  UNL     1      29.149   1.313  53.929  1.00  0.00     0.046 A 
HETATM   12  C1  UNL     1      29.053  -0.036  53.705  1.00  0.00     0.133 A 
HETATM   13  F1  UNL     1      30.039  -0.888  54.030  1.00  0.00    -0.205 F 
HETATM   14  C19 UNL     1      27.917  -0.553  53.127  1.00  0.00     0.051 A 
HETATM   15  C18 UNL     1      26.899   0.307  52.789  1.00  0.00     0.051 A 
HETATM   16 BR1  UNL     1      27.758  -2.420  52.804  1.00  0.00    -0.048 Br
ENDBRANCH   7   9
ENDBRANCH   1   7
BRANCH   6  17
HETATM   17  C8  UNL     1      23.420   4.040  52.257  1.00  0.00     0.033 C 
HETATM   18  C9  UNL     1      22.288   3.367  52.157  1.00  0.00    -0.024 C 
BRANCH  18  19
HETATM   19  C10 UNL     1      21.648   2.422  51.227  1.00  0.00     0.032 C 
BRANCH  19  20
HETATM   20  C11 UNL     1      22.379   1.087  51.179  1.00  0.00     0.042 C 
BRANCH  20  21
HETATM   21  C12 UNL     1      22.223   0.291  52.401  1.00  0.00    -0.058 A 
HETATM   22  C13 UNL     1      20.928  -0.046  52.730  1.00  0.00     0.007 A 
HETATM   23  C14 UNL     1      20.642  -0.802  53.868  1.00  0.00     0.001 A 
HETATM   24  C15 UNL     1      21.690  -1.208  54.667  1.00  0.00     0.000 A 
HETATM   25  C16 UNL     1      22.984  -0.864  54.327  1.00  0.00     0.001 A 
HETATM   26  C17 UNL     1      23.277  -0.113  53.198  1.00  0.00     0.007 A 
ENDBRANCH  20  21
ENDBRANCH  19  20
ENDBRANCH  18  19
ENDBRANCH   6  17
TORSDOF 6
ENDMDL
MODEL 6
REMARK VINA RESULT:      -7.2      3.432      5.527
REMARK  6 active torsions:
REMARK  status: ('A' for Active; 'I' for Inactive)
REMARK    1  A    between atoms: C4_5  and  N1_6 
REMARK    2  A    between atoms: N1_6  and  C5_7 
REMARK    3  A    between atoms: C7_12  and  C8_13 
REMARK    4  A    between atoms: C9_14  and  C10_15 
REMARK    5  A    between atoms: C10_15  and  C11_16 
REMARK    6  A    between atoms: C11_16  and  C12_17 
ROOT
HETATM    1  C5  UNL     1      23.378   5.232  52.054  1.00  0.00     0.160 A 
HETATM    2  N2  UNL     1      24.028   6.228  51.467  1.00  0.00    -0.220 NA
HETATM    3  C6  UNL     1      23.505   7.102  50.619  1.00  0.00     0.259 A 
HETATM    4  N3  UNL     1      22.211   6.947  50.349  1.00  0.00    -0.143 NA
HETATM    5  N4  UNL     1      21.525   5.974  50.906  1.00  0.00    -0.145 NA
HETATM    6  C7  UNL     1      22.018   5.074  51.766  1.00  0.00     0.124 A 
ENDROOT
BRANCH   1   7
HETATM    7  N1  UNL     1      23.959   4.312  52.956  1.00  0.00    -0.339 N 
HETATM    8  H3  UNL     1      23.796   4.416  53.977  1.00  0.00     0.167 HD
BRANCH   7   9
HETATM    9  C4  UNL     1      24.783   3.200  52.661  1.00  0.00     0.035 A 
HETATM   10  C3  UNL     1      25.170   2.816  51.397  1.00  0.00     0.032 A 
HETATM   11  C2  UNL     1      25.969   1.735  51.099  1.00  0.00     0.046 A 
HETATM   12  C1  UNL     1      26.431   0.964  52.133  1.00  0.00     0.133 A 
HETATM   13  F1  UNL     1      27.215  -0.108  51.935  1.00  0.00    -0.205 F 
HETATM   14  C19 UNL     1      26.088   1.283  53.427  1.00  0.00     0.051 A 
HETATM   15  C18 UNL     1      25.285   2.376  53.646  1.00  0.00     0.051 A 
HETATM   16 BR1  UNL     1      26.713   0.230  54.881  1.00  0.00    -0.048 Br
ENDBRANCH   7   9
ENDBRANCH   1   7
BRANCH   6  17
HETATM   17  C8  UNL     1      21.159   4.042  52.317  1.00  0.00     0.033 C 
HETATM   18  C9  UNL     1      21.091   2.806  51.856  1.00  0.00    -0.024 C 
BRANCH  18  19
HETATM   19  C10 UNL     1      21.700   1.994  50.790  1.00  0.00     0.032 C 
BRANCH  19  20
HETATM   20  C11 UNL     1      21.325   0.523  50.911  1.00  0.00     0.042 C 
BRANCH  20  21
HETATM   21  C12 UNL     1      21.625  -0.051  52.227  1.00  0.00    -0.058 A 
HETATM   22  C13 UNL     1      20.533  -0.453  52.963  1.00  0.00     0.007 A 
HETATM   23  C14 UNL     1      20.680  -1.016  54.233  1.00  0.00     0.001 A 
HETATM   24  C15 UNL     1      21.954  -1.162  54.741  1.00  0.00     0.000 A 
HETATM   25  C16 UNL     1      23.041  -0.755  53.992  1.00  0.00     0.001 A 
HETATM   26  C17 UNL     1      22.903  -0.195  52.732  1.00  0.00     0.007 A 
ENDBRANCH  20  21
ENDBRANCH  19  20
ENDBRANCH  18  19
ENDBRANCH   6  17
TORSDOF 6
ENDMDL
MODEL 7
REMARK VINA RESULT:      -7.2      3.342      6.217
REMARK  6 active torsions:
REMARK  status: ('A' for Active; 'I' for Inactive)
REMARK    1  A    between atoms: C4_5  and  N1_6 
REMARK    2  A    between atoms: N1_6  and  C5_7 
REMARK    3  A    between atoms: C7_12  and  C8_13 
REMARK    4  A    between atoms: C9_14  and  C10_15 
REMARK    5  A    between atoms: C10_15  and  C11_16 
REMARK    6  A    between atoms: C11_16  and  C12_17 
ROOT
HETATM    1  C5  UNL     1      23.334   3.263  51.069  1.00  0.00     0.160 A 
HETATM    2  N2  UNL     1      22.331   4.060  51.416  1.00  0.00    -0.220 NA
HETATM    3  C6  UNL     1      22.381   5.382  51.492  1.00  0.00     0.259 A 
HETATM    4  N3  UNL     1      23.552   5.938  51.187  1.00  0.00    -0.143 NA
HETATM    5  N4  UNL     1      24.575   5.190  50.838  1.00  0.00    -0.145 NA
HETATM    6  C7  UNL     1      24.562   3.853  50.750  1.00  0.00     0.124 A 
ENDROOT
BRANCH   1   7
HETATM    7  N1  UNL     1      23.255   1.855  50.995  1.00  0.00    -0.339 N 
HETATM    8  H3  UNL     1      23.637   1.359  50.166  1.00  0.00     0.167 HD
BRANCH   7   9
HETATM    9  C4  UNL     1      22.698   0.960  51.939  1.00  0.00     0.035 A 
HETATM   10  C3  UNL     1      21.378   0.570  51.975  1.00  0.00     0.032 A 
HETATM   11  C2  UNL     1      20.825  -0.300  52.889  1.00  0.00     0.046 A 
HETATM   12  C1  UNL     1      21.642  -0.835  53.851  1.00  0.00     0.133 A 
HETATM   13  F1  UNL     1      21.188  -1.691  54.781  1.00  0.00    -0.205 F 
HETATM   14  C19 UNL     1      22.974  -0.495  53.881  1.00  0.00     0.051 A 
HETATM   15  C18 UNL     1      23.453   0.381  52.936  1.00  0.00     0.051 A 
HETATM   16 BR1  UNL     1      24.129  -1.221  55.206  1.00  0.00    -0.048 Br
ENDBRANCH   7   9
ENDBRANCH   1   7
BRANCH   6  17
HETATM   17  C8  UNL     1      25.758   3.135  50.352  1.00  0.00     0.033 C 
HETATM   18  C9  UNL     1      26.504   2.420  51.174  1.00  0.00    -0.024 C 
BRANCH  18  19
HETATM   19  C10 UNL     1      26.527   2.048  52.599  1.00  0.00     0.032 C 
BRANCH  19  20
HETATM   20  C11 UNL     1      27.917   1.625  53.053  1.00  0.00     0.042 C 
BRANCH  20  21
HETATM   21  C12 UNL     1      28.119   0.172  53.046  1.00  0.00    -0.058 A 
HETATM   22  C13 UNL     1      27.031  -0.576  52.651  1.00  0.00     0.007 A 
HETATM   23  C14 UNL     1      27.090  -1.970  52.599  1.00  0.00     0.001 A 
HETATM   24  C15 UNL     1      28.269  -2.590  52.956  1.00  0.00     0.000 A 
HETATM   25  C16 UNL     1      29.352  -1.829  53.350  1.00  0.00     0.001 A 
HETATM   26  C17 UNL     1      29.302  -0.445  53.404  1.00  0.00     0.007 A 
ENDBRANCH  20  21
ENDBRANCH  19  20
ENDBRANCH  18  19
ENDBRANCH   6  17
TORSDOF 6
ENDMDL
MODEL 8
REMARK VINA RESULT:      -6.9      3.423      5.865
REMARK  6 active torsions:
REMARK  status: ('A' for Active; 'I' for Inactive)
REMARK    1  A    between atoms: C4_5  and  N1_6 
REMARK    2  A    between atoms: N1_6  and  C5_7 
REMARK    3  A    between atoms: C7_12  and  C8_13 
REMARK    4  A    between atoms: C9_14  and  C10_15 
REMARK    5  A    between atoms: C10_15  and  C11_16 
REMARK    6  A    between atoms: C11_16  and  C12_17 
ROOT
HETATM    1  C5  UNL     1      20.019   1.413  52.179  1.00  0.00     0.160 A 
HETATM    2  N2  UNL     1      19.212   1.391  51.127  1.00  0.00    -0.220 NA
HETATM    3  C6  UNL     1      18.304   0.462  50.865  1.00  0.00     0.259 A 
HETATM    4  N3  UNL     1      18.212  -0.527  51.751  1.00  0.00    -0.143 NA
HETATM    5  N4  UNL     1      18.991  -0.550  52.809  1.00  0.00    -0.145 NA
HETATM    6  C7  UNL     1      19.918   0.371  53.107  1.00  0.00     0.124 A 
ENDROOT
BRANCH   1   7
HETATM    7  N1  UNL     1      20.980   2.416  52.437  1.00  0.00    -0.339 N 
HETATM    8  H3  UNL     1      20.977   2.912  53.349  1.00  0.00     0.167 HD
BRANCH   7   9
HETATM    9  C4  UNL     1      22.012   2.878  51.586  1.00  0.00     0.035 A 
HETATM   10  C3  UNL     1      22.649   2.117  50.631  1.00  0.00     0.032 A 
HETATM   11  C2  UNL     1      23.656   2.555  49.799  1.00  0.00     0.046 A 
HETATM   12  C1  UNL     1      24.070   3.857  49.912  1.00  0.00     0.133 A 
HETATM   13  F1  UNL     1      25.044   4.368  49.142  1.00  0.00    -0.205 F 
HETATM   14  C19 UNL     1      23.482   4.681  50.843  1.00  0.00     0.051 A 
HETATM   15  C18 UNL     1      22.484   4.172  51.639  1.00  0.00     0.051 A 
HETATM   16 BR1  UNL     1      24.039   6.490  51.023  1.00  0.00    -0.048 Br
ENDBRANCH   7   9
ENDBRANCH   1   7
BRANCH   6  17
HETATM   17  C8  UNL     1      20.720   0.237  54.309  1.00  0.00     0.033 C 
HETATM   18  C9  UNL     1      21.943  -0.261  54.336  1.00  0.00    -0.024 C 
BRANCH  18  19
HETATM   19  C10 UNL     1      22.925  -0.819  53.392  1.00  0.00     0.032 C 
BRANCH  19  20
HETATM   20  C11 UNL     1      24.350  -0.695  53.915  1.00  0.00     0.042 C 
BRANCH  20  21
HETATM   21  C12 UNL     1      25.119   0.374  53.270  1.00  0.00    -0.058 A 
HETATM   22  C13 UNL     1      26.017  -0.035  52.309  1.00  0.00     0.007 A 
HETATM   23  C14 UNL     1      26.811   0.883  51.619  1.00  0.00     0.001 A 
HETATM   24  C15 UNL     1      26.679   2.221  51.922  1.00  0.00     0.000 A 
HETATM   25  C16 UNL     1      25.775   2.620  52.888  1.00  0.00     0.001 A 
HETATM   26  C17 UNL     1      24.983   1.715  53.577  1.00  0.00     0.007 A 
ENDBRANCH  20  21
ENDBRANCH  19  20
ENDBRANCH  18  19
ENDBRANCH   6  17
TORSDOF 6
ENDMDL
MODEL 9
REMARK VINA RESULT:      -6.9      3.102      4.241
REMARK  6 active torsions:
REMARK  status: ('A' for Active; 'I' for Inactive)
REMARK    1  A    between atoms: C4_5  and  N1_6 
REMARK    2  A    between atoms: N1_6  and  C5_7 
REMARK    3  A    between atoms: C7_12  and  C8_13 
REMARK    4  A    between atoms: C9_14  and  C10_15 
REMARK    5  A    between atoms: C10_15  and  C11_16 
REMARK    6  A    between atoms: C11_16  and  C12_17 
ROOT
HETATM    1  C5  UNL     1      25.798   2.988  51.107  1.00  0.00     0.160 A 
HETATM    2  N2  UNL     1      26.979   2.488  51.448  1.00  0.00    -0.220 NA
HETATM    3  C6  UNL     1      27.238   1.790  52.545  1.00  0.00     0.259 A 
HETATM    4  N3  UNL     1      26.206   1.586  53.361  1.00  0.00    -0.143 NA
HETATM    5  N4  UNL     1      25.018   2.062  53.067  1.00  0.00    -0.145 NA
HETATM    6  C7  UNL     1      24.718   2.770  51.969  1.00  0.00     0.124 A 
ENDROOT
BRANCH   1   7
HETATM    7  N1  UNL     1      25.548   3.729  49.931  1.00  0.00    -0.339 N 
HETATM    8  H3  UNL     1      24.754   3.466  49.314  1.00  0.00     0.167 HD
BRANCH   7   9
HETATM    9  C4  UNL     1      26.258   4.847  49.434  1.00  0.00     0.035 A 
HETATM   10  C3  UNL     1      27.454   4.784  48.753  1.00  0.00     0.032 A 
HETATM   11  C2  UNL     1      28.154   5.866  48.265  1.00  0.00     0.046 A 
HETATM   12  C1  UNL     1      27.634   7.118  48.461  1.00  0.00     0.133 A 
HETATM   13  F1  UNL     1      28.249   8.227  48.020  1.00  0.00    -0.205 F 
HETATM   14  C19 UNL     1      26.442   7.264  49.133  1.00  0.00     0.051 A 
HETATM   15  C18 UNL     1      25.801   6.138  49.592  1.00  0.00     0.051 A 
HETATM   16 BR1  UNL     1      25.699   8.990  49.420  1.00  0.00    -0.048 Br
ENDBRANCH   7   9
ENDBRANCH   1   7
BRANCH   6  17
HETATM   17  C8  UNL     1      23.364   3.245  51.752  1.00  0.00     0.033 C 
HETATM   18  C9  UNL     1      22.451   2.595  51.054  1.00  0.00    -0.024 C 
BRANCH  18  19
HETATM   19  C10 UNL     1      22.332   1.338  50.296  1.00  0.00     0.032 C 
BRANCH  19  20
HETATM   20  C11 UNL     1      21.218   0.452  50.835  1.00  0.00     0.042 C 
BRANCH  20  21
HETATM   21  C12 UNL     1      21.345   0.157  52.266  1.00  0.00    -0.058 A 
HETATM   22  C13 UNL     1      22.444  -0.593  52.623  1.00  0.00     0.007 A 
HETATM   23  C14 UNL     1      22.683  -0.943  53.953  1.00  0.00     0.001 A 
HETATM   24  C15 UNL     1      21.788  -0.522  54.913  1.00  0.00     0.000 A 
HETATM   25  C16 UNL     1      20.689   0.229  54.543  1.00  0.00     0.001 A 
HETATM   26  C17 UNL     1      20.445   0.581  53.224  1.00  0.00     0.007 A 
ENDBRANCH  20  21
ENDBRANCH  19  20
ENDBRANCH  18  19
ENDBRANCH   6  17
TORSDOF 6
ENDMDL
