MODEL 1
REMARK VINA RESULT:      -8.5      0.000      0.000
REMARK  5 active torsions:
REMARK  status: ('A' for Active; 'I' for Inactive)
REMARK    1  A    between atoms: O1_2  and  C2_3 
REMARK    2  A    between atoms: C5_6  and  C6_7 
REMARK    3  A    between atoms: C8_9  and  C9_10 
REMARK    4  A    between atoms: N2_17  and  C15_18 
REMARK    5  A    between atoms: C16_20  and  O2_21 
ROOT
HETATM    1  C6  UNL     1      25.211   1.049  53.391  1.00  0.00     0.129 A 
HETATM    2  C7  UNL     1      24.753   2.239  52.600  1.00  0.00     0.090 A 
HETATM    3  C8  UNL     1      25.814   2.492  51.617  1.00  0.00     0.067 A 
HETATM    4  N1  UNL     1      26.798   1.667  51.745  1.00  0.00    -0.174 NA
HETATM    5  N2  UNL     1      26.533   0.779  52.802  1.00  0.00    -0.240 N 
ENDROOT
BRANCH   5   6
HETATM    6  C15 UNL     1      27.553  -0.182  53.082  1.00  0.00     0.192 A 
HETATM    7  N3  UNL     1      27.546  -1.643  53.025  1.00  0.00    -0.198 NA
HETATM    8  C16 UNL     1      28.773  -2.032  53.375  1.00  0.00     0.171 A 
HETATM    9  C17 UNL     1      30.007  -1.333  53.769  1.00  0.00     0.111 A 
HETATM   10  S1  UNL     1      29.251   0.400  53.610  1.00  0.00    -0.058 SA
BRANCH   8  11
HETATM   11  O2  UNL     1      28.638  -3.439  53.281  1.00  0.00    -0.344 OA
HETATM   12  H16 UNL     1      28.088  -3.767  52.486  1.00  0.00     0.219 HD
ENDBRANCH   8  11
ENDBRANCH   5   6
BRANCH   1  13
HETATM   13  C5  UNL     1      24.328  -0.169  53.184  1.00  0.00     0.071 A 
HETATM   14  C2  UNL     1      23.912  -0.857  54.388  1.00  0.00     0.048 A 
HETATM   15  C3  UNL     1      22.659  -0.656  54.175  1.00  0.00     0.007 A 
HETATM   16  C4  UNL     1      22.885   0.065  52.931  1.00  0.00     0.043 A 
BRANCH  14  17
HETATM   17  O1  UNL     1      24.802  -1.449  55.298  1.00  0.00    -0.360 OA
HETATM   18  C1  UNL     1      25.141  -0.864  56.525  1.00  0.00     0.209 C 
ENDBRANCH  14  17
ENDBRANCH   1  13
BRANCH   3  19
HETATM   19  C9  UNL     1      25.736   3.566  50.637  1.00  0.00    -0.010 A 
HETATM   20  C10 UNL     1      24.591   4.356  50.473  1.00  0.00     0.013 A 
HETATM   21  C11 UNL     1      24.632   5.352  49.520  1.00  0.00     0.001 A 
HETATM   22  C12 UNL     1      25.722   5.611  48.730  1.00  0.00     0.000 A 
HETATM   23  C13 UNL     1      26.869   4.852  48.863  1.00  0.00     0.001 A 
HETATM   24  C14 UNL     1      26.805   3.863  49.821  1.00  0.00     0.013 A 
ENDBRANCH   3  19
TORSDOF 5
ENDMDL
MODEL 2
REMARK VINA RESULT:      -8.3      3.124      6.230
REMARK  5 active torsions:
REMARK  status: ('A' for Active; 'I' for Inactive)
REMARK    1  A    between atoms: O1_2  and  C2_3 
REMARK    2  A    between atoms: C5_6  and  C6_7 
REMARK    3  A    between atoms: C8_9  and  C9_10 
REMARK    4  A    between atoms: N2_17  and  C15_18 
REMARK    5  A    between atoms: C16_20  and  O2_21 
ROOT
HETATM    1  C6  UNL     1      25.561   1.077  52.903  1.00  0.00     0.129 A 
HETATM    2  C7  UNL     1      24.416   0.289  53.469  1.00  0.00     0.090 A 
HETATM    3  C8  UNL     1      23.240   0.677  52.676  1.00  0.00     0.067 A 
HETATM    4  N1  UNL     1      23.530   1.568  51.789  1.00  0.00    -0.174 NA
HETATM    5  N2  UNL     1      24.897   1.885  51.868  1.00  0.00    -0.240 N 
ENDROOT
BRANCH   5   6
HETATM    6  C15 UNL     1      25.361   2.884  50.957  1.00  0.00     0.192 A 
HETATM    7  N3  UNL     1      26.706   3.216  50.490  1.00  0.00    -0.198 NA
HETATM    8  C16 UNL     1      26.560   4.227  49.632  1.00  0.00     0.171 A 
HETATM    9  C17 UNL     1      25.411   4.993  49.122  1.00  0.00     0.111 A 
HETATM   10  S1  UNL     1      24.129   4.025  50.132  1.00  0.00    -0.058 SA
BRANCH   8  11
HETATM   11  O2  UNL     1      27.908   4.450  49.259  1.00  0.00    -0.344 OA
HETATM   12  H16 UNL     1      28.296   3.759  48.616  1.00  0.00     0.219 HD
ENDBRANCH   8  11
ENDBRANCH   5   6
BRANCH   1  13
HETATM   13  C5  UNL     1      26.606   0.198  52.239  1.00  0.00     0.071 A 
HETATM   14  C2  UNL     1      27.951   0.313  52.763  1.00  0.00     0.048 A 
HETATM   15  C3  UNL     1      28.010  -0.920  53.124  1.00  0.00     0.007 A 
HETATM   16  C4  UNL     1      26.668  -1.226  52.652  1.00  0.00     0.043 A 
BRANCH  14  17
HETATM   17  O1  UNL     1      28.697   1.502  52.746  1.00  0.00    -0.360 OA
HETATM   18  C1  UNL     1      28.711   2.411  53.812  1.00  0.00     0.209 C 
ENDBRANCH  14  17
ENDBRANCH   1  13
BRANCH   3  19
HETATM   19  C9  UNL     1      21.918   0.111  52.905  1.00  0.00    -0.010 A 
HETATM   20  C10 UNL     1      20.788   0.521  52.187  1.00  0.00     0.013 A 
HETATM   21  C11 UNL     1      19.588  -0.090  52.481  1.00  0.00     0.001 A 
HETATM   22  C12 UNL     1      19.439  -1.070  53.428  1.00  0.00     0.000 A 
HETATM   23  C13 UNL     1      20.532  -1.500  54.156  1.00  0.00     0.001 A 
HETATM   24  C14 UNL     1      21.720  -0.875  53.846  1.00  0.00     0.013 A 
ENDBRANCH   3  19
TORSDOF 5
ENDMDL
MODEL 3
REMARK VINA RESULT:      -8.2      2.102      4.125
REMARK  5 active torsions:
REMARK  status: ('A' for Active; 'I' for Inactive)
REMARK    1  A    between atoms: O1_2  and  C2_3 
REMARK    2  A    between atoms: C5_6  and  C6_7 
REMARK    3  A    between atoms: C8_9  and  C9_10 
REMARK    4  A    between atoms: N2_17  and  C15_18 
REMARK    5  A    between atoms: C16_20  and  O2_21 
ROOT
HETATM    1  C6  UNL     1      26.435   0.695  52.361  1.00  0.00     0.129 A 
HETATM    2  C7  UNL     1      26.739   1.779  51.369  1.00  0.00     0.090 A 
HETATM    3  C8  UNL     1      25.463   2.469  51.134  1.00  0.00     0.067 A 
HETATM    4  N1  UNL     1      24.496   1.935  51.802  1.00  0.00    -0.174 NA
HETATM    5  N2  UNL     1      24.983   0.848  52.548  1.00  0.00    -0.240 N 
ENDROOT
BRANCH   5   6
HETATM    6  C15 UNL     1      24.015   0.137  53.322  1.00  0.00     0.192 A 
HETATM    7  N3  UNL     1      24.159  -0.727  54.493  1.00  0.00    -0.198 NA
HETATM    8  C16 UNL     1      22.925  -1.116  54.819  1.00  0.00     0.171 A 
HETATM    9  C17 UNL     1      21.582  -0.861  54.272  1.00  0.00     0.111 A 
HETATM   10  S1  UNL     1      22.203   0.262  52.875  1.00  0.00    -0.058 SA
BRANCH   8  11
HETATM   11  O2  UNL     1      23.196  -1.930  55.945  1.00  0.00    -0.344 OA
HETATM   12  H16 UNL     1      24.140  -2.314  55.982  1.00  0.00     0.219 HD
ENDBRANCH   8  11
ENDBRANCH   5   6
BRANCH   1  13
HETATM   13  C5  UNL     1      27.124   0.912  53.696  1.00  0.00     0.071 A 
HETATM   14  C2  UNL     1      28.295   0.097  53.940  1.00  0.00     0.048 A 
HETATM   15  C3  UNL     1      29.085   1.106  54.047  1.00  0.00     0.007 A 
HETATM   16  C4  UNL     1      28.029   2.082  53.820  1.00  0.00     0.043 A 
BRANCH  14  17
HETATM   17  O1  UNL     1      28.275  -1.306  53.989  1.00  0.00    -0.360 OA
HETATM   18  C1  UNL     1      29.021  -2.112  53.119  1.00  0.00     0.209 C 
ENDBRANCH  14  17
ENDBRANCH   1  13
BRANCH   3  19
HETATM   19  C9  UNL     1      25.341   3.609  50.237  1.00  0.00    -0.010 A 
HETATM   20  C10 UNL     1      24.102   4.111  49.819  1.00  0.00     0.013 A 
HETATM   21  C11 UNL     1      24.105   5.201  48.975  1.00  0.00     0.001 A 
HETATM   22  C12 UNL     1      25.243   5.817  48.524  1.00  0.00     0.000 A 
HETATM   23  C13 UNL     1      26.484   5.349  48.915  1.00  0.00     0.001 A 
HETATM   24  C14 UNL     1      26.456   4.260  49.758  1.00  0.00     0.013 A 
ENDBRANCH   3  19
TORSDOF 5
ENDMDL
MODEL 4
REMARK VINA RESULT:      -8.1      3.625      6.253
REMARK  5 active torsions:
REMARK  status: ('A' for Active; 'I' for Inactive)
REMARK    1  A    between atoms: O1_2  and  C2_3 
REMARK    2  A    between atoms: C5_6  and  C6_7 
REMARK    3  A    between atoms: C8_9  and  C9_10 
REMARK    4  A    between atoms: N2_17  and  C15_18 
REMARK    5  A    between atoms: C16_20  and  O2_21 
ROOT
HETATM    1  C6  UNL     1      23.452  -0.043  52.825  1.00  0.00     0.129 A 
HETATM    2  C7  UNL     1      24.642  -0.944  52.981  1.00  0.00     0.090 A 
HETATM    3  C8  UNL     1      25.810  -0.053  53.015  1.00  0.00     0.067 A 
HETATM    4  N1  UNL     1      25.476   1.185  52.873  1.00  0.00    -0.174 NA
HETATM    5  N2  UNL     1      24.081   1.283  52.729  1.00  0.00    -0.240 N 
ENDROOT
BRANCH   5   6
HETATM    6  C15 UNL     1      23.563   2.602  52.535  1.00  0.00     0.192 A 
HETATM    7  N3  UNL     1      24.137   3.917  52.815  1.00  0.00    -0.198 NA
HETATM    8  C16 UNL     1      23.226   4.809  52.424  1.00  0.00     0.171 A 
HETATM    9  C17 UNL     1      21.885   4.721  51.822  1.00  0.00     0.111 A 
HETATM   10  S1  UNL     1      21.866   2.824  51.779  1.00  0.00    -0.058 SA
BRANCH   8  11
HETATM   11  O2  UNL     1      23.890   6.018  52.742  1.00  0.00    -0.344 OA
HETATM   12  H16 UNL     1      23.407   6.866  52.442  1.00  0.00     0.219 HD
ENDBRANCH   8  11
ENDBRANCH   5   6
BRANCH   1  13
HETATM   13  C5  UNL     1      22.539  -0.062  54.039  1.00  0.00     0.071 A 
HETATM   14  C2  UNL     1      21.225  -0.634  53.829  1.00  0.00     0.048 A 
HETATM   15  C3  UNL     1      21.399  -1.572  54.692  1.00  0.00     0.007 A 
HETATM   16  C4  UNL     1      22.745  -1.141  55.036  1.00  0.00     0.043 A 
BRANCH  14  17
HETATM   17  O1  UNL     1      20.285  -0.121  52.921  1.00  0.00    -0.360 OA
HETATM   18  C1  UNL     1      18.944  -0.525  52.900  1.00  0.00     0.209 C 
ENDBRANCH  14  17
ENDBRANCH   1  13
BRANCH   3  19
HETATM   19  C9  UNL     1      27.169  -0.548  53.176  1.00  0.00    -0.010 A 
HETATM   20  C10 UNL     1      27.529  -1.872  52.896  1.00  0.00     0.013 A 
HETATM   21  C11 UNL     1      28.849  -2.228  53.077  1.00  0.00     0.001 A 
HETATM   22  C12 UNL     1      29.822  -1.366  53.512  1.00  0.00     0.000 A 
HETATM   23  C13 UNL     1      29.504  -0.053  53.799  1.00  0.00     0.001 A 
HETATM   24  C14 UNL     1      28.180   0.281  53.611  1.00  0.00     0.013 A 
ENDBRANCH   3  19
TORSDOF 5
ENDMDL
MODEL 5
REMARK VINA RESULT:      -7.9      3.581      7.038
REMARK  5 active torsions:
REMARK  status: ('A' for Active; 'I' for Inactive)
REMARK    1  A    between atoms: O1_2  and  C2_3 
REMARK    2  A    between atoms: C5_6  and  C6_7 
REMARK    3  A    between atoms: C8_9  and  C9_10 
REMARK    4  A    between atoms: N2_17  and  C15_18 
REMARK    5  A    between atoms: C16_20  and  O2_21 
ROOT
HETATM    1  C6  UNL     1      25.302   2.733  51.911  1.00  0.00     0.129 A 
HETATM    2  C7  UNL     1      26.582   1.977  52.108  1.00  0.00     0.090 A 
HETATM    3  C8  UNL     1      26.181   0.612  52.478  1.00  0.00     0.067 A 
HETATM    4  N1  UNL     1      24.899   0.489  52.550  1.00  0.00    -0.174 NA
HETATM    5  N2  UNL     1      24.290   1.719  52.249  1.00  0.00    -0.240 N 
ENDROOT
BRANCH   5   6
HETATM    6  C15 UNL     1      22.862   1.743  52.315  1.00  0.00     0.192 A 
HETATM    7  N3  UNL     1      21.914   2.856  52.332  1.00  0.00    -0.198 NA
HETATM    8  C16 UNL     1      20.700   2.306  52.387  1.00  0.00     0.171 A 
HETATM    9  C17 UNL     1      20.191   0.925  52.429  1.00  0.00     0.111 A 
HETATM   10  S1  UNL     1      21.914   0.132  52.377  1.00  0.00    -0.058 SA
BRANCH   8  11
HETATM   11  O2  UNL     1      19.887   3.466  52.398  1.00  0.00    -0.344 OA
HETATM   12  H16 UNL     1      19.892   3.986  53.275  1.00  0.00     0.219 HD
ENDBRANCH   8  11
ENDBRANCH   5   6
BRANCH   1  13
HETATM   13  C5  UNL     1      25.093   3.168  50.471  1.00  0.00     0.071 A 
HETATM   14  C2  UNL     1      25.072   4.598  50.242  1.00  0.00     0.048 A 
HETATM   15  C3  UNL     1      26.092   4.577  49.459  1.00  0.00     0.007 A 
HETATM   16  C4  UNL     1      26.269   3.136  49.567  1.00  0.00     0.043 A 
BRANCH  14  17
HETATM   17  O1  UNL     1      24.132   5.469  50.817  1.00  0.00    -0.360 OA
HETATM   18  C1  UNL     1      24.306   6.857  50.864  1.00  0.00     0.209 C 
ENDBRANCH  14  17
ENDBRANCH   1  13
BRANCH   3  19
HETATM   19  C9  UNL     1      27.147  -0.446  52.738  1.00  0.00    -0.010 A 
HETATM   20  C10 UNL     1      26.886  -1.792  52.454  1.00  0.00     0.013 A 
HETATM   21  C11 UNL     1      27.878  -2.708  52.733  1.00  0.00     0.001 A 
HETATM   22  C12 UNL     1      29.096  -2.379  53.268  1.00  0.00     0.000 A 
HETATM   23  C13 UNL     1      29.389  -1.061  53.561  1.00  0.00     0.001 A 
HETATM   24  C14 UNL     1      28.384  -0.163  53.274  1.00  0.00     0.013 A 
ENDBRANCH   3  19
TORSDOF 5
ENDMDL
MODEL 6
REMARK VINA RESULT:      -7.6      2.739      5.869
REMARK  5 active torsions:
REMARK  status: ('A' for Active; 'I' for Inactive)
REMARK    1  A    between atoms: O1_2  and  C2_3 
REMARK    2  A    between atoms: C5_6  and  C6_7 
REMARK    3  A    between atoms: C8_9  and  C9_10 
REMARK    4  A    between atoms: N2_17  and  C15_18 
REMARK    5  A    between atoms: C16_20  and  O2_21 
ROOT
HETATM    1  C6  UNL     1      24.836   1.937  51.414  1.00  0.00     0.129 A 
HETATM    2  C7  UNL     1      23.401   1.500  51.458  1.00  0.00     0.090 A 
HETATM    3  C8  UNL     1      23.298   0.598  52.613  1.00  0.00     0.067 A 
HETATM    4  N1  UNL     1      24.435   0.433  53.200  1.00  0.00    -0.174 NA
HETATM    5  N2  UNL     1      25.421   1.181  52.533  1.00  0.00    -0.240 N 
ENDROOT
BRANCH   5   6
HETATM    6  C15 UNL     1      26.747   1.076  53.057  1.00  0.00     0.192 A 
HETATM    7  N3  UNL     1      27.624   2.069  53.675  1.00  0.00    -0.198 NA
HETATM    8  C16 UNL     1      28.747   1.424  53.994  1.00  0.00     0.171 A 
HETATM    9  C17 UNL     1      29.218   0.036  53.852  1.00  0.00     0.111 A 
HETATM   10  S1  UNL     1      27.624  -0.576  53.024  1.00  0.00    -0.058 SA
BRANCH   8  11
HETATM   11  O2  UNL     1      29.498   2.475  54.573  1.00  0.00    -0.344 OA
HETATM   12  H16 UNL     1      30.482   2.261  54.740  1.00  0.00     0.219 HD
ENDBRANCH   8  11
ENDBRANCH   5   6
BRANCH   1  13
HETATM   13  C5  UNL     1      25.006   3.421  51.687  1.00  0.00     0.071 A 
HETATM   14  C2  UNL     1      24.617   4.307  50.610  1.00  0.00     0.048 A 
HETATM   15  C3  UNL     1      23.707   4.894  51.304  1.00  0.00     0.007 A 
HETATM   16  C4  UNL     1      23.960   4.095  52.494  1.00  0.00     0.043 A 
BRANCH  14  17
HETATM   17  O1  UNL     1      25.212   4.301  49.338  1.00  0.00    -0.360 OA
HETATM   18  C1  UNL     1      26.534   4.704  49.112  1.00  0.00     0.209 C 
ENDBRANCH  14  17
ENDBRANCH   1  13
BRANCH   3  19
HETATM   19  C9  UNL     1      22.045  -0.029  53.010  1.00  0.00    -0.010 A 
HETATM   20  C10 UNL     1      20.802   0.400  52.529  1.00  0.00     0.013 A 
HETATM   21  C11 UNL     1      19.681  -0.274  52.965  1.00  0.00     0.001 A 
HETATM   22  C12 UNL     1      19.713  -1.332  53.837  1.00  0.00     0.000 A 
HETATM   23  C13 UNL     1      20.922  -1.782  54.332  1.00  0.00     0.001 A 
HETATM   24  C14 UNL     1      22.029  -1.094  53.883  1.00  0.00     0.013 A 
ENDBRANCH   3  19
TORSDOF 5
ENDMDL
MODEL 7
REMARK VINA RESULT:      -7.6      3.436      6.410
REMARK  5 active torsions:
REMARK  status: ('A' for Active; 'I' for Inactive)
REMARK    1  A    between atoms: O1_2  and  C2_3 
REMARK    2  A    between atoms: C5_6  and  C6_7 
REMARK    3  A    between atoms: C8_9  and  C9_10 
REMARK    4  A    between atoms: N2_17  and  C15_18 
REMARK    5  A    between atoms: C16_20  and  O2_21 
ROOT
HETATM    1  C6  UNL     1      24.235   2.212  52.850  1.00  0.00     0.129 A 
HETATM    2  C7  UNL     1      25.730   2.093  52.889  1.00  0.00     0.090 A 
HETATM    3  C8  UNL     1      26.007   0.681  53.186  1.00  0.00     0.067 A 
HETATM    4  N1  UNL     1      24.922   0.001  53.349  1.00  0.00    -0.174 NA
HETATM    5  N2  UNL     1      23.809   0.844  53.189  1.00  0.00    -0.240 N 
ENDROOT
BRANCH   5   6
HETATM    6  C15 UNL     1      22.530   0.233  53.369  1.00  0.00     0.192 A 
HETATM    7  N3  UNL     1      21.231   0.512  52.758  1.00  0.00    -0.198 NA
HETATM    8  C16 UNL     1      20.380  -0.374  53.279  1.00  0.00     0.171 A 
HETATM    9  C17 UNL     1      20.497  -1.469  54.256  1.00  0.00     0.111 A 
HETATM   10  S1  UNL     1      22.351  -1.203  54.555  1.00  0.00    -0.058 SA
BRANCH   8  11
HETATM   11  O2  UNL     1      19.182  -0.006  52.620  1.00  0.00    -0.344 OA
HETATM   12  H16 UNL     1      18.616   0.687  53.110  1.00  0.00     0.219 HD
ENDBRANCH   8  11
ENDBRANCH   5   6
BRANCH   1  13
HETATM   13  C5  UNL     1      23.710   2.557  51.468  1.00  0.00     0.071 A 
HETATM   14  C2  UNL     1      23.032   3.832  51.352  1.00  0.00     0.048 A 
HETATM   15  C3  UNL     1      23.870   4.299  50.496  1.00  0.00     0.007 A 
HETATM   16  C4  UNL     1      24.679   3.090  50.479  1.00  0.00     0.043 A 
BRANCH  14  17
HETATM   17  O1  UNL     1      21.867   4.165  52.062  1.00  0.00    -0.360 OA
HETATM   18  C1  UNL     1      20.578   3.927  51.569  1.00  0.00     0.209 C 
ENDBRANCH  14  17
ENDBRANCH   1  13
BRANCH   3  19
HETATM   19  C9  UNL     1      27.359   0.151  53.289  1.00  0.00    -0.010 A 
HETATM   20  C10 UNL     1      28.456   0.946  53.641  1.00  0.00     0.013 A 
HETATM   21  C11 UNL     1      29.690   0.336  53.717  1.00  0.00     0.001 A 
HETATM   22  C12 UNL     1      29.903  -0.996  53.469  1.00  0.00     0.000 A 
HETATM   23  C13 UNL     1      28.844  -1.811  53.119  1.00  0.00     0.001 A 
HETATM   24  C14 UNL     1      27.621  -1.180  53.049  1.00  0.00     0.013 A 
ENDBRANCH   3  19
TORSDOF 5
ENDMDL
MODEL 8
REMARK VINA RESULT:      -7.4      3.816      6.827
REMARK  5 active torsions:
REMARK  status: ('A' for Active; 'I' for Inactive)
REMARK    1  A    between atoms: O1_2  and  C2_3 
REMARK    2  A    between atoms: C5_6  and  C6_7 
REMARK    3  A    between atoms: C8_9  and  C9_10 
REMARK    4  A    between atoms: N2_17  and  C15_18 
REMARK    5  A    between atoms: C16_20  and  O2_21 
ROOT
HETATM    1  C6  UNL     1      23.610   1.320  53.319  1.00  0.00     0.129 A 
HETATM    2  C7  UNL     1      22.432   0.403  53.469  1.00  0.00     0.090 A 
HETATM    3  C8  UNL     1      21.401   0.935  52.568  1.00  0.00     0.067 A 
HETATM    4  N1  UNL     1      21.792   2.008  51.967  1.00  0.00    -0.174 NA
HETATM    5  N2  UNL     1      23.099   2.326  52.376  1.00  0.00    -0.240 N 
ENDROOT
BRANCH   5   6
HETATM    6  C15 UNL     1      23.659   3.514  51.810  1.00  0.00     0.192 A 
HETATM    7  N3  UNL     1      23.694   4.892  52.295  1.00  0.00    -0.198 NA
HETATM    8  C16 UNL     1      24.359   5.591  51.373  1.00  0.00     0.171 A 
HETATM    9  C17 UNL     1      25.000   5.263  50.090  1.00  0.00     0.111 A 
HETATM   10  S1  UNL     1      24.551   3.421  50.168  1.00  0.00    -0.058 SA
BRANCH   8  11
HETATM   11  O2  UNL     1      24.325   6.884  51.950  1.00  0.00    -0.344 OA
HETATM   12  H16 UNL     1      25.215   7.212  52.326  1.00  0.00     0.219 HD
ENDBRANCH   8  11
ENDBRANCH   5   6
BRANCH   1  13
HETATM   13  C5  UNL     1      24.812   0.633  52.694  1.00  0.00     0.071 A 
HETATM   14  C2  UNL     1      26.081   0.863  53.353  1.00  0.00     0.048 A 
HETATM   15  C3  UNL     1      26.266  -0.380  53.624  1.00  0.00     0.007 A 
HETATM   16  C4  UNL     1      25.020  -0.803  53.003  1.00  0.00     0.043 A 
BRANCH  14  17
HETATM   17  O1  UNL     1      26.669   2.130  53.498  1.00  0.00    -0.360 OA
HETATM   18  C1  UNL     1      28.053   2.340  53.454  1.00  0.00     0.209 C 
ENDBRANCH  14  17
ENDBRANCH   1  13
BRANCH   3  19
HETATM   19  C9  UNL     1      20.097   0.306  52.409  1.00  0.00    -0.010 A 
HETATM   20  C10 UNL     1      19.286   0.525  51.289  1.00  0.00     0.013 A 
HETATM   21  C11 UNL     1      18.074  -0.131  51.240  1.00  0.00     0.001 A 
HETATM   22  C12 UNL     1      17.621  -0.979  52.218  1.00  0.00     0.000 A 
HETATM   23  C13 UNL     1      18.395  -1.218  53.337  1.00  0.00     0.001 A 
HETATM   24  C14 UNL     1      19.601  -0.553  53.365  1.00  0.00     0.013 A 
ENDBRANCH   3  19
TORSDOF 5
ENDMDL
MODEL 9
REMARK VINA RESULT:      -7.4      3.327      5.324
REMARK  5 active torsions:
REMARK  status: ('A' for Active; 'I' for Inactive)
REMARK    1  A    between atoms: O1_2  and  C2_3 
REMARK    2  A    between atoms: C5_6  and  C6_7 
REMARK    3  A    between atoms: C8_9  and  C9_10 
REMARK    4  A    between atoms: N2_17  and  C15_18 
REMARK    5  A    between atoms: C16_20  and  O2_21 
ROOT
HETATM    1  C6  UNL     1      24.925   1.815  51.351  1.00  0.00     0.129 A 
HETATM    2  C7  UNL     1      26.057   2.611  50.773  1.00  0.00     0.090 A 
HETATM    3  C8  UNL     1      25.429   3.743  50.078  1.00  0.00     0.067 A 
HETATM    4  N1  UNL     1      24.142   3.695  50.143  1.00  0.00    -0.174 NA
HETATM    5  N2  UNL     1      23.749   2.557  50.869  1.00  0.00    -0.240 N 
ENDROOT
BRANCH   5   6
HETATM    6  C15 UNL     1      22.340   2.356  51.003  1.00  0.00     0.192 A 
HETATM    7  N3  UNL     1      21.332   3.066  51.788  1.00  0.00    -0.198 NA
HETATM    8  C16 UNL     1      20.170   2.465  51.528  1.00  0.00     0.171 A 
HETATM    9  C17 UNL     1      19.758   1.333  50.681  1.00  0.00     0.111 A 
HETATM   10  S1  UNL     1      21.509   0.982  50.042  1.00  0.00    -0.058 SA
BRANCH   8  11
HETATM   11  O2  UNL     1      19.293   3.232  52.332  1.00  0.00    -0.344 OA
HETATM   12  H16 UNL     1      18.411   2.774  52.566  1.00  0.00     0.219 HD
ENDBRANCH   8  11
ENDBRANCH   5   6
BRANCH   1  13
HETATM   13  C5  UNL     1      24.917   1.822  52.870  1.00  0.00     0.071 A 
HETATM   14  C2  UNL     1      24.954   0.522  53.506  1.00  0.00     0.048 A 
HETATM   15  C3  UNL     1      26.068   0.751  54.107  1.00  0.00     0.007 A 
HETATM   16  C4  UNL     1      26.201   2.093  53.561  1.00  0.00     0.043 A 
BRANCH  14  17
HETATM   17  O1  UNL     1      23.964  -0.459  53.339  1.00  0.00    -0.360 OA
HETATM   18  C1  UNL     1      22.621  -0.254  53.677  1.00  0.00     0.209 C 
ENDBRANCH  14  17
ENDBRANCH   1  13
BRANCH   3  19
HETATM   19  C9  UNL     1      26.202   4.770  49.394  1.00  0.00    -0.010 A 
HETATM   20  C10 UNL     1      25.701   6.055  49.152  1.00  0.00     0.013 A 
HETATM   21  C11 UNL     1      26.525   6.951  48.504  1.00  0.00     0.001 A 
HETATM   22  C12 UNL     1      27.797   6.658  48.087  1.00  0.00     0.000 A 
HETATM   23  C13 UNL     1      28.325   5.401  48.309  1.00  0.00     0.001 A 
HETATM   24  C14 UNL     1      27.485   4.522  48.957  1.00  0.00     0.013 A 
ENDBRANCH   3  19
TORSDOF 5
ENDMDL
