MODEL 1
REMARK VINA RESULT:      -7.6      0.000      0.000
REMARK  4 active torsions:
REMARK  status: ('A' for Active; 'I' for Inactive)
REMARK    1  A    between atoms: C2_2  and  C3_3 
REMARK       I    between atoms: C3_3  and  N1_5 
REMARK    2  A    between atoms: N1_5  and  C4_6 
REMARK    3  A    between atoms: C8_10  and  N2_11 
REMARK    4  A    between atoms: C20_25  and  N5_26 
ROOT
HETATM    1  C4  UNL     1      25.576   5.153  49.154  1.00  0.00     0.060 A 
HETATM    2  C5  UNL     1      25.160   4.347  50.128  1.00  0.00     0.043 A 
HETATM    3  C6  UNL     1      23.767   4.500  50.575  1.00  0.00     0.103 A 
HETATM    4  C7  UNL     1      23.003   3.299  50.141  1.00  0.00     0.083 C 
HETATM    5  C8  UNL     1      22.465   2.036  50.046  1.00  0.00     0.006 C 
HETATM    6  C9  UNL     1      22.588   0.835  51.072  1.00  0.00     0.180 C 
HETATM    7  N3  UNL     1      23.417   1.453  52.130  1.00  0.00    -0.350 N 
HETATM    8  C10 UNL     1      22.833   2.634  52.333  1.00  0.00     0.105 A 
HETATM    9  C11 UNL     1      23.944   3.067  52.977  1.00  0.00     0.009 A 
HETATM   10  C12 UNL     1      25.036   2.258  53.166  1.00  0.00     0.004 A 
HETATM   11  C13 UNL     1      26.228   2.482  53.792  1.00  0.00     0.014 A 
HETATM   12  C14 UNL     1      27.055   1.379  53.751  1.00  0.00     0.001 A 
HETATM   13  C15 UNL     1      26.685   0.180  53.131  1.00  0.00     0.002 A 
HETATM   14  C16 UNL     1      25.467   0.007  52.512  1.00  0.00     0.030 A 
HETATM   15  C17 UNL     1      24.616   1.060  52.523  1.00  0.00     0.045 A 
HETATM   16  C18 UNL     1      23.792   4.544  53.080  1.00  0.00     0.126 C 
HETATM   17  N4  UNL     1      23.733   4.976  51.862  1.00  0.00    -0.281 NA
HETATM   18  C19 UNL     1      23.368   5.641  49.620  1.00  0.00     0.042 A 
HETATM   19  C20 UNL     1      24.401   5.966  48.855  1.00  0.00     0.051 A 
ENDROOT
BRANCH   1  20
HETATM   20  N1  UNL     1      26.868   5.169  48.583  1.00  0.00    -0.322 N 
HETATM   21  C3  UNL     1      27.563   6.394  48.583  1.00  0.00     0.244 C 
HETATM   22  O1  UNL     1      27.125   7.453  49.045  1.00  0.00    -0.268 OA
HETATM   23  H4  UNL     1      27.252   4.271  48.184  1.00  0.00     0.169 HD
BRANCH  21  24
HETATM   24  C2  UNL     1      28.900   6.447  48.001  1.00  0.00     0.064 C 
HETATM   25  C1  UNL     1      29.786   5.483  48.208  1.00  0.00     0.017 C 
ENDBRANCH  21  24
ENDBRANCH   1  20
BRANCH   5  26
HETATM   26  N2  UNL     1      21.734   2.324  48.871  1.00  0.00    -0.404 N 
HETATM   27  H7  UNL     1      20.869   1.712  48.773  1.00  0.00     0.155 HD
HETATM   28  H8  UNL     1      22.007   3.066  48.160  1.00  0.00     0.155 HD
ENDBRANCH   5  26
BRANCH  19  29
HETATM   29  N5  UNL     1      24.352   6.990  47.866  1.00  0.00    -0.397 N 
HETATM   30  H18 UNL     1      24.931   7.864  47.865  1.00  0.00     0.156 HD
HETATM   31  H19 UNL     1      23.667   6.791  47.112  1.00  0.00     0.156 HD
ENDBRANCH  19  29
TORSDOF 4
ENDMDL
MODEL 2
REMARK VINA RESULT:      -7.5      2.429      5.673
REMARK  4 active torsions:
REMARK  status: ('A' for Active; 'I' for Inactive)
REMARK    1  A    between atoms: C2_2  and  C3_3 
REMARK       I    between atoms: C3_3  and  N1_5 
REMARK    2  A    between atoms: N1_5  and  C4_6 
REMARK    3  A    between atoms: C8_10  and  N2_11 
REMARK    4  A    between atoms: C20_25  and  N5_26 
ROOT
HETATM    1  C4  UNL     1      25.103   2.205  52.769  1.00  0.00     0.060 A 
HETATM    2  C5  UNL     1      24.590   3.064  51.891  1.00  0.00     0.043 A 
HETATM    3  C6  UNL     1      23.415   2.618  51.127  1.00  0.00     0.103 A 
HETATM    4  C7  UNL     1      22.234   3.394  51.593  1.00  0.00     0.083 C 
HETATM    5  C8  UNL     1      21.292   4.377  51.796  1.00  0.00     0.006 C 
HETATM    6  C9  UNL     1      21.154   5.773  51.059  1.00  0.00     0.180 C 
HETATM    7  N3  UNL     1      22.291   5.707  50.116  1.00  0.00    -0.350 N 
HETATM    8  C10 UNL     1      22.179   4.493  49.577  1.00  0.00     0.105 A 
HETATM    9  C11 UNL     1      23.454   4.581  49.126  1.00  0.00     0.009 A 
HETATM   10  C12 UNL     1      24.224   5.697  49.334  1.00  0.00     0.004 A 
HETATM   11  C13 UNL     1      25.500   5.997  48.958  1.00  0.00     0.014 A 
HETATM   12  C14 UNL     1      25.890   7.252  49.380  1.00  0.00     0.001 A 
HETATM   13  C15 UNL     1      25.048   8.097  50.111  1.00  0.00     0.002 A 
HETATM   14  C16 UNL     1      23.764   7.744  50.467  1.00  0.00     0.030 A 
HETATM   15  C17 UNL     1      23.332   6.522  50.076  1.00  0.00     0.045 A 
HETATM   16  C18 UNL     1      23.828   3.197  48.725  1.00  0.00     0.126 C 
HETATM   17  N4  UNL     1      23.737   2.483  49.799  1.00  0.00    -0.281 NA
HETATM   18  C19 UNL     1      23.287   1.213  51.746  1.00  0.00     0.042 A 
HETATM   19  C20 UNL     1      24.241   1.033  52.647  1.00  0.00     0.051 A 
ENDROOT
BRANCH   1  20
HETATM   20  N1  UNL     1      26.224   2.434  53.599  1.00  0.00    -0.322 N 
HETATM   21  C3  UNL     1      27.492   2.108  53.082  1.00  0.00     0.244 C 
HETATM   22  O1  UNL     1      27.695   1.638  51.958  1.00  0.00    -0.268 OA
HETATM   23  H4  UNL     1      26.062   2.835  54.562  1.00  0.00     0.169 HD
BRANCH  21  24
HETATM   24  C2  UNL     1      28.671   2.331  53.912  1.00  0.00     0.064 C 
HETATM   25  C1  UNL     1      29.299   1.327  54.510  1.00  0.00     0.017 C 
ENDBRANCH  21  24
ENDBRANCH   1  20
BRANCH   5  26
HETATM   26  N2  UNL     1      20.535   3.608  52.707  1.00  0.00    -0.404 N 
HETATM   27  H7  UNL     1      21.123   2.868  53.197  1.00  0.00     0.155 HD
HETATM   28  H8  UNL     1      19.497   3.742  52.892  1.00  0.00     0.155 HD
ENDBRANCH   5  26
BRANCH  19  29
HETATM   29  N5  UNL     1      24.394  -0.169  53.398  1.00  0.00    -0.397 N 
HETATM   30  H18 UNL     1      24.500  -1.130  52.993  1.00  0.00     0.156 HD
HETATM   31  H19 UNL     1      24.393  -0.008  54.423  1.00  0.00     0.156 HD
ENDBRANCH  19  29
TORSDOF 4
ENDMDL
MODEL 3
REMARK VINA RESULT:      -7.4      2.872      4.759
REMARK  4 active torsions:
REMARK  status: ('A' for Active; 'I' for Inactive)
REMARK    1  A    between atoms: C2_2  and  C3_3 
REMARK       I    between atoms: C3_3  and  N1_5 
REMARK    2  A    between atoms: N1_5  and  C4_6 
REMARK    3  A    between atoms: C8_10  and  N2_11 
REMARK    4  A    between atoms: C20_25  and  N5_26 
ROOT
HETATM    1  C4  UNL     1      25.455   2.050  51.560  1.00  0.00     0.060 A 
HETATM    2  C5  UNL     1      24.125   2.062  51.593  1.00  0.00     0.043 A 
HETATM    3  C6  UNL     1      23.448   3.154  50.876  1.00  0.00     0.103 A 
HETATM    4  C7  UNL     1      22.764   2.577  49.687  1.00  0.00     0.083 C 
HETATM    5  C8  UNL     1      21.875   1.945  48.848  1.00  0.00     0.006 C 
HETATM    6  C9  UNL     1      20.437   1.373  49.192  1.00  0.00     0.180 C 
HETATM    7  N3  UNL     1      20.335   1.714  50.627  1.00  0.00    -0.350 N 
HETATM    8  C10 UNL     1      20.732   2.986  50.675  1.00  0.00     0.105 A 
HETATM    9  C11 UNL     1      20.901   2.877  52.015  1.00  0.00     0.009 A 
HETATM   10  C12 UNL     1      20.621   1.717  52.692  1.00  0.00     0.004 A 
HETATM   11  C13 UNL     1      20.701   1.404  54.018  1.00  0.00     0.014 A 
HETATM   12  C14 UNL     1      20.315   0.104  54.271  1.00  0.00     0.001 A 
HETATM   13  C15 UNL     1      19.895  -0.770  53.263  1.00  0.00     0.002 A 
HETATM   14  C16 UNL     1      19.833  -0.401  51.936  1.00  0.00     0.030 A 
HETATM   15  C17 UNL     1      20.201   0.865  51.633  1.00  0.00     0.045 A 
HETATM   16  C18 UNL     1      21.694   4.073  52.412  1.00  0.00     0.126 C 
HETATM   17  N4  UNL     1      22.812   3.982  51.768  1.00  0.00    -0.281 NA
HETATM   18  C19 UNL     1      24.707   3.870  50.353  1.00  0.00     0.042 A 
HETATM   19  C20 UNL     1      25.791   3.223  50.757  1.00  0.00     0.051 A 
ENDROOT
BRANCH   1  20
HETATM   20  N1  UNL     1      26.294   1.096  52.179  1.00  0.00    -0.322 N 
HETATM   21  C3  UNL     1      26.701   1.350  53.503  1.00  0.00     0.244 C 
HETATM   22  O1  UNL     1      26.378   2.345  54.161  1.00  0.00    -0.268 OA
HETATM   23  H4  UNL     1      26.577   0.243  51.626  1.00  0.00     0.169 HD
BRANCH  21  24
HETATM   24  C2  UNL     1      27.568   0.386  54.172  1.00  0.00     0.064 C 
HETATM   25  C1  UNL     1      28.887   0.513  54.160  1.00  0.00     0.017 C 
ENDBRANCH  21  24
ENDBRANCH   1  20
BRANCH   5  26
HETATM   26  N2  UNL     1      22.654   2.161  47.690  1.00  0.00    -0.404 N 
HETATM   27  H7  UNL     1      22.255   2.929  47.072  1.00  0.00     0.155 HD
HETATM   28  H8  UNL     1      23.541   1.624  47.453  1.00  0.00     0.155 HD
ENDBRANCH   5  26
BRANCH  19  29
HETATM   29  N5  UNL     1      27.116   3.636  50.438  1.00  0.00    -0.397 N 
HETATM   30  H18 UNL     1      27.383   4.564  50.029  1.00  0.00     0.156 HD
HETATM   31  H19 UNL     1      27.828   2.912  50.652  1.00  0.00     0.156 HD
ENDBRANCH  19  29
TORSDOF 4
ENDMDL
MODEL 4
REMARK VINA RESULT:      -7.4      7.731     10.504
REMARK  4 active torsions:
REMARK  status: ('A' for Active; 'I' for Inactive)
REMARK    1  A    between atoms: C2_2  and  C3_3 
REMARK       I    between atoms: C3_3  and  N1_5 
REMARK    2  A    between atoms: N1_5  and  C4_6 
REMARK    3  A    between atoms: C8_10  and  N2_11 
REMARK    4  A    between atoms: C20_25  and  N5_26 
ROOT
HETATM    1  C4  UNL     1      33.073   5.097  48.252  1.00  0.00     0.060 A 
HETATM    2  C5  UNL     1      32.462   6.226  47.904  1.00  0.00     0.043 A 
HETATM    3  C6  UNL     1      33.194   7.481  48.132  1.00  0.00     0.103 A 
HETATM    4  C7  UNL     1      33.576   8.045  46.810  1.00  0.00     0.083 C 
HETATM    5  C8  UNL     1      33.568   8.681  45.589  1.00  0.00     0.006 C 
HETATM    6  C9  UNL     1      32.413   9.555  44.944  1.00  0.00     0.180 C 
HETATM    7  N3  UNL     1      31.387   9.492  46.008  1.00  0.00    -0.350 N 
HETATM    8  C10 UNL     1      32.074   9.754  47.120  1.00  0.00     0.105 A 
HETATM    9  C11 UNL     1      31.050   9.266  47.861  1.00  0.00     0.009 A 
HETATM   10  C12 UNL     1      29.893   8.801  47.287  1.00  0.00     0.004 A 
HETATM   11  C13 UNL     1      28.752   8.294  47.838  1.00  0.00     0.014 A 
HETATM   12  C14 UNL     1      27.821   7.944  46.881  1.00  0.00     0.001 A 
HETATM   13  C15 UNL     1      28.051   8.102  45.511  1.00  0.00     0.002 A 
HETATM   14  C16 UNL     1      29.224   8.620  45.006  1.00  0.00     0.030 A 
HETATM   15  C17 UNL     1      30.172   8.980  45.903  1.00  0.00     0.045 A 
HETATM   16  C18 UNL     1      31.605   9.078  49.229  1.00  0.00     0.126 C 
HETATM   17  N4  UNL     1      32.568   8.224  49.103  1.00  0.00    -0.281 NA
HETATM   18  C19 UNL     1      34.473   6.868  48.733  1.00  0.00     0.042 A 
HETATM   19  C20 UNL     1      34.358   5.548  48.778  1.00  0.00     0.051 A 
ENDROOT
BRANCH   1  20
HETATM   20  N1  UNL     1      32.548   3.791  48.118  1.00  0.00    -0.322 N 
HETATM   21  C3  UNL     1      33.209   2.912  47.241  1.00  0.00     0.244 C 
HETATM   22  O1  UNL     1      34.214   3.198  46.580  1.00  0.00    -0.268 OA
HETATM   23  H4  UNL     1      31.690   3.536  48.678  1.00  0.00     0.169 HD
BRANCH  21  24
HETATM   24  C2  UNL     1      32.695   1.556  47.078  1.00  0.00     0.064 C 
HETATM   25  C1  UNL     1      31.563   1.317  46.429  1.00  0.00     0.017 C 
ENDBRANCH  21  24
ENDBRANCH   1  20
BRANCH   5  26
HETATM   26  N2  UNL     1      34.917   8.374  45.303  1.00  0.00    -0.404 N 
HETATM   27  H7  UNL     1      35.131   7.339  45.430  1.00  0.00     0.155 HD
HETATM   28  H8  UNL     1      35.644   9.085  44.995  1.00  0.00     0.155 HD
ENDBRANCH   5  26
BRANCH  19  29
HETATM   29  N5  UNL     1      35.376   4.689  49.284  1.00  0.00    -0.397 N 
HETATM   30  H18 UNL     1      35.394   4.265  50.242  1.00  0.00     0.156 HD
HETATM   31  H19 UNL     1      36.131   4.509  48.596  1.00  0.00     0.156 HD
ENDBRANCH  19  29
TORSDOF 4
ENDMDL
MODEL 5
REMARK VINA RESULT:      -7.3      7.692     10.633
REMARK  4 active torsions:
REMARK  status: ('A' for Active; 'I' for Inactive)
REMARK    1  A    between atoms: C2_2  and  C3_3 
REMARK       I    between atoms: C3_3  and  N1_5 
REMARK    2  A    between atoms: N1_5  and  C4_6 
REMARK    3  A    between atoms: C8_10  and  N2_11 
REMARK    4  A    between atoms: C20_25  and  N5_26 
ROOT
HETATM    1  C4  UNL     1      33.323   4.720  45.242  1.00  0.00     0.060 A 
HETATM    2  C5  UNL     1      32.721   5.601  46.037  1.00  0.00     0.043 A 
HETATM    3  C6  UNL     1      33.378   5.906  47.317  1.00  0.00     0.103 A 
HETATM    4  C7  UNL     1      33.897   7.299  47.253  1.00  0.00     0.083 C 
HETATM    5  C8  UNL     1      34.014   8.671  47.268  1.00  0.00     0.006 C 
HETATM    6  C9  UNL     1      32.916   9.746  47.655  1.00  0.00     0.180 C 
HETATM    7  N3  UNL     1      31.773   8.871  47.993  1.00  0.00    -0.350 N 
HETATM    8  C10 UNL     1      32.313   7.944  48.785  1.00  0.00     0.105 A 
HETATM    9  C11 UNL     1      31.224   7.159  48.600  1.00  0.00     0.009 A 
HETATM   10  C12 UNL     1      30.160   7.559  47.831  1.00  0.00     0.004 A 
HETATM   11  C13 UNL     1      28.979   6.945  47.532  1.00  0.00     0.014 A 
HETATM   12  C14 UNL     1      28.181   7.715  46.712  1.00  0.00     0.001 A 
HETATM   13  C15 UNL     1      28.568   8.979  46.253  1.00  0.00     0.002 A 
HETATM   14  C16 UNL     1      29.775   9.555  46.585  1.00  0.00     0.030 A 
HETATM   15  C17 UNL     1      30.597   8.840  47.389  1.00  0.00     0.045 A 
HETATM   16  C18 UNL     1      31.618   5.812  49.096  1.00  0.00     0.126 C 
HETATM   17  N4  UNL     1      32.617   5.445  48.362  1.00  0.00    -0.281 NA
HETATM   18  C19 UNL     1      34.596   4.977  47.151  1.00  0.00     0.042 A 
HETATM   19  C20 UNL     1      34.520   4.344  45.989  1.00  0.00     0.051 A 
ENDROOT
BRANCH   1  20
HETATM   20  N1  UNL     1      32.862   4.289  43.977  1.00  0.00    -0.322 N 
HETATM   21  C3  UNL     1      33.615   4.664  42.849  1.00  0.00     0.244 C 
HETATM   22  O1  UNL     1      34.648   5.340  42.883  1.00  0.00    -0.268 OA
HETATM   23  H4  UNL     1      31.980   3.711  43.936  1.00  0.00     0.169 HD
BRANCH  21  24
HETATM   24  C2  UNL     1      33.167   4.236  41.528  1.00  0.00     0.064 C 
HETATM   25  C1  UNL     1      33.933   3.490  40.743  1.00  0.00     0.017 C 
ENDBRANCH  21  24
ENDBRANCH   1  20
BRANCH   5  26
HETATM   26  N2  UNL     1      35.397   8.660  46.979  1.00  0.00    -0.404 N 
HETATM   27  H7  UNL     1      35.591   8.562  45.937  1.00  0.00     0.155 HD
HETATM   28  H8  UNL     1      36.165   8.740  47.709  1.00  0.00     0.155 HD
ENDBRANCH   5  26
BRANCH  19  29
HETATM   29  N5  UNL     1      35.498   3.411  45.539  1.00  0.00    -0.397 N 
HETATM   30  H18 UNL     1      36.205   2.930  46.145  1.00  0.00     0.156 HD
HETATM   31  H19 UNL     1      35.452   3.238  44.517  1.00  0.00     0.156 HD
ENDBRANCH  19  29
TORSDOF 4
ENDMDL
MODEL 6
REMARK VINA RESULT:      -7.1      2.919      5.599
REMARK  4 active torsions:
REMARK  status: ('A' for Active; 'I' for Inactive)
REMARK    1  A    between atoms: C2_2  and  C3_3 
REMARK       I    between atoms: C3_3  and  N1_5 
REMARK    2  A    between atoms: N1_5  and  C4_6 
REMARK    3  A    between atoms: C8_10  and  N2_11 
REMARK    4  A    between atoms: C20_25  and  N5_26 
ROOT
HETATM    1  C4  UNL     1      20.356   2.187  49.752  1.00  0.00     0.060 A 
HETATM    2  C5  UNL     1      21.494   2.560  50.332  1.00  0.00     0.043 A 
HETATM    3  C6  UNL     1      21.527   2.563  51.802  1.00  0.00     0.103 A 
HETATM    4  C7  UNL     1      22.419   1.460  52.250  1.00  0.00     0.083 C 
HETATM    5  C8  UNL     1      23.514   0.693  52.576  1.00  0.00     0.006 C 
HETATM    6  C9  UNL     1      25.040   1.121  52.611  1.00  0.00     0.180 C 
HETATM    7  N3  UNL     1      24.941   2.542  52.212  1.00  0.00    -0.350 N 
HETATM    8  C10 UNL     1      23.951   3.011  52.972  1.00  0.00     0.105 A 
HETATM    9  C11 UNL     1      23.849   4.092  52.161  1.00  0.00     0.009 A 
HETATM   10  C12 UNL     1      24.675   4.272  51.080  1.00  0.00     0.004 A 
HETATM   11  C13 UNL     1      24.754   5.277  50.161  1.00  0.00     0.014 A 
HETATM   12  C14 UNL     1      25.747   5.056  49.228  1.00  0.00     0.001 A 
HETATM   13  C15 UNL     1      26.562   3.920  49.248  1.00  0.00     0.002 A 
HETATM   14  C16 UNL     1      26.439   2.931  50.201  1.00  0.00     0.030 A 
HETATM   15  C17 UNL     1      25.480   3.100  51.141  1.00  0.00     0.045 A 
HETATM   16  C18 UNL     1      22.554   4.733  52.517  1.00  0.00     0.126 C 
HETATM   17  N4  UNL     1      21.644   3.849  52.271  1.00  0.00    -0.281 NA
HETATM   18  C19 UNL     1      20.083   2.083  52.042  1.00  0.00     0.042 A 
HETATM   19  C20 UNL     1      19.477   1.889  50.880  1.00  0.00     0.051 A 
ENDROOT
BRANCH   1  20
HETATM   20  N1  UNL     1      20.114   2.116  48.362  1.00  0.00    -0.322 N 
HETATM   21  C3  UNL     1      19.543   3.243  47.742  1.00  0.00     0.244 C 
HETATM   22  O1  UNL     1      19.238   4.289  48.326  1.00  0.00    -0.268 OA
HETATM   23  H4  UNL     1      20.371   1.227  47.853  1.00  0.00     0.169 HD
BRANCH  21  24
HETATM   24  C2  UNL     1      19.280   3.204  46.308  1.00  0.00     0.064 C 
HETATM   25  C1  UNL     1      19.944   3.977  45.459  1.00  0.00     0.017 C 
ENDBRANCH  21  24
ENDBRANCH   1  20
BRANCH   5  26
HETATM   26  N2  UNL     1      22.744  -0.428  52.961  1.00  0.00    -0.404 N 
HETATM   27  H7  UNL     1      21.940  -0.163  53.605  1.00  0.00     0.155 HD
HETATM   28  H8  UNL     1      22.936  -1.426  52.648  1.00  0.00     0.155 HD
ENDBRANCH   5  26
BRANCH  19  29
HETATM   29  N5  UNL     1      18.129   1.444  50.763  1.00  0.00    -0.397 N 
HETATM   30  H18 UNL     1      17.809   0.447  50.822  1.00  0.00     0.156 HD
HETATM   31  H19 UNL     1      17.459   2.221  50.609  1.00  0.00     0.156 HD
ENDBRANCH  19  29
TORSDOF 4
ENDMDL
MODEL 7
REMARK VINA RESULT:      -7.1      3.953      7.227
REMARK  4 active torsions:
REMARK  status: ('A' for Active; 'I' for Inactive)
REMARK    1  A    between atoms: C2_2  and  C3_3 
REMARK       I    between atoms: C3_3  and  N1_5 
REMARK    2  A    between atoms: N1_5  and  C4_6 
REMARK    3  A    between atoms: C8_10  and  N2_11 
REMARK    4  A    between atoms: C20_25  and  N5_26 
ROOT
HETATM    1  C4  UNL     1      20.523   0.359  53.163  1.00  0.00     0.060 A 
HETATM    2  C5  UNL     1      20.821   1.200  52.176  1.00  0.00     0.043 A 
HETATM    3  C6  UNL     1      19.872   1.282  51.056  1.00  0.00     0.103 A 
HETATM    4  C7  UNL     1      19.201   2.608  51.108  1.00  0.00     0.083 C 
HETATM    5  C8  UNL     1      18.905   3.948  50.997  1.00  0.00     0.006 C 
HETATM    6  C9  UNL     1      19.745   5.083  50.277  1.00  0.00     0.180 C 
HETATM    7  N3  UNL     1      20.895   4.303  49.770  1.00  0.00    -0.350 N 
HETATM    8  C10 UNL     1      20.325   3.237  49.207  1.00  0.00     0.105 A 
HETATM    9  C11 UNL     1      21.522   2.601  49.212  1.00  0.00     0.009 A 
HETATM   10  C12 UNL     1      22.663   3.201  49.683  1.00  0.00     0.004 A 
HETATM   11  C13 UNL     1      23.950   2.757  49.762  1.00  0.00     0.014 A 
HETATM   12  C14 UNL     1      24.796   3.699  50.309  1.00  0.00     0.001 A 
HETATM   13  C15 UNL     1      24.354   4.959  50.727  1.00  0.00     0.002 A 
HETATM   14  C16 UNL     1      23.039   5.358  50.625  1.00  0.00     0.030 A 
HETATM   15  C17 UNL     1      22.166   4.470  50.094  1.00  0.00     0.045 A 
HETATM   16  C18 UNL     1      21.211   1.171  48.941  1.00  0.00     0.126 C 
HETATM   17  N4  UNL     1      20.448   0.787  49.911  1.00  0.00    -0.281 NA
HETATM   18  C19 UNL     1      18.851   0.253  51.575  1.00  0.00     0.042 A 
HETATM   19  C20 UNL     1      19.254  -0.229  52.742  1.00  0.00     0.051 A 
ENDROOT
BRANCH   1  20
HETATM   20  N1  UNL     1      21.295   0.131  54.325  1.00  0.00    -0.322 N 
HETATM   21  C3  UNL     1      22.238  -0.913  54.283  1.00  0.00     0.244 C 
HETATM   22  O1  UNL     1      22.440  -1.642  53.306  1.00  0.00    -0.268 OA
HETATM   23  H4  UNL     1      21.131   0.748  55.165  1.00  0.00     0.169 HD
BRANCH  21  24
HETATM   24  C2  UNL     1      23.053  -1.176  55.465  1.00  0.00     0.064 C 
HETATM   25  C1  UNL     1      24.377  -1.207  55.402  1.00  0.00     0.017 C 
ENDBRANCH  21  24
ENDBRANCH   1  20
BRANCH   5  26
HETATM   26  N2  UNL     1      17.629   3.822  51.590  1.00  0.00    -0.404 N 
HETATM   27  H7  UNL     1      17.288   4.737  52.012  1.00  0.00     0.155 HD
HETATM   28  H8  UNL     1      17.065   2.921  51.617  1.00  0.00     0.155 HD
ENDBRANCH   5  26
BRANCH  19  29
HETATM   29  N5  UNL     1      18.525  -1.203  53.483  1.00  0.00    -0.397 N 
HETATM   30  H18 UNL     1      18.684  -1.448  54.489  1.00  0.00     0.156 HD
HETATM   31  H19 UNL     1      17.790  -1.671  52.919  1.00  0.00     0.156 HD
ENDBRANCH  19  29
TORSDOF 4
ENDMDL
MODEL 8
REMARK VINA RESULT:      -7.0      9.463     13.416
REMARK  4 active torsions:
REMARK  status: ('A' for Active; 'I' for Inactive)
REMARK    1  A    between atoms: C2_2  and  C3_3 
REMARK       I    between atoms: C3_3  and  N1_5 
REMARK    2  A    between atoms: N1_5  and  C4_6 
REMARK    3  A    between atoms: C8_10  and  N2_11 
REMARK    4  A    between atoms: C20_25  and  N5_26 
ROOT
HETATM    1  C4  UNL     1      34.045   4.566  45.189  1.00  0.00     0.060 A 
HETATM    2  C5  UNL     1      33.964   4.675  43.866  1.00  0.00     0.043 A 
HETATM    3  C6  UNL     1      34.021   6.031  43.301  1.00  0.00     0.103 A 
HETATM    4  C7  UNL     1      35.314   6.184  42.582  1.00  0.00     0.083 C 
HETATM    5  C8  UNL     1      36.324   6.132  41.649  1.00  0.00     0.006 C 
HETATM    6  C9  UNL     1      36.260   5.591  40.160  1.00  0.00     0.180 C 
HETATM    7  N3  UNL     1      34.842   5.180  40.072  1.00  0.00    -0.350 N 
HETATM    8  C10 UNL     1      34.184   6.221  40.584  1.00  0.00     0.105 A 
HETATM    9  C11 UNL     1      33.081   5.447  40.725  1.00  0.00     0.009 A 
HETATM   10  C12 UNL     1      33.058   4.132  40.331  1.00  0.00     0.004 A 
HETATM   11  C13 UNL     1      32.067   3.196  40.365  1.00  0.00     0.014 A 
HETATM   12  C14 UNL     1      32.478   1.980  39.858  1.00  0.00     0.001 A 
HETATM   13  C15 UNL     1      33.772   1.764  39.372  1.00  0.00     0.002 A 
HETATM   14  C16 UNL     1      34.738   2.746  39.361  1.00  0.00     0.030 A 
HETATM   15  C17 UNL     1      34.386   3.960  39.848  1.00  0.00     0.045 A 
HETATM   16  C18 UNL     1      32.171   6.213  41.621  1.00  0.00     0.126 C 
HETATM   17  N4  UNL     1      32.814   6.358  42.733  1.00  0.00    -0.281 NA
HETATM   18  C19 UNL     1      34.163   6.802  44.627  1.00  0.00     0.042 A 
HETATM   19  C20 UNL     1      34.172   5.948  45.642  1.00  0.00     0.051 A 
ENDROOT
BRANCH   1  20
HETATM   20  N1  UNL     1      34.010   3.362  45.929  1.00  0.00    -0.322 N 
HETATM   21  C3  UNL     1      32.781   2.988  46.504  1.00  0.00     0.244 C 
HETATM   22  O1  UNL     1      31.732   3.635  46.409  1.00  0.00    -0.268 OA
HETATM   23  H4  UNL     1      34.900   2.801  46.017  1.00  0.00     0.169 HD
BRANCH  21  24
HETATM   24  C2  UNL     1      32.709   1.751  47.275  1.00  0.00     0.064 C 
HETATM   25  C1  UNL     1      32.144   0.658  46.781  1.00  0.00     0.017 C 
ENDBRANCH  21  24
ENDBRANCH   1  20
BRANCH   5  26
HETATM   26  N2  UNL     1      37.250   6.826  42.459  1.00  0.00    -0.404 N 
HETATM   27  H7  UNL     1      37.480   6.296  43.353  1.00  0.00     0.155 HD
HETATM   28  H8  UNL     1      37.675   7.769  42.215  1.00  0.00     0.155 HD
ENDBRANCH   5  26
BRANCH  19  29
HETATM   29  N5  UNL     1      34.290   6.350  47.003  1.00  0.00    -0.397 N 
HETATM   30  H18 UNL     1      34.507   5.716  47.809  1.00  0.00     0.156 HD
HETATM   31  H19 UNL     1      34.137   7.367  47.139  1.00  0.00     0.156 HD
ENDBRANCH  19  29
TORSDOF 4
ENDMDL
MODEL 9
REMARK VINA RESULT:      -6.8      7.436     10.103
REMARK  4 active torsions:
REMARK  status: ('A' for Active; 'I' for Inactive)
REMARK    1  A    between atoms: C2_2  and  C3_3 
REMARK       I    between atoms: C3_3  and  N1_5 
REMARK    2  A    between atoms: N1_5  and  C4_6 
REMARK    3  A    between atoms: C8_10  and  N2_11 
REMARK    4  A    between atoms: C20_25  and  N5_26 
ROOT
HETATM    1  C4  UNL     1      32.661   6.599  46.911  1.00  0.00     0.060 A 
HETATM    2  C5  UNL     1      31.728   7.537  47.052  1.00  0.00     0.043 A 
HETATM    3  C6  UNL     1      32.130   8.785  47.718  1.00  0.00     0.103 A 
HETATM    4  C7  UNL     1      32.143   9.872  46.702  1.00  0.00     0.083 C 
HETATM    5  C8  UNL     1      31.780  10.869  45.824  1.00  0.00     0.006 C 
HETATM    6  C9  UNL     1      30.352  11.522  45.615  1.00  0.00     0.180 C 
HETATM    7  N3  UNL     1      29.553  10.777  46.613  1.00  0.00    -0.350 N 
HETATM    8  C10 UNL     1      30.309  10.818  47.710  1.00  0.00     0.105 A 
HETATM    9  C11 UNL     1      29.575   9.813  48.246  1.00  0.00     0.009 A 
HETATM   10  C12 UNL     1      28.509   9.258  47.585  1.00  0.00     0.004 A 
HETATM   11  C13 UNL     1      27.640   8.269  47.943  1.00  0.00     0.014 A 
HETATM   12  C14 UNL     1      26.699   8.020  46.965  1.00  0.00     0.001 A 
HETATM   13  C15 UNL     1      26.666   8.720  45.754  1.00  0.00     0.002 A 
HETATM   14  C16 UNL     1      27.570   9.712  45.442  1.00  0.00     0.030 A 
HETATM   15  C17 UNL     1      28.515   9.996  46.368  1.00  0.00     0.045 A 
HETATM   16  C18 UNL     1      30.364   9.325  49.411  1.00  0.00     0.126 C 
HETATM   17  N4  UNL     1      31.486   8.907  48.925  1.00  0.00    -0.281 NA
HETATM   18  C19 UNL     1      33.601   8.415  47.982  1.00  0.00     0.042 A 
HETATM   19  C20 UNL     1      33.846   7.198  47.517  1.00  0.00     0.051 A 
ENDROOT
BRANCH   1  20
HETATM   20  N1  UNL     1      32.484   5.335  46.304  1.00  0.00    -0.322 N 
HETATM   21  C3  UNL     1      32.170   4.249  47.144  1.00  0.00     0.244 C 
HETATM   22  O1  UNL     1      32.038   4.322  48.370  1.00  0.00    -0.268 OA
HETATM   23  H4  UNL     1      32.595   5.261  45.257  1.00  0.00     0.169 HD
BRANCH  21  24
HETATM   24  C2  UNL     1      31.981   2.930  46.551  1.00  0.00     0.064 C 
HETATM   25  C1  UNL     1      32.661   1.874  46.977  1.00  0.00     0.017 C 
ENDBRANCH  21  24
ENDBRANCH   1  20
BRANCH   5  26
HETATM   26  N2  UNL     1      33.102  11.106  45.386  1.00  0.00    -0.404 N 
HETATM   27  H7  UNL     1      33.273  12.131  45.154  1.00  0.00     0.155 HD
HETATM   28  H8  UNL     1      33.850  10.357  45.295  1.00  0.00     0.155 HD
ENDBRANCH   5  26
BRANCH  19  29
HETATM   29  N5  UNL     1      35.119   6.565  47.609  1.00  0.00    -0.397 N 
HETATM   30  H18 UNL     1      35.498   5.858  46.934  1.00  0.00     0.156 HD
HETATM   31  H19 UNL     1      35.665   6.875  48.435  1.00  0.00     0.156 HD
ENDBRANCH  19  29
TORSDOF 4
ENDMDL
