MODEL 1
REMARK VINA RESULT:      -7.5      0.000      0.000
REMARK  5 active torsions:
REMARK  status: ('A' for Active; 'I' for Inactive)
REMARK    1  A    between atoms: C1_2  and  N1_3 
REMARK    2  A    between atoms: N1_3  and  N2_4 
REMARK    3  A    between atoms: C2_5  and  C3_6 
REMARK    4  A    between atoms: C2_5  and  C11_15 
REMARK    5  A    between atoms: C4_7  and  C5_8 
ROOT
HETATM    1  N2  UNL     1      24.949   0.719  52.636  1.00  0.00    -0.174 NA
HETATM    2  C2  UNL     1      26.148   0.556  52.389  1.00  0.00     0.087 C 
ENDROOT
BRANCH   2   3
HETATM    3  C3  UNL     1      26.317   1.796  51.680  1.00  0.00     0.035 C 
HETATM    4  C4  UNL     1      25.883   2.684  50.838  1.00  0.00     0.014 C 
BRANCH   4   5
HETATM    5  C5  UNL     1      25.999   3.921  50.098  1.00  0.00    -0.036 A 
HETATM    6  C6  UNL     1      27.137   3.973  49.322  1.00  0.00     0.013 A 
HETATM    7  C7  UNL     1      27.352   5.110  48.571  1.00  0.00     0.024 A 
HETATM    8  C8  UNL     1      26.397   6.091  48.671  1.00  0.00     0.034 A 
HETATM    9 CL1  UNL     1      26.658   7.539  47.722  1.00  0.00    -0.084 Cl
HETATM   10  C9  UNL     1      25.276   5.990  49.461  1.00  0.00     0.024 A 
HETATM   11  C10 UNL     1      25.028   4.877  50.222  1.00  0.00     0.013 A 
ENDBRANCH   4   5
ENDBRANCH   2   3
BRANCH   2  12
HETATM   12  C11 UNL     1      27.119  -0.474  52.666  1.00  0.00    -0.006 A 
HETATM   13  C12 UNL     1      27.089  -1.836  52.525  1.00  0.00     0.014 A 
HETATM   14  C13 UNL     1      28.113  -2.680  52.842  1.00  0.00     0.001 A 
HETATM   15  C14 UNL     1      29.273  -2.141  53.343  1.00  0.00     0.000 A 
HETATM   16  C15 UNL     1      29.387  -0.779  53.516  1.00  0.00     0.001 A 
HETATM   17  C16 UNL     1      28.303  -0.020  53.169  1.00  0.00     0.014 A 
ENDBRANCH   2  12
BRANCH   1  18
HETATM   18  N1  UNL     1      24.008   0.032  53.264  1.00  0.00    -0.278 N 
HETATM   19  H2  UNL     1      23.868   0.895  53.861  1.00  0.00     0.189 HD
BRANCH  18  20
HETATM   20  C1  UNL     1      22.999  -0.705  53.935  1.00  0.00     0.190 C 
HETATM   21  S1  UNL     1      21.520   0.002  54.052  1.00  0.00    -0.073 SA
ENDBRANCH  18  20
ENDBRANCH   1  18
TORSDOF 5
ENDMDL
MODEL 2
REMARK VINA RESULT:      -7.5      3.997      6.469
REMARK  5 active torsions:
REMARK  status: ('A' for Active; 'I' for Inactive)
REMARK    1  A    between atoms: C1_2  and  N1_3 
REMARK    2  A    between atoms: N1_3  and  N2_4 
REMARK    3  A    between atoms: C2_5  and  C3_6 
REMARK    4  A    between atoms: C2_5  and  C11_15 
REMARK    5  A    between atoms: C4_7  and  C5_8 
ROOT
HETATM    1  N2  UNL     1      25.560   1.739  51.552  1.00  0.00    -0.174 NA
HETATM    2  C2  UNL     1      25.979   0.908  52.363  1.00  0.00     0.087 C 
ENDROOT
BRANCH   2   3
HETATM    3  C3  UNL     1      24.685   0.384  52.710  1.00  0.00     0.035 C 
HETATM    4  C4  UNL     1      23.390   0.417  52.616  1.00  0.00     0.014 C 
BRANCH   4   5
HETATM    5  C5  UNL     1      22.064  -0.066  52.930  1.00  0.00    -0.036 A 
HETATM    6  C6  UNL     1      21.092   0.484  52.122  1.00  0.00     0.013 A 
HETATM    7  C7  UNL     1      19.786   0.094  52.331  1.00  0.00     0.024 A 
HETATM    8  C8  UNL     1      19.580  -0.816  53.339  1.00  0.00     0.034 A 
HETATM    9 CL1  UNL     1      17.925  -1.319  53.615  1.00  0.00    -0.084 Cl
HETATM   10  C9  UNL     1      20.586  -1.335  54.118  1.00  0.00     0.024 A 
HETATM   11  C10 UNL     1      21.896  -0.972  53.940  1.00  0.00     0.013 A 
ENDBRANCH   4   5
ENDBRANCH   2   3
BRANCH   2  12
HETATM   12  C11 UNL     1      27.279   0.524  52.856  1.00  0.00    -0.006 A 
HETATM   13  C12 UNL     1      28.336   1.248  53.341  1.00  0.00     0.014 A 
HETATM   14  C13 UNL     1      29.516   0.719  53.773  1.00  0.00     0.001 A 
HETATM   15  C14 UNL     1      29.678  -0.644  53.726  1.00  0.00     0.000 A 
HETATM   16  C15 UNL     1      28.664  -1.447  53.252  1.00  0.00     0.001 A 
HETATM   17  C16 UNL     1      27.520  -0.819  52.842  1.00  0.00     0.014 A 
ENDBRANCH   2  12
BRANCH   1  18
HETATM   18  N1  UNL     1      26.104   2.655  50.765  1.00  0.00    -0.278 N 
HETATM   19  H2  UNL     1      25.229   3.227  50.935  1.00  0.00     0.189 HD
BRANCH  18  20
HETATM   20  C1  UNL     1      26.688   3.636  49.924  1.00  0.00     0.190 C 
HETATM   21  S1  UNL     1      25.737   4.906  49.496  1.00  0.00    -0.073 SA
ENDBRANCH  18  20
ENDBRANCH   1  18
TORSDOF 5
ENDMDL
MODEL 3
REMARK VINA RESULT:      -7.5      1.308      2.050
REMARK  5 active torsions:
REMARK  status: ('A' for Active; 'I' for Inactive)
REMARK    1  A    between atoms: C1_2  and  N1_3 
REMARK    2  A    between atoms: N1_3  and  N2_4 
REMARK    3  A    between atoms: C2_5  and  C3_6 
REMARK    4  A    between atoms: C2_5  and  C11_15 
REMARK    5  A    between atoms: C4_7  and  C5_8 
ROOT
HETATM    1  N2  UNL     1      24.643   2.042  51.323  1.00  0.00    -0.174 NA
HETATM    2  C2  UNL     1      25.855   1.889  51.501  1.00  0.00     0.087 C 
ENDROOT
BRANCH   2   3
HETATM    3  C3  UNL     1      26.253   3.098  50.831  1.00  0.00     0.035 C 
HETATM    4  C4  UNL     1      26.529   3.747  49.740  1.00  0.00     0.014 C 
BRANCH   4   5
HETATM    5  C5  UNL     1      26.925   4.932  49.013  1.00  0.00    -0.036 A 
HETATM    6  C6  UNL     1      25.889   5.826  48.846  1.00  0.00     0.013 A 
HETATM    7  C7  UNL     1      26.152   6.996  48.165  1.00  0.00     0.024 A 
HETATM    8  C8  UNL     1      27.439   7.157  47.713  1.00  0.00     0.034 A 
HETATM    9 CL1  UNL     1      27.786   8.638  46.847  1.00  0.00    -0.084 Cl
HETATM   10  C9  UNL     1      28.438   6.232  47.906  1.00  0.00     0.024 A 
HETATM   11  C10 UNL     1      28.215   5.058  48.578  1.00  0.00     0.013 A 
ENDBRANCH   4   5
ENDBRANCH   2   3
BRANCH   2  12
HETATM   12  C11 UNL     1      26.677   0.890  52.139  1.00  0.00    -0.006 A 
HETATM   13  C12 UNL     1      26.599  -0.477  52.191  1.00  0.00     0.014 A 
HETATM   14  C13 UNL     1      27.474  -1.288  52.852  1.00  0.00     0.001 A 
HETATM   15  C14 UNL     1      28.522  -0.708  53.524  1.00  0.00     0.000 A 
HETATM   16  C15 UNL     1      28.675   0.661  53.523  1.00  0.00     0.001 A 
HETATM   17  C16 UNL     1      27.743   1.385  52.831  1.00  0.00     0.014 A 
ENDBRANCH   2  12
BRANCH   1  18
HETATM   18  N1  UNL     1      23.546   1.369  51.630  1.00  0.00    -0.278 N 
HETATM   19  H2  UNL     1      23.074   1.910  50.851  1.00  0.00     0.189 HD
BRANCH  18  20
HETATM   20  C1  UNL     1      22.371   0.646  51.959  1.00  0.00     0.190 C 
HETATM   21  S1  UNL     1      22.520  -0.529  53.098  1.00  0.00    -0.073 SA
ENDBRANCH  18  20
ENDBRANCH   1  18
TORSDOF 5
ENDMDL
MODEL 4
REMARK VINA RESULT:      -7.2      2.386      4.201
REMARK  5 active torsions:
REMARK  status: ('A' for Active; 'I' for Inactive)
REMARK    1  A    between atoms: C1_2  and  N1_3 
REMARK    2  A    between atoms: N1_3  and  N2_4 
REMARK    3  A    between atoms: C2_5  and  C3_6 
REMARK    4  A    between atoms: C2_5  and  C11_15 
REMARK    5  A    between atoms: C4_7  and  C5_8 
ROOT
HETATM    1  N2  UNL     1      26.802   1.116  52.131  1.00  0.00    -0.174 NA
HETATM    2  C2  UNL     1      25.616   1.409  51.954  1.00  0.00     0.087 C 
ENDROOT
BRANCH   2   3
HETATM    3  C3  UNL     1      25.876   2.640  51.256  1.00  0.00     0.035 C 
HETATM    4  C4  UNL     1      26.222   3.275  50.178  1.00  0.00     0.014 C 
BRANCH   4   5
HETATM    5  C5  UNL     1      26.497   4.479  49.426  1.00  0.00    -0.036 A 
HETATM    6  C6  UNL     1      25.411   5.325  49.359  1.00  0.00     0.013 A 
HETATM    7  C7  UNL     1      25.559   6.508  48.665  1.00  0.00     0.024 A 
HETATM    8  C8  UNL     1      26.791   6.728  48.101  1.00  0.00     0.034 A 
HETATM    9 CL1  UNL     1      26.991   8.226  47.217  1.00  0.00    -0.084 Cl
HETATM   10  C9  UNL     1      27.844   5.850  48.196  1.00  0.00     0.024 A 
HETATM   11  C10 UNL     1      27.736   4.666  48.877  1.00  0.00     0.013 A 
ENDBRANCH   4   5
ENDBRANCH   2   3
BRANCH   2  12
HETATM   12  C11 UNL     1      24.351   0.802  52.290  1.00  0.00    -0.006 A 
HETATM   13  C12 UNL     1      23.998  -0.155  53.203  1.00  0.00     0.014 A 
HETATM   14  C13 UNL     1      22.732  -0.626  53.396  1.00  0.00     0.001 A 
HETATM   15  C14 UNL     1      21.719  -0.113  52.625  1.00  0.00     0.000 A 
HETATM   16  C15 UNL     1      21.987   0.855  51.682  1.00  0.00     0.001 A 
HETATM   17  C16 UNL     1      23.289   1.259  51.565  1.00  0.00     0.014 A 
ENDBRANCH   2  12
BRANCH   1  18
HETATM   18  N1  UNL     1      27.458   0.119  52.705  1.00  0.00    -0.278 N 
HETATM   19  H2  UNL     1      28.335   0.546  52.292  1.00  0.00     0.189 HD
BRANCH  18  20
HETATM   20  C1  UNL     1      28.160  -0.948  53.321  1.00  0.00     0.190 C 
HETATM   21  S1  UNL     1      29.774  -0.739  53.549  1.00  0.00    -0.073 SA
ENDBRANCH  18  20
ENDBRANCH   1  18
TORSDOF 5
ENDMDL
MODEL 5
REMARK VINA RESULT:      -7.0      4.099      7.349
REMARK  5 active torsions:
REMARK  status: ('A' for Active; 'I' for Inactive)
REMARK    1  A    between atoms: C1_2  and  N1_3 
REMARK    2  A    between atoms: N1_3  and  N2_4 
REMARK    3  A    between atoms: C2_5  and  C3_6 
REMARK    4  A    between atoms: C2_5  and  C11_15 
REMARK    5  A    between atoms: C4_7  and  C5_8 
ROOT
HETATM    1  N2  UNL     1      26.176   0.946  52.764  1.00  0.00    -0.174 NA
HETATM    2  C2  UNL     1      25.463   1.589  51.988  1.00  0.00     0.087 C 
ENDROOT
BRANCH   2   3
HETATM    3  C3  UNL     1      24.249   0.878  52.285  1.00  0.00     0.035 C 
HETATM    4  C4  UNL     1      22.981   0.875  52.565  1.00  0.00     0.014 C 
BRANCH   4   5
HETATM    5  C5  UNL     1      21.731   0.214  52.869  1.00  0.00    -0.036 A 
HETATM    6  C6  UNL     1      20.693   0.647  52.072  1.00  0.00     0.013 A 
HETATM    7  C7  UNL     1      19.450   0.084  52.274  1.00  0.00     0.024 A 
HETATM    8  C8  UNL     1      19.369  -0.866  53.263  1.00  0.00     0.034 A 
HETATM    9 CL1  UNL     1      17.797  -1.589  53.528  1.00  0.00    -0.084 Cl
HETATM   10  C9  UNL     1      20.438  -1.263  54.031  1.00  0.00     0.024 A 
HETATM   11  C10 UNL     1      21.687  -0.726  53.860  1.00  0.00     0.013 A 
ENDBRANCH   4   5
ENDBRANCH   2   3
BRANCH   2  12
HETATM   12  C11 UNL     1      25.677   2.680  51.069  1.00  0.00    -0.006 A 
HETATM   13  C12 UNL     1      26.638   2.917  50.121  1.00  0.00     0.014 A 
HETATM   14  C13 UNL     1      26.696   4.021  49.322  1.00  0.00     0.001 A 
HETATM   15  C14 UNL     1      25.724   4.982  49.462  1.00  0.00     0.000 A 
HETATM   16  C15 UNL     1      24.720   4.822  50.392  1.00  0.00     0.001 A 
HETATM   17  C16 UNL     1      24.752   3.680  51.145  1.00  0.00     0.014 A 
ENDBRANCH   2  12
BRANCH   1  18
HETATM   18  N1  UNL     1      27.453   0.958  53.111  1.00  0.00    -0.278 N 
HETATM   19  H2  UNL     1      27.341   2.003  53.242  1.00  0.00     0.189 HD
BRANCH  18  20
HETATM   20  C1  UNL     1      28.821   0.968  53.483  1.00  0.00     0.190 C 
HETATM   21  S1  UNL     1      29.538  -0.492  53.710  1.00  0.00    -0.073 SA
ENDBRANCH  18  20
ENDBRANCH   1  18
TORSDOF 5
ENDMDL
MODEL 6
REMARK VINA RESULT:      -7.0      4.412      7.101
REMARK  5 active torsions:
REMARK  status: ('A' for Active; 'I' for Inactive)
REMARK    1  A    between atoms: C1_2  and  N1_3 
REMARK    2  A    between atoms: N1_3  and  N2_4 
REMARK    3  A    between atoms: C2_5  and  C3_6 
REMARK    4  A    between atoms: C2_5  and  C11_15 
REMARK    5  A    between atoms: C4_7  and  C5_8 
ROOT
HETATM    1  N2  UNL     1      22.723   2.352  52.119  1.00  0.00    -0.174 NA
HETATM    2  C2  UNL     1      22.413   1.193  52.413  1.00  0.00     0.087 C 
ENDROOT
BRANCH   2   3
HETATM    3  C3  UNL     1      23.762   0.699  52.486  1.00  0.00     0.035 C 
HETATM    4  C4  UNL     1      24.850   0.481  53.160  1.00  0.00     0.014 C 
BRANCH   4   5
HETATM    5  C5  UNL     1      26.208   0.002  53.292  1.00  0.00    -0.036 A 
HETATM    6  C6  UNL     1      26.949   0.742  54.190  1.00  0.00     0.013 A 
HETATM    7  C7  UNL     1      28.262   0.374  54.397  1.00  0.00     0.024 A 
HETATM    8  C8  UNL     1      28.708  -0.708  53.679  1.00  0.00     0.034 A 
HETATM    9 CL1  UNL     1      30.373  -1.184  53.933  1.00  0.00    -0.084 Cl
HETATM   10  C9  UNL     1      27.927  -1.413  52.794  1.00  0.00     0.024 A 
HETATM   11  C10 UNL     1      26.619  -1.078  52.561  1.00  0.00     0.013 A 
ENDBRANCH   4   5
ENDBRANCH   2   3
BRANCH   2  12
HETATM   12  C11 UNL     1      21.173   0.489  52.628  1.00  0.00    -0.006 A 
HETATM   13  C12 UNL     1      19.941   0.584  52.038  1.00  0.00     0.014 A 
HETATM   14  C13 UNL     1      18.853  -0.171  52.367  1.00  0.00     0.001 A 
HETATM   15  C14 UNL     1      18.984  -1.105  53.366  1.00  0.00     0.000 A 
HETATM   16  C15 UNL     1      20.189  -1.265  54.012  1.00  0.00     0.001 A 
HETATM   17  C16 UNL     1      21.218  -0.458  53.609  1.00  0.00     0.014 A 
ENDBRANCH   2  12
BRANCH   1  18
HETATM   18  N1  UNL     1      22.068   3.474  51.867  1.00  0.00    -0.278 N 
HETATM   19  H2  UNL     1      21.193   2.879  51.830  1.00  0.00     0.189 HD
BRANCH  18  20
HETATM   20  C1  UNL     1      21.367   4.678  51.598  1.00  0.00     0.190 C 
HETATM   21  S1  UNL     1      22.233   5.905  50.932  1.00  0.00    -0.073 SA
ENDBRANCH  18  20
ENDBRANCH   1  18
TORSDOF 5
ENDMDL
MODEL 7
REMARK VINA RESULT:      -6.9      4.492      7.633
REMARK  5 active torsions:
REMARK  status: ('A' for Active; 'I' for Inactive)
REMARK    1  A    between atoms: C1_2  and  N1_3 
REMARK    2  A    between atoms: N1_3  and  N2_4 
REMARK    3  A    between atoms: C2_5  and  C3_6 
REMARK    4  A    between atoms: C2_5  and  C11_15 
REMARK    5  A    between atoms: C4_7  and  C5_8 
ROOT
HETATM    1  N2  UNL     1      23.492   4.007  48.994  1.00  0.00    -0.174 NA
HETATM    2  C2  UNL     1      24.634   4.097  49.452  1.00  0.00     0.087 C 
ENDROOT
BRANCH   2   3
HETATM    3  C3  UNL     1      24.404   3.236  50.581  1.00  0.00     0.035 C 
HETATM    4  C4  UNL     1      24.279   2.047  51.089  1.00  0.00     0.014 C 
BRANCH   4   5
HETATM    5  C5  UNL     1      24.053   1.134  52.186  1.00  0.00    -0.036 A 
HETATM    6  C6  UNL     1      22.724   1.052  52.545  1.00  0.00     0.013 A 
HETATM    7  C7  UNL     1      22.390   0.209  53.584  1.00  0.00     0.024 A 
HETATM    8  C8  UNL     1      23.428  -0.477  54.166  1.00  0.00     0.034 A 
HETATM    9 CL1  UNL     1      23.016  -1.551  55.485  1.00  0.00    -0.084 Cl
HETATM   10  C9  UNL     1      24.739  -0.359  53.769  1.00  0.00     0.024 A 
HETATM   11  C10 UNL     1      25.110   0.469  52.742  1.00  0.00     0.013 A 
ENDBRANCH   4   5
ENDBRANCH   2   3
BRANCH   2  12
HETATM   12  C11 UNL     1      25.839   4.790  49.066  1.00  0.00    -0.006 A 
HETATM   13  C12 UNL     1      27.139   4.382  48.932  1.00  0.00     0.014 A 
HETATM   14  C13 UNL     1      28.178   5.181  48.552  1.00  0.00     0.001 A 
HETATM   15  C14 UNL     1      27.919   6.502  48.278  1.00  0.00     0.000 A 
HETATM   16  C15 UNL     1      26.638   6.995  48.388  1.00  0.00     0.001 A 
HETATM   17  C16 UNL     1      25.668   6.112  48.777  1.00  0.00     0.014 A 
ENDBRANCH   2  12
BRANCH   1  18
HETATM   18  N1  UNL     1      22.846   4.500  47.948  1.00  0.00    -0.278 N 
HETATM   19  H2  UNL     1      23.705   4.248  47.382  1.00  0.00     0.189 HD
BRANCH  18  20
HETATM   20  C1  UNL     1      22.153   5.027  46.829  1.00  0.00     0.190 C 
HETATM   21  S1  UNL     1      21.730   3.962  45.652  1.00  0.00    -0.073 SA
ENDBRANCH  18  20
ENDBRANCH   1  18
TORSDOF 5
ENDMDL
MODEL 8
REMARK VINA RESULT:      -6.8      2.325      4.273
REMARK  5 active torsions:
REMARK  status: ('A' for Active; 'I' for Inactive)
REMARK    1  A    between atoms: C1_2  and  N1_3 
REMARK    2  A    between atoms: N1_3  and  N2_4 
REMARK    3  A    between atoms: C2_5  and  C3_6 
REMARK    4  A    between atoms: C2_5  and  C11_15 
REMARK    5  A    between atoms: C4_7  and  C5_8 
ROOT
HETATM    1  N2  UNL     1      26.470   1.874  51.626  1.00  0.00    -0.174 NA
HETATM    2  C2  UNL     1      25.354   2.236  51.242  1.00  0.00     0.087 C 
ENDROOT
BRANCH   2   3
HETATM    3  C3  UNL     1      25.809   3.432  50.586  1.00  0.00     0.035 C 
HETATM    4  C4  UNL     1      26.396   4.019  49.587  1.00  0.00     0.014 C 
BRANCH   4   5
HETATM    5  C5  UNL     1      26.876   5.187  48.882  1.00  0.00    -0.036 A 
HETATM    6  C6  UNL     1      28.216   5.107  48.569  1.00  0.00     0.013 A 
HETATM    7  C7  UNL     1      28.783   6.167  47.894  1.00  0.00     0.024 A 
HETATM    8  C8  UNL     1      27.945   7.213  47.596  1.00  0.00     0.034 A 
HETATM    9 CL1  UNL     1      28.653   8.565  46.738  1.00  0.00    -0.084 Cl
HETATM   10  C9  UNL     1      26.612   7.244  47.931  1.00  0.00     0.024 A 
HETATM   11  C10 UNL     1      26.013   6.210  48.602  1.00  0.00     0.013 A 
ENDBRANCH   4   5
ENDBRANCH   2   3
BRANCH   2  12
HETATM   12  C11 UNL     1      24.014   1.715  51.359  1.00  0.00    -0.006 A 
HETATM   13  C12 UNL     1      22.933   1.746  50.518  1.00  0.00     0.014 A 
HETATM   14  C13 UNL     1      21.714   1.195  50.787  1.00  0.00     0.001 A 
HETATM   15  C14 UNL     1      21.538   0.554  51.989  1.00  0.00     0.000 A 
HETATM   16  C15 UNL     1      22.574   0.477  52.893  1.00  0.00     0.001 A 
HETATM   17  C16 UNL     1      23.756   1.063  52.528  1.00  0.00     0.014 A 
ENDBRANCH   2  12
BRANCH   1  18
HETATM   18  N1  UNL     1      26.952   0.852  52.316  1.00  0.00    -0.278 N 
HETATM   19  H2  UNL     1      27.039   1.527  53.128  1.00  0.00     0.189 HD
BRANCH  18  20
HETATM   20  C1  UNL     1      27.466  -0.243  53.055  1.00  0.00     0.190 C 
HETATM   21  S1  UNL     1      26.936  -1.738  52.627  1.00  0.00    -0.073 SA
ENDBRANCH  18  20
ENDBRANCH   1  18
TORSDOF 5
ENDMDL
MODEL 9
REMARK VINA RESULT:      -6.7      4.453      7.788
REMARK  5 active torsions:
REMARK  status: ('A' for Active; 'I' for Inactive)
REMARK    1  A    between atoms: C1_2  and  N1_3 
REMARK    2  A    between atoms: N1_3  and  N2_4 
REMARK    3  A    between atoms: C2_5  and  C3_6 
REMARK    4  A    between atoms: C2_5  and  C11_15 
REMARK    5  A    between atoms: C4_7  and  C5_8 
ROOT
HETATM    1  N2  UNL     1      24.474   5.399  48.826  1.00  0.00    -0.174 NA
HETATM    2  C2  UNL     1      25.682   5.294  49.055  1.00  0.00     0.087 C 
ENDROOT
BRANCH   2   3
HETATM    3  C3  UNL     1      25.546   4.299  50.086  1.00  0.00     0.035 C 
HETATM    4  C4  UNL     1      25.721   3.086  50.515  1.00  0.00     0.014 C 
BRANCH   4   5
HETATM    5  C5  UNL     1      25.610   2.046  51.513  1.00  0.00    -0.036 A 
HETATM    6  C6  UNL     1      24.402   2.071  52.177  1.00  0.00     0.013 A 
HETATM    7  C7  UNL     1      24.185   1.122  53.154  1.00  0.00     0.024 A 
HETATM    8  C8  UNL     1      25.209   0.232  53.371  1.00  0.00     0.034 A 
HETATM    9 CL1  UNL     1      24.945  -0.978  54.608  1.00  0.00    -0.084 Cl
HETATM   10  C9  UNL     1      26.396   0.250  52.680  1.00  0.00     0.024 A 
HETATM   11  C10 UNL     1      26.649   1.178  51.703  1.00  0.00     0.013 A 
ENDBRANCH   4   5
ENDBRANCH   2   3
BRANCH   2  12
HETATM   12  C11 UNL     1      26.880   5.905  48.533  1.00  0.00    -0.006 A 
HETATM   13  C12 UNL     1      27.132   7.144  48.006  1.00  0.00     0.014 A 
HETATM   14  C13 UNL     1      28.345   7.569  47.549  1.00  0.00     0.001 A 
HETATM   15  C14 UNL     1      29.409   6.703  47.613  1.00  0.00     0.000 A 
HETATM   16  C15 UNL     1      29.242   5.437  48.129  1.00  0.00     0.001 A 
HETATM   17  C16 UNL     1      27.986   5.106  48.560  1.00  0.00     0.014 A 
ENDBRANCH   2  12
BRANCH   1  18
HETATM   18  N1  UNL     1      23.723   6.114  48.003  1.00  0.00    -0.278 N 
HETATM   19  H2  UNL     1      24.257   5.649  47.215  1.00  0.00     0.189 HD
BRANCH  18  20
HETATM   20  C1  UNL     1      22.917   6.880  47.122  1.00  0.00     0.190 C 
HETATM   21  S1  UNL     1      23.698   7.921  46.120  1.00  0.00    -0.073 SA
ENDBRANCH  18  20
ENDBRANCH   1  18
TORSDOF 5
ENDMDL
