MODEL 1
REMARK VINA RESULT:      -7.8      0.000      0.000
REMARK  7 active torsions:
REMARK  status: ('A' for Active; 'I' for Inactive)
REMARK    1  A    between atoms: O1_2  and  C2_3 
REMARK    2  A    between atoms: C3_5  and  N2_6 
REMARK    3  A    between atoms: N2_6  and  C4_7 
REMARK    4  A    between atoms: C4_7  and  C5_8 
REMARK    5  A    between atoms: C5_8  and  N3_9 
REMARK    6  A    between atoms: C10_16  and  N5_17 
REMARK    7  A    between atoms: N5_17  and  C11_18 
ROOT
HETATM    1  C2  UNL     1      28.325   0.726  53.403  1.00  0.00     0.302 A 
HETATM    2  N1  UNL     1      28.026   1.819  52.649  1.00  0.00    -0.018 NA
HETATM    3  C3  UNL     1      26.753   2.152  52.376  1.00  0.00     0.742 A 
HETATM    4  N4  UNL     1      25.783   1.376  52.870  1.00  0.00     0.130 NA
HETATM    5  C10 UNL     1      25.995   0.288  53.617  1.00  0.00     0.746 A 
HETATM    6  N6  UNL     1      27.273   0.025  53.841  1.00  0.00    -0.017 NA
ENDROOT
BRANCH   3   7
HETATM    7  N2  UNL     1      26.409   3.286  51.594  1.00  0.00    -0.220 N 
HETATM    8  H4  UNL     1      26.465   4.238  52.016  1.00  0.00     0.177 HD
BRANCH   7   9
HETATM    9  C4  UNL     1      25.978   3.186  50.213  1.00  0.00     0.157 C 
BRANCH   9  10
HETATM   10  C5  UNL     1      26.877   3.959  49.294  1.00  0.00     0.137 C 
BRANCH  10  11
HETATM   11  N3  UNL     1      26.364   5.211  48.861  1.00  0.00    -0.407 N 
HETATM   12  C6  UNL     1      27.340   6.202  48.543  1.00  0.00     0.143 C 
HETATM   13  C7  UNL     1      26.769   7.570  48.829  1.00  0.00     0.187 C 
HETATM   14  O2  UNL     1      26.359   7.628  50.141  1.00  0.00    -0.388 OA
HETATM   15  C8  UNL     1      25.230   6.859  50.313  1.00  0.00     0.187 C 
HETATM   16  C9  UNL     1      25.149   5.667  49.398  1.00  0.00     0.143 C 
ENDBRANCH  10  11
ENDBRANCH   9  10
ENDBRANCH   7   9
ENDBRANCH   3   7
BRANCH   1  17
HETATM   17  O1  UNL     1      29.628   0.353  53.704  1.00  0.00    -0.323 OA
HETATM   18  C1  UNL     1      29.961  -1.038  53.656  1.00  0.00     0.213 C 
ENDBRANCH   1  17
BRANCH   5  19
HETATM   19  N5  UNL     1      25.007  -0.564  54.161  1.00  0.00    -0.188 N 
HETATM   20  H17 UNL     1      25.332  -1.295  54.849  1.00  0.00     0.184 HD
BRANCH  19  21
HETATM   21  C11 UNL     1      23.616  -0.570  53.901  1.00  0.00     0.049 A 
HETATM   22  C12 UNL     1      23.013  -0.075  52.764  1.00  0.00     0.032 A 
HETATM   23  C13 UNL     1      21.652  -0.097  52.548  1.00  0.00     0.026 A 
HETATM   24  C14 UNL     1      20.803  -0.631  53.484  1.00  0.00     0.034 A 
HETATM   25 CL1  UNL     1      19.084  -0.656  53.206  1.00  0.00    -0.084 Cl
HETATM   26  C15 UNL     1      21.372  -1.134  54.632  1.00  0.00     0.026 A 
HETATM   27  C16 UNL     1      22.733  -1.092  54.807  1.00  0.00     0.032 A 
ENDBRANCH  19  21
ENDBRANCH   5  19
TORSDOF 7
ENDMDL
MODEL 2
REMARK VINA RESULT:      -7.7      1.773      2.327
REMARK  7 active torsions:
REMARK  status: ('A' for Active; 'I' for Inactive)
REMARK    1  A    between atoms: O1_2  and  C2_3 
REMARK    2  A    between atoms: C3_5  and  N2_6 
REMARK    3  A    between atoms: N2_6  and  C4_7 
REMARK    4  A    between atoms: C4_7  and  C5_8 
REMARK    5  A    between atoms: C5_8  and  N3_9 
REMARK    6  A    between atoms: C10_16  and  N5_17 
REMARK    7  A    between atoms: N5_17  and  C11_18 
ROOT
HETATM    1  C2  UNL     1      28.468   0.700  53.492  1.00  0.00     0.302 A 
HETATM    2  N1  UNL     1      28.194   1.773  52.700  1.00  0.00    -0.018 NA
HETATM    3  C3  UNL     1      26.930   2.102  52.383  1.00  0.00     0.742 A 
HETATM    4  N4  UNL     1      25.944   1.344  52.871  1.00  0.00     0.130 NA
HETATM    5  C10 UNL     1      26.131   0.277  53.654  1.00  0.00     0.746 A 
HETATM    6  N6  UNL     1      27.402   0.016  53.921  1.00  0.00    -0.017 NA
ENDROOT
BRANCH   3   7
HETATM    7  N2  UNL     1      26.613   3.215  51.560  1.00  0.00    -0.220 N 
HETATM    8  H4  UNL     1      26.756   4.182  51.925  1.00  0.00     0.177 HD
BRANCH   7   9
HETATM    9  C4  UNL     1      26.093   3.073  50.214  1.00  0.00     0.157 C 
BRANCH   9  10
HETATM   10  C5  UNL     1      24.608   3.282  50.168  1.00  0.00     0.137 C 
BRANCH  10  11
HETATM   11  N3  UNL     1      24.094   4.170  51.151  1.00  0.00    -0.407 N 
HETATM   12  C6  UNL     1      23.040   3.652  51.961  1.00  0.00     0.143 C 
HETATM   13  C7  UNL     1      22.131   4.783  52.377  1.00  0.00     0.187 C 
HETATM   14  O2  UNL     1      21.670   5.435  51.257  1.00  0.00    -0.388 OA
HETATM   15  C8  UNL     1      22.693   6.152  50.678  1.00  0.00     0.187 C 
HETATM   16  C9  UNL     1      24.057   5.546  50.868  1.00  0.00     0.143 C 
ENDBRANCH  10  11
ENDBRANCH   9  10
ENDBRANCH   7   9
ENDBRANCH   3   7
BRANCH   1  17
HETATM   17  O1  UNL     1      29.760   0.331  53.839  1.00  0.00    -0.323 OA
HETATM   18  C1  UNL     1      30.104  -1.057  53.790  1.00  0.00     0.213 C 
ENDBRANCH   1  17
BRANCH   5  19
HETATM   19  N5  UNL     1      25.125  -0.557  54.194  1.00  0.00    -0.188 N 
HETATM   20  H17 UNL     1      25.432  -1.286  54.892  1.00  0.00     0.184 HD
BRANCH  19  21
HETATM   21  C11 UNL     1      23.737  -0.544  53.920  1.00  0.00     0.049 A 
HETATM   22  C12 UNL     1      23.153  -0.044  52.775  1.00  0.00     0.032 A 
HETATM   23  C13 UNL     1      21.794  -0.049  52.545  1.00  0.00     0.026 A 
HETATM   24  C14 UNL     1      20.928  -0.568  53.474  1.00  0.00     0.034 A 
HETATM   25 CL1  UNL     1      19.211  -0.570  53.178  1.00  0.00    -0.084 Cl
HETATM   26  C15 UNL     1      21.478  -1.075  54.629  1.00  0.00     0.026 A 
HETATM   27  C16 UNL     1      22.838  -1.051  54.819  1.00  0.00     0.032 A 
ENDBRANCH  19  21
ENDBRANCH   5  19
TORSDOF 7
ENDMDL
MODEL 3
REMARK VINA RESULT:      -7.5      3.692      7.721
REMARK  7 active torsions:
REMARK  status: ('A' for Active; 'I' for Inactive)
REMARK    1  A    between atoms: O1_2  and  C2_3 
REMARK    2  A    between atoms: C3_5  and  N2_6 
REMARK    3  A    between atoms: N2_6  and  C4_7 
REMARK    4  A    between atoms: C4_7  and  C5_8 
REMARK    5  A    between atoms: C5_8  and  N3_9 
REMARK    6  A    between atoms: C10_16  and  N5_17 
REMARK    7  A    between atoms: N5_17  and  C11_18 
ROOT
HETATM    1  C2  UNL     1      22.485   1.803  50.048  1.00  0.00     0.302 A 
HETATM    2  N1  UNL     1      22.694   0.942  51.081  1.00  0.00    -0.018 NA
HETATM    3  C3  UNL     1      23.463   1.282  52.130  1.00  0.00     0.742 A 
HETATM    4  N4  UNL     1      24.020   2.497  52.130  1.00  0.00     0.130 NA
HETATM    5  C10 UNL     1      23.863   3.398  51.155  1.00  0.00     0.746 A 
HETATM    6  N6  UNL     1      23.093   2.990  50.158  1.00  0.00    -0.017 NA
ENDROOT
BRANCH   3   7
HETATM    7  N2  UNL     1      23.699   0.406  53.222  1.00  0.00    -0.220 N 
HETATM    8  H4  UNL     1      22.987   0.327  53.980  1.00  0.00     0.177 HD
BRANCH   7   9
HETATM    9  C4  UNL     1      24.899  -0.398  53.339  1.00  0.00     0.157 C 
BRANCH   9  10
HETATM   10  C5  UNL     1      25.896   0.225  54.271  1.00  0.00     0.137 C 
BRANCH  10  11
HETATM   11  N3  UNL     1      27.208   0.365  53.745  1.00  0.00    -0.407 N 
HETATM   12  C6  UNL     1      28.261  -0.127  54.573  1.00  0.00     0.143 C 
HETATM   13  C7  UNL     1      29.509   0.687  54.325  1.00  0.00     0.187 C 
HETATM   14  O2  UNL     1      29.237   2.018  54.543  1.00  0.00    -0.388 OA
HETATM   15  C8  UNL     1      28.432   2.503  53.537  1.00  0.00     0.187 C 
HETATM   16  C9  UNL     1      27.501   1.481  52.943  1.00  0.00     0.143 C 
ENDBRANCH  10  11
ENDBRANCH   9  10
ENDBRANCH   7   9
ENDBRANCH   3   7
BRANCH   1  17
HETATM   17  O1  UNL     1      21.698   1.485  48.950  1.00  0.00    -0.323 OA
HETATM   18  C1  UNL     1      20.622   2.367  48.611  1.00  0.00     0.213 C 
ENDBRANCH   1  17
BRANCH   5  19
HETATM   19  N5  UNL     1      24.429   4.693  51.107  1.00  0.00    -0.188 N 
HETATM   20  H17 UNL     1      24.063   5.401  51.798  1.00  0.00     0.184 HD
BRANCH  19  21
HETATM   21  C11 UNL     1      25.439   5.175  50.241  1.00  0.00     0.049 A 
HETATM   22  C12 UNL     1      25.617   6.493  49.877  1.00  0.00     0.032 A 
HETATM   23  C13 UNL     1      26.614   6.925  49.029  1.00  0.00     0.026 A 
HETATM   24  C14 UNL     1      27.507   6.034  48.488  1.00  0.00     0.034 A 
HETATM   25 CL1  UNL     1      28.765   6.585  47.416  1.00  0.00    -0.084 Cl
HETATM   26  C15 UNL     1      27.358   4.710  48.831  1.00  0.00     0.026 A 
HETATM   27  C16 UNL     1      26.351   4.322  49.680  1.00  0.00     0.032 A 
ENDBRANCH  19  21
ENDBRANCH   5  19
TORSDOF 7
ENDMDL
MODEL 4
REMARK VINA RESULT:      -7.4      3.930      5.668
REMARK  7 active torsions:
REMARK  status: ('A' for Active; 'I' for Inactive)
REMARK    1  A    between atoms: O1_2  and  C2_3 
REMARK    2  A    between atoms: C3_5  and  N2_6 
REMARK    3  A    between atoms: N2_6  and  C4_7 
REMARK    4  A    between atoms: C4_7  and  C5_8 
REMARK    5  A    between atoms: C5_8  and  N3_9 
REMARK    6  A    between atoms: C10_16  and  N5_17 
REMARK    7  A    between atoms: N5_17  and  C11_18 
ROOT
HETATM    1  C2  UNL     1      21.513  -0.065  52.708  1.00  0.00     0.302 A 
HETATM    2  N1  UNL     1      21.160   0.222  51.425  1.00  0.00    -0.018 NA
HETATM    3  C3  UNL     1      21.943   0.980  50.639  1.00  0.00     0.742 A 
HETATM    4  N4  UNL     1      23.084   1.448  51.154  1.00  0.00     0.130 NA
HETATM    5  C10 UNL     1      23.499   1.212  52.403  1.00  0.00     0.746 A 
HETATM    6  N6  UNL     1      22.675   0.458  53.115  1.00  0.00    -0.017 NA
ENDROOT
BRANCH   3   7
HETATM    7  N2  UNL     1      21.603   1.296  49.297  1.00  0.00    -0.220 N 
HETATM    8  H4  UNL     1      20.933   0.686  48.779  1.00  0.00     0.177 HD
BRANCH   7   9
HETATM    9  C4  UNL     1      22.148   2.443  48.597  1.00  0.00     0.157 C 
BRANCH   9  10
HETATM   10  C5  UNL     1      21.469   3.716  49.007  1.00  0.00     0.137 C 
BRANCH  10  11
HETATM   11  N3  UNL     1      22.328   4.712  49.543  1.00  0.00    -0.407 N 
HETATM   12  C6  UNL     1      23.718   4.543  49.268  1.00  0.00     0.143 C 
HETATM   13  C7  UNL     1      24.523   5.125  50.405  1.00  0.00     0.187 C 
HETATM   14  O2  UNL     1      24.138   4.535  51.586  1.00  0.00    -0.388 OA
HETATM   15  C8  UNL     1      22.880   4.970  51.938  1.00  0.00     0.187 C 
HETATM   16  C9  UNL     1      21.993   5.306  50.771  1.00  0.00     0.143 C 
ENDBRANCH  10  11
ENDBRANCH   9  10
ENDBRANCH   7   9
ENDBRANCH   3   7
BRANCH   1  17
HETATM   17  O1  UNL     1      20.730  -0.845  53.547  1.00  0.00    -0.323 OA
HETATM   18  C1  UNL     1      21.380  -1.589  54.582  1.00  0.00     0.213 C 
ENDBRANCH   1  17
BRANCH   5  19
HETATM   19  N5  UNL     1      24.693   1.682  52.996  1.00  0.00    -0.188 N 
HETATM   20  H17 UNL     1      24.682   2.664  53.382  1.00  0.00     0.184 HD
BRANCH  19  21
HETATM   21  C11 UNL     1      25.924   0.999  53.145  1.00  0.00     0.049 A 
HETATM   22  C12 UNL     1      26.190  -0.276  52.693  1.00  0.00     0.032 A 
HETATM   23  C13 UNL     1      27.404  -0.909  52.858  1.00  0.00     0.026 A 
HETATM   24  C14 UNL     1      28.439  -0.279  53.500  1.00  0.00     0.034 A 
HETATM   25 CL1  UNL     1      29.971  -1.084  53.707  1.00  0.00    -0.084 Cl
HETATM   26  C15 UNL     1      28.208   0.995  53.964  1.00  0.00     0.026 A 
HETATM   27  C16 UNL     1      26.984   1.589  53.778  1.00  0.00     0.032 A 
ENDBRANCH  19  21
ENDBRANCH   5  19
TORSDOF 7
ENDMDL
MODEL 5
REMARK VINA RESULT:      -7.3      3.600      6.600
REMARK  7 active torsions:
REMARK  status: ('A' for Active; 'I' for Inactive)
REMARK    1  A    between atoms: O1_2  and  C2_3 
REMARK    2  A    between atoms: C3_5  and  N2_6 
REMARK    3  A    between atoms: N2_6  and  C4_7 
REMARK    4  A    between atoms: C4_7  and  C5_8 
REMARK    5  A    between atoms: C5_8  and  N3_9 
REMARK    6  A    between atoms: C10_16  and  N5_17 
REMARK    7  A    between atoms: N5_17  and  C11_18 
ROOT
HETATM    1  C2  UNL     1      27.341   2.149  53.189  1.00  0.00     0.302 A 
HETATM    2  N1  UNL     1      26.125   1.711  53.617  1.00  0.00    -0.018 NA
HETATM    3  C3  UNL     1      25.062   1.688  52.795  1.00  0.00     0.742 A 
HETATM    4  N4  UNL     1      25.233   2.108  51.538  1.00  0.00     0.130 NA
HETATM    5  C10 UNL     1      26.393   2.552  51.043  1.00  0.00     0.746 A 
HETATM    6  N6  UNL     1      27.392   2.545  51.912  1.00  0.00    -0.017 NA
ENDROOT
BRANCH   3   7
HETATM    7  N2  UNL     1      23.782   1.236  53.212  1.00  0.00    -0.220 N 
HETATM    8  H4  UNL     1      23.549   1.221  54.229  1.00  0.00     0.177 HD
BRANCH   7   9
HETATM    9  C4  UNL     1      22.766   0.789  52.281  1.00  0.00     0.157 C 
BRANCH   9  10
HETATM   10  C5  UNL     1      21.432   1.411  52.573  1.00  0.00     0.137 C 
BRANCH  10  11
HETATM   11  N3  UNL     1      21.077   2.500  51.733  1.00  0.00    -0.407 N 
HETATM   12  C6  UNL     1      21.144   2.245  50.330  1.00  0.00     0.143 C 
HETATM   13  C7  UNL     1      21.484   3.527  49.609  1.00  0.00     0.187 C 
HETATM   14  O2  UNL     1      22.657   4.039  50.114  1.00  0.00    -0.388 OA
HETATM   15  C8  UNL     1      22.446   4.528  51.384  1.00  0.00     0.187 C 
HETATM   16  C9  UNL     1      21.374   3.806  52.155  1.00  0.00     0.143 C 
ENDBRANCH  10  11
ENDBRANCH   9  10
ENDBRANCH   7   9
ENDBRANCH   3   7
BRANCH   1  17
HETATM   17  O1  UNL     1      28.459   2.186  54.010  1.00  0.00    -0.323 OA
HETATM   18  C1  UNL     1      29.016   0.944  54.452  1.00  0.00     0.213 C 
ENDBRANCH   1  17
BRANCH   5  19
HETATM   19  N5  UNL     1      26.627   3.007  49.725  1.00  0.00    -0.188 N 
HETATM   20  H17 UNL     1      26.674   2.274  48.967  1.00  0.00     0.184 HD
BRANCH  19  21
HETATM   21  C11 UNL     1      26.807   4.337  49.277  1.00  0.00     0.049 A 
HETATM   22  C12 UNL     1      27.917   4.812  48.611  1.00  0.00     0.032 A 
HETATM   23  C13 UNL     1      28.057   6.117  48.191  1.00  0.00     0.026 A 
HETATM   24  C14 UNL     1      27.066   7.037  48.423  1.00  0.00     0.034 A 
HETATM   25 CL1  UNL     1      27.248   8.686  47.890  1.00  0.00    -0.084 Cl
HETATM   26  C15 UNL     1      25.944   6.596  49.086  1.00  0.00     0.026 A 
HETATM   27  C16 UNL     1      25.844   5.287  49.487  1.00  0.00     0.032 A 
ENDBRANCH  19  21
ENDBRANCH   5  19
TORSDOF 7
ENDMDL
MODEL 6
REMARK VINA RESULT:      -7.3      2.394      3.219
REMARK  7 active torsions:
REMARK  status: ('A' for Active; 'I' for Inactive)
REMARK    1  A    between atoms: O1_2  and  C2_3 
REMARK    2  A    between atoms: C3_5  and  N2_6 
REMARK    3  A    between atoms: N2_6  and  C4_7 
REMARK    4  A    between atoms: C4_7  and  C5_8 
REMARK    5  A    between atoms: C5_8  and  N3_9 
REMARK    6  A    between atoms: C10_16  and  N5_17 
REMARK    7  A    between atoms: N5_17  and  C11_18 
ROOT
HETATM    1  C2  UNL     1      28.205   0.983  53.555  1.00  0.00     0.302 A 
HETATM    2  N1  UNL     1      27.857   1.938  52.649  1.00  0.00    -0.018 NA
HETATM    3  C3  UNL     1      26.583   2.089  52.249  1.00  0.00     0.742 A 
HETATM    4  N4  UNL     1      25.662   1.272  52.769  1.00  0.00     0.130 NA
HETATM    5  C10 UNL     1      25.924   0.312  53.661  1.00  0.00     0.746 A 
HETATM    6  N6  UNL     1      27.200   0.225  54.006  1.00  0.00    -0.017 NA
ENDROOT
BRANCH   3   7
HETATM    7  N2  UNL     1      26.190   3.075  51.306  1.00  0.00    -0.220 N 
HETATM    8  H4  UNL     1      26.900   3.478  50.656  1.00  0.00     0.177 HD
BRANCH   7   9
HETATM    9  C4  UNL     1      24.828   3.559  51.198  1.00  0.00     0.157 C 
BRANCH   9  10
HETATM   10  C5  UNL     1      24.438   3.807  49.771  1.00  0.00     0.137 C 
BRANCH  10  11
HETATM   11  N3  UNL     1      23.077   3.544  49.463  1.00  0.00    -0.407 N 
HETATM   12  C6  UNL     1      22.446   2.540  50.257  1.00  0.00     0.143 C 
HETATM   13  C7  UNL     1      21.384   1.851  49.434  1.00  0.00     0.187 C 
HETATM   14  O2  UNL     1      21.951   1.345  48.287  1.00  0.00    -0.388 OA
HETATM   15  C8  UNL     1      22.282   2.374  47.435  1.00  0.00     0.187 C 
HETATM   16  C9  UNL     1      22.650   3.657  48.129  1.00  0.00     0.143 C 
ENDBRANCH  10  11
ENDBRANCH   9  10
ENDBRANCH   7   9
ENDBRANCH   3   7
BRANCH   1  17
HETATM   17  O1  UNL     1      29.510   0.799  53.991  1.00  0.00    -0.323 OA
HETATM   18  C1  UNL     1      30.139  -0.460  53.731  1.00  0.00     0.213 C 
ENDBRANCH   1  17
BRANCH   5  19
HETATM   19  N5  UNL     1      24.989  -0.576  54.240  1.00  0.00    -0.188 N 
HETATM   20  H17 UNL     1      25.366  -1.300  54.908  1.00  0.00     0.184 HD
BRANCH  19  21
HETATM   21  C11 UNL     1      23.588  -0.625  54.041  1.00  0.00     0.049 A 
HETATM   22  C12 UNL     1      22.676  -1.183  54.911  1.00  0.00     0.032 A 
HETATM   23  C13 UNL     1      21.318  -1.212  54.682  1.00  0.00     0.026 A 
HETATM   24  C14 UNL     1      20.790  -0.669  53.538  1.00  0.00     0.034 A 
HETATM   25 CL1  UNL     1      19.071  -0.708  53.252  1.00  0.00    -0.084 Cl
HETATM   26  C15 UNL     1      21.672  -0.103  52.647  1.00  0.00     0.026 A 
HETATM   27  C16 UNL     1      23.019  -0.095  52.915  1.00  0.00     0.032 A 
ENDBRANCH  19  21
ENDBRANCH   5  19
TORSDOF 7
ENDMDL
MODEL 7
REMARK VINA RESULT:      -7.3      3.680      5.655
REMARK  7 active torsions:
REMARK  status: ('A' for Active; 'I' for Inactive)
REMARK    1  A    between atoms: O1_2  and  C2_3 
REMARK    2  A    between atoms: C3_5  and  N2_6 
REMARK    3  A    between atoms: N2_6  and  C4_7 
REMARK    4  A    between atoms: C4_7  and  C5_8 
REMARK    5  A    between atoms: C5_8  and  N3_9 
REMARK    6  A    between atoms: C10_16  and  N5_17 
REMARK    7  A    between atoms: N5_17  and  C11_18 
ROOT
HETATM    1  C2  UNL     1      21.607   2.238  52.180  1.00  0.00     0.302 A 
HETATM    2  N1  UNL     1      22.191   3.468  52.167  1.00  0.00    -0.018 NA
HETATM    3  C3  UNL     1      23.447   3.648  52.609  1.00  0.00     0.742 A 
HETATM    4  N4  UNL     1      24.111   2.582  53.064  1.00  0.00     0.130 NA
HETATM    5  C10 UNL     1      23.608   1.344  53.110  1.00  0.00     0.746 A 
HETATM    6  N6  UNL     1      22.367   1.246  52.657  1.00  0.00    -0.017 NA
ENDROOT
BRANCH   3   7
HETATM    7  N2  UNL     1      24.084   4.918  52.608  1.00  0.00    -0.220 N 
HETATM    8  H4  UNL     1      24.962   5.053  53.154  1.00  0.00     0.177 HD
BRANCH   7   9
HETATM    9  C4  UNL     1      23.565   6.055  51.874  1.00  0.00     0.157 C 
BRANCH   9  10
HETATM   10  C5  UNL     1      24.508   6.495  50.793  1.00  0.00     0.137 C 
BRANCH  10  11
HETATM   11  N3  UNL     1      24.478   5.709  49.610  1.00  0.00    -0.407 N 
HETATM   12  C6  UNL     1      23.185   5.275  49.189  1.00  0.00     0.143 C 
HETATM   13  C7  UNL     1      23.314   3.952  48.475  1.00  0.00     0.187 C 
HETATM   14  O2  UNL     1      23.937   3.045  49.301  1.00  0.00    -0.388 OA
HETATM   15  C8  UNL     1      25.267   3.373  49.438  1.00  0.00     0.187 C 
HETATM   16  C9  UNL     1      25.554   4.847  49.342  1.00  0.00     0.143 C 
ENDBRANCH  10  11
ENDBRANCH   9  10
ENDBRANCH   7   9
ENDBRANCH   3   7
BRANCH   1  17
HETATM   17  O1  UNL     1      20.313   2.015  51.730  1.00  0.00    -0.323 OA
HETATM   18  C1  UNL     1      19.409   3.124  51.695  1.00  0.00     0.213 C 
ENDBRANCH   1  17
BRANCH   5  19
HETATM   19  N5  UNL     1      24.266   0.185  53.581  1.00  0.00    -0.188 N 
HETATM   20  H17 UNL     1      23.656  -0.608  53.917  1.00  0.00     0.184 HD
BRANCH  19  21
HETATM   21  C11 UNL     1      25.657  -0.059  53.663  1.00  0.00     0.049 A 
HETATM   22  C12 UNL     1      26.495   0.417  54.649  1.00  0.00     0.032 A 
HETATM   23  C13 UNL     1      27.848   0.157  54.695  1.00  0.00     0.026 A 
HETATM   24  C14 UNL     1      28.446  -0.613  53.730  1.00  0.00     0.034 A 
HETATM   25 CL1  UNL     1      30.157  -0.937  53.792  1.00  0.00    -0.084 Cl
HETATM   26  C15 UNL     1      27.638  -1.104  52.730  1.00  0.00     0.026 A 
HETATM   27  C16 UNL     1      26.295  -0.822  52.722  1.00  0.00     0.032 A 
ENDBRANCH  19  21
ENDBRANCH   5  19
TORSDOF 7
ENDMDL
MODEL 8
REMARK VINA RESULT:      -7.3      3.489      7.111
REMARK  7 active torsions:
REMARK  status: ('A' for Active; 'I' for Inactive)
REMARK    1  A    between atoms: O1_2  and  C2_3 
REMARK    2  A    between atoms: C3_5  and  N2_6 
REMARK    3  A    between atoms: N2_6  and  C4_7 
REMARK    4  A    between atoms: C4_7  and  C5_8 
REMARK    5  A    between atoms: C5_8  and  N3_9 
REMARK    6  A    between atoms: C10_16  and  N5_17 
REMARK    7  A    between atoms: N5_17  and  C11_18 
ROOT
HETATM    1  C2  UNL     1      24.059   3.951  50.416  1.00  0.00     0.302 A 
HETATM    2  N1  UNL     1      22.747   3.965  50.781  1.00  0.00    -0.018 NA
HETATM    3  C3  UNL     1      22.358   3.552  52.000  1.00  0.00     0.742 A 
HETATM    4  N4  UNL     1      23.298   3.126  52.848  1.00  0.00     0.130 NA
HETATM    5  C10 UNL     1      24.604   3.081  52.564  1.00  0.00     0.746 A 
HETATM    6  N6  UNL     1      24.909   3.503  51.347  1.00  0.00    -0.017 NA
ENDROOT
BRANCH   3   7
HETATM    7  N2  UNL     1      20.998   3.556  52.410  1.00  0.00    -0.220 N 
HETATM    8  H4  UNL     1      20.526   4.463  52.617  1.00  0.00     0.177 HD
BRANCH   7   9
HETATM    9  C4  UNL     1      20.219   2.342  52.557  1.00  0.00     0.157 C 
BRANCH   9  10
HETATM   10  C5  UNL     1      20.714   1.252  51.653  1.00  0.00     0.137 C 
BRANCH  10  11
HETATM   11  N3  UNL     1      20.969   0.009  52.291  1.00  0.00    -0.407 N 
HETATM   12  C6  UNL     1      19.957  -0.444  53.189  1.00  0.00     0.143 C 
HETATM   13  C7  UNL     1      20.596  -1.265  54.283  1.00  0.00     0.187 C 
HETATM   14  O2  UNL     1      21.566  -0.516  54.909  1.00  0.00    -0.388 OA
HETATM   15  C8  UNL     1      22.646  -0.355  54.070  1.00  0.00     0.187 C 
HETATM   16  C9  UNL     1      22.295  -0.331  52.607  1.00  0.00     0.143 C 
ENDBRANCH  10  11
ENDBRANCH   9  10
ENDBRANCH   7   9
ENDBRANCH   3   7
BRANCH   1  17
HETATM   17  O1  UNL     1      24.497   4.370  49.168  1.00  0.00    -0.323 OA
HETATM   18  C1  UNL     1      25.628   5.244  49.106  1.00  0.00     0.213 C 
ENDBRANCH   1  17
BRANCH   5  19
HETATM   19  N5  UNL     1      25.637   2.639  53.422  1.00  0.00    -0.188 N 
HETATM   20  H17 UNL     1      25.884   3.265  54.235  1.00  0.00     0.184 HD
BRANCH  19  21
HETATM   21  C11 UNL     1      26.397   1.448  53.337  1.00  0.00     0.049 A 
HETATM   22  C12 UNL     1      27.625   1.240  53.928  1.00  0.00     0.032 A 
HETATM   23  C13 UNL     1      28.336   0.064  53.821  1.00  0.00     0.026 A 
HETATM   24  C14 UNL     1      27.840  -0.990  53.097  1.00  0.00     0.034 A 
HETATM   25 CL1  UNL     1      28.743  -2.474  52.964  1.00  0.00    -0.084 Cl
HETATM   26  C15 UNL     1      26.616  -0.816  52.492  1.00  0.00     0.026 A 
HETATM   27  C16 UNL     1      25.940   0.372  52.625  1.00  0.00     0.032 A 
ENDBRANCH  19  21
ENDBRANCH   5  19
TORSDOF 7
ENDMDL
MODEL 9
REMARK VINA RESULT:      -7.2      3.645      5.490
REMARK  7 active torsions:
REMARK  status: ('A' for Active; 'I' for Inactive)
REMARK    1  A    between atoms: O1_2  and  C2_3 
REMARK    2  A    between atoms: C3_5  and  N2_6 
REMARK    3  A    between atoms: N2_6  and  C4_7 
REMARK    4  A    between atoms: C4_7  and  C5_8 
REMARK    5  A    between atoms: C5_8  and  N3_9 
REMARK    6  A    between atoms: C10_16  and  N5_17 
REMARK    7  A    between atoms: N5_17  and  C11_18 
ROOT
HETATM    1  C2  UNL     1      20.923   0.137  52.487  1.00  0.00     0.302 A 
HETATM    2  N1  UNL     1      21.267   1.016  51.505  1.00  0.00    -0.018 NA
HETATM    3  C3  UNL     1      22.545   1.387  51.319  1.00  0.00     0.742 A 
HETATM    4  N4  UNL     1      23.474   0.867  52.127  1.00  0.00     0.130 NA
HETATM    5  C10 UNL     1      23.216   0.001  53.111  1.00  0.00     0.746 A 
HETATM    6  N6  UNL     1      21.936  -0.317  53.233  1.00  0.00    -0.017 NA
ENDROOT
BRANCH   3   7
HETATM    7  N2  UNL     1      22.935   2.301  50.304  1.00  0.00    -0.220 N 
HETATM    8  H4  UNL     1      22.634   2.135  49.319  1.00  0.00     0.177 HD
BRANCH   7   9
HETATM    9  C4  UNL     1      23.745   3.473  50.572  1.00  0.00     0.157 C 
BRANCH   9  10
HETATM   10  C5  UNL     1      24.411   3.984  49.329  1.00  0.00     0.137 C 
BRANCH  10  11
HETATM   11  N3  UNL     1      24.489   5.398  49.223  1.00  0.00    -0.407 N 
HETATM   12  C6  UNL     1      25.647   5.998  49.802  1.00  0.00     0.143 C 
HETATM   13  C7  UNL     1      25.298   7.384  50.289  1.00  0.00     0.187 C 
HETATM   14  O2  UNL     1      24.243   7.306  51.168  1.00  0.00    -0.388 OA
HETATM   15  C8  UNL     1      23.087   6.994  50.487  1.00  0.00     0.187 C 
HETATM   16  C9  UNL     1      23.301   6.147  49.263  1.00  0.00     0.143 C 
ENDBRANCH  10  11
ENDBRANCH   9  10
ENDBRANCH   7   9
ENDBRANCH   3   7
BRANCH   1  17
HETATM   17  O1  UNL     1      19.615  -0.269  52.708  1.00  0.00    -0.323 OA
HETATM   18  C1  UNL     1      18.671  -0.122  51.642  1.00  0.00     0.213 C 
ENDBRANCH   1  17
BRANCH   5  19
HETATM   19  N5  UNL     1      24.159  -0.577  53.992  1.00  0.00    -0.188 N 
HETATM   20  H17 UNL     1      23.778  -1.126  54.808  1.00  0.00     0.184 HD
BRANCH  19  21
HETATM   21  C11 UNL     1      25.572  -0.517  53.925  1.00  0.00     0.049 A 
HETATM   22  C12 UNL     1      26.385   0.162  54.807  1.00  0.00     0.032 A 
HETATM   23  C13 UNL     1      27.760   0.198  54.707  1.00  0.00     0.026 A 
HETATM   24  C14 UNL     1      28.405  -0.462  53.693  1.00  0.00     0.034 A 
HETATM   25 CL1  UNL     1      30.143  -0.413  53.571  1.00  0.00    -0.084 Cl
HETATM   26  C15 UNL     1      27.623  -1.150  52.794  1.00  0.00     0.026 A 
HETATM   27  C16 UNL     1      26.257  -1.160  52.930  1.00  0.00     0.032 A 
ENDBRANCH  19  21
ENDBRANCH   5  19
TORSDOF 7
ENDMDL
