MODEL 1
REMARK VINA RESULT:      -7.5      0.000      0.000
REMARK  3 active torsions:
REMARK  status: ('A' for Active; 'I' for Inactive)
REMARK    1  A    between atoms: C2_2  and  O1_3 
REMARK    2  A    between atoms: O1_3  and  C3_4 
REMARK    3  A    between atoms: C3_4  and  C4_6 
ROOT
HETATM    1  C4  UNL     1      26.898   0.534  52.167  1.00  0.00     0.095 C 
HETATM    2  C5  UNL     1      26.062   1.511  52.314  1.00  0.00     0.019 C 
HETATM    3  C6  UNL     1      25.004   1.205  53.349  1.00  0.00     0.073 C 
HETATM    4  C7  UNL     1      23.678   1.041  52.575  1.00  0.00     0.005 C 
HETATM    5  C8  UNL     1      23.325   1.687  51.486  1.00  0.00     0.034 A 
HETATM    6  C9  UNL     1      23.568   2.656  50.452  1.00  0.00     0.118 A 
HETATM    7  C10 UNL     1      23.956   3.661  49.657  1.00  0.00     0.064 A 
HETATM    8  C11 UNL     1      25.008   4.627  50.249  1.00  0.00     0.139 C 
HETATM    9  N1  UNL     1      25.140   3.948  51.580  1.00  0.00    -0.356 N 
HETATM   10  C12 UNL     1      25.789   2.691  51.553  1.00  0.00     0.248 C 
HETATM   11  O3  UNL     1      26.290   2.477  50.438  1.00  0.00    -0.268 OA
HETATM   12  C13 UNL     1      22.976   2.902  48.898  1.00  0.00     0.234 A 
HETATM   13  F1  UNL     1      23.082   3.744  47.784  1.00  0.00    -0.214 F 
HETATM   14  N2  UNL     1      22.327   1.867  49.235  1.00  0.00    -0.170 NA
HETATM   15  N3  UNL     1      22.412   1.204  50.439  1.00  0.00    -0.283 N 
HETATM   16  H13 UNL     1      25.034   3.861  52.598  1.00  0.00     0.162 HD
HETATM   17  H14 UNL     1      21.824   0.316  50.639  1.00  0.00     0.188 HD
ENDROOT
BRANCH   1  18
HETATM   18  C3  UNL     1      26.809  -0.675  52.904  1.00  0.00     0.283 C 
HETATM   19  O2  UNL     1      26.552  -1.805  53.348  1.00  0.00    -0.260 OA
BRANCH  18  20
HETATM   20  O1  UNL     1      27.603  -0.697  54.033  1.00  0.00    -0.319 OA
BRANCH  20  21
HETATM   21  C2  UNL     1      28.858  -0.096  54.158  1.00  0.00     0.174 C 
HETATM   22  C1  UNL     1      29.987  -0.947  53.648  1.00  0.00     0.034 C 
ENDBRANCH  20  21
ENDBRANCH  18  20
ENDBRANCH   1  18
TORSDOF 3
ENDMDL
MODEL 2
REMARK VINA RESULT:      -7.3      2.654      3.728
REMARK  3 active torsions:
REMARK  status: ('A' for Active; 'I' for Inactive)
REMARK    1  A    between atoms: C2_2  and  O1_3 
REMARK    2  A    between atoms: O1_3  and  C3_4 
REMARK    3  A    between atoms: C3_4  and  C4_6 
ROOT
HETATM    1  C4  UNL     1      26.113   0.025  54.796  1.00  0.00     0.095 C 
HETATM    2  C5  UNL     1      25.385  -0.252  53.762  1.00  0.00     0.019 C 
HETATM    3  C6  UNL     1      26.101   0.040  52.465  1.00  0.00     0.073 C 
HETATM    4  C7  UNL     1      25.383   1.255  51.838  1.00  0.00     0.005 C 
HETATM    5  C8  UNL     1      24.102   1.534  51.927  1.00  0.00     0.034 A 
HETATM    6  C9  UNL     1      22.768   1.239  52.375  1.00  0.00     0.118 A 
HETATM    7  C10 UNL     1      21.610   0.724  52.806  1.00  0.00     0.064 A 
HETATM    8  C11 UNL     1      21.602  -0.799  53.072  1.00  0.00     0.139 C 
HETATM    9  N1  UNL     1      23.031  -1.052  52.691  1.00  0.00    -0.356 N 
HETATM   10  C12 UNL     1      23.994  -0.539  53.592  1.00  0.00     0.248 C 
HETATM   11  O3  UNL     1      23.453  -0.131  54.632  1.00  0.00    -0.268 OA
HETATM   12  C13 UNL     1      21.375   2.146  52.624  1.00  0.00     0.234 A 
HETATM   13  F1  UNL     1      20.041   2.052  53.038  1.00  0.00    -0.214 F 
HETATM   14  N2  UNL     1      22.173   3.047  52.226  1.00  0.00    -0.170 NA
HETATM   15  N3  UNL     1      23.491   2.871  51.867  1.00  0.00    -0.283 N 
HETATM   16  H13 UNL     1      23.789  -1.424  52.107  1.00  0.00     0.162 HD
HETATM   17  H14 UNL     1      24.106   3.703  51.545  1.00  0.00     0.188 HD
ENDROOT
BRANCH   1  18
HETATM   18  C3  UNL     1      27.430   0.542  54.695  1.00  0.00     0.283 C 
HETATM   19  O2  UNL     1      28.451   1.235  54.556  1.00  0.00    -0.260 OA
BRANCH  18  20
HETATM   20  O1  UNL     1      28.416  -0.404  54.895  1.00  0.00    -0.319 OA
BRANCH  20  21
HETATM   21  C2  UNL     1      29.449  -0.704  54.004  1.00  0.00     0.174 C 
HETATM   22  C1  UNL     1      29.232  -1.978  53.237  1.00  0.00     0.034 C 
ENDBRANCH  20  21
ENDBRANCH  18  20
ENDBRANCH   1  18
TORSDOF 3
ENDMDL
MODEL 3
REMARK VINA RESULT:      -7.2      2.198      3.183
REMARK  3 active torsions:
REMARK  status: ('A' for Active; 'I' for Inactive)
REMARK    1  A    between atoms: C2_2  and  O1_3 
REMARK    2  A    between atoms: O1_3  and  C3_4 
REMARK    3  A    between atoms: C3_4  and  C4_6 
ROOT
HETATM    1  C4  UNL     1      26.625   1.994  53.616  1.00  0.00     0.095 C 
HETATM    2  C5  UNL     1      25.913   1.866  52.543  1.00  0.00     0.019 C 
HETATM    3  C6  UNL     1      26.737   2.039  51.288  1.00  0.00     0.073 C 
HETATM    4  C7  UNL     1      26.282   3.371  50.653  1.00  0.00     0.005 C 
HETATM    5  C8  UNL     1      25.069   3.876  50.685  1.00  0.00     0.034 A 
HETATM    6  C9  UNL     1      23.683   3.822  51.061  1.00  0.00     0.118 A 
HETATM    7  C10 UNL     1      22.430   3.521  51.425  1.00  0.00     0.064 A 
HETATM    8  C11 UNL     1      22.134   2.021  51.659  1.00  0.00     0.139 C 
HETATM    9  N1  UNL     1      23.512   1.518  51.342  1.00  0.00    -0.356 N 
HETATM   10  C12 UNL     1      24.504   1.838  52.299  1.00  0.00     0.248 C 
HETATM   11  O3  UNL     1      23.992   2.324  53.320  1.00  0.00    -0.268 OA
HETATM   12  C13 UNL     1      22.466   4.964  51.261  1.00  0.00     0.234 A 
HETATM   13  F1  UNL     1      21.116   5.107  51.609  1.00  0.00    -0.214 F 
HETATM   14  N2  UNL     1      23.432   5.710  50.921  1.00  0.00    -0.170 NA
HETATM   15  N3  UNL     1      24.714   5.303  50.623  1.00  0.00    -0.283 N 
HETATM   16  H13 UNL     1      24.220   1.021  50.788  1.00  0.00     0.162 HD
HETATM   17  H14 UNL     1      25.484   6.013  50.350  1.00  0.00     0.188 HD
ENDROOT
BRANCH   1  18
HETATM   18  C3  UNL     1      28.017   2.265  53.590  1.00  0.00     0.283 C 
HETATM   19  O2  UNL     1      29.165   2.684  53.367  1.00  0.00    -0.260 OA
BRANCH  18  20
HETATM   20  O1  UNL     1      28.746   1.519  54.493  1.00  0.00    -0.319 OA
BRANCH  20  21
HETATM   21  C2  UNL     1      28.571   0.157  54.754  1.00  0.00     0.174 C 
HETATM   22  C1  UNL     1      29.337  -0.738  53.821  1.00  0.00     0.034 C 
ENDBRANCH  20  21
ENDBRANCH  18  20
ENDBRANCH   1  18
TORSDOF 3
ENDMDL
MODEL 4
REMARK VINA RESULT:      -7.2      3.334      6.129
REMARK  3 active torsions:
REMARK  status: ('A' for Active; 'I' for Inactive)
REMARK    1  A    between atoms: C2_2  and  O1_3 
REMARK    2  A    between atoms: O1_3  and  C3_4 
REMARK    3  A    between atoms: C3_4  and  C4_6 
ROOT
HETATM    1  C4  UNL     1      24.750   2.246  50.718  1.00  0.00     0.095 C 
HETATM    2  C5  UNL     1      24.919   1.555  51.798  1.00  0.00     0.019 C 
HETATM    3  C6  UNL     1      24.410   2.278  53.023  1.00  0.00     0.073 C 
HETATM    4  C7  UNL     1      25.658   2.663  53.847  1.00  0.00     0.005 C 
HETATM    5  C8  UNL     1      26.774   1.975  53.940  1.00  0.00     0.034 A 
HETATM    6  C9  UNL     1      27.589   0.832  53.628  1.00  0.00     0.118 A 
HETATM    7  C10 UNL     1      28.125  -0.346  53.290  1.00  0.00     0.064 A 
HETATM    8  C11 UNL     1      27.126  -1.453  52.879  1.00  0.00     0.139 C 
HETATM    9  N1  UNL     1      25.878  -0.640  53.060  1.00  0.00    -0.356 N 
HETATM   10  C12 UNL     1      25.685   0.386  52.105  1.00  0.00     0.248 C 
HETATM   11  O3  UNL     1      26.509   0.292  51.182  1.00  0.00    -0.268 OA
HETATM   12  C13 UNL     1      29.239   0.518  53.638  1.00  0.00     0.234 A 
HETATM   13  F1  UNL     1      30.187  -0.480  53.379  1.00  0.00    -0.214 F 
HETATM   14  N2  UNL     1      29.229   1.725  54.024  1.00  0.00    -0.170 NA
HETATM   15  N3  UNL     1      28.116   2.517  54.204  1.00  0.00    -0.283 N 
HETATM   16  H13 UNL     1      24.993  -0.376  53.509  1.00  0.00     0.162 HD
HETATM   17  H14 UNL     1      28.201   3.546  54.529  1.00  0.00     0.188 HD
ENDROOT
BRANCH   1  18
HETATM   18  C3  UNL     1      24.153   3.533  50.710  1.00  0.00     0.283 C 
HETATM   19  O2  UNL     1      23.395   4.516  50.744  1.00  0.00    -0.260 OA
BRANCH  18  20
HETATM   20  O1  UNL     1      25.054   4.563  50.525  1.00  0.00    -0.319 OA
BRANCH  20  21
HETATM   21  C2  UNL     1      25.313   5.210  49.314  1.00  0.00     0.174 C 
HETATM   22  C1  UNL     1      26.750   5.126  48.882  1.00  0.00     0.034 C 
ENDBRANCH  20  21
ENDBRANCH  18  20
ENDBRANCH   1  18
TORSDOF 3
ENDMDL
MODEL 5
REMARK VINA RESULT:      -6.7      3.888      6.276
REMARK  3 active torsions:
REMARK  status: ('A' for Active; 'I' for Inactive)
REMARK    1  A    between atoms: C2_2  and  O1_3 
REMARK    2  A    between atoms: O1_3  and  C3_4 
REMARK    3  A    between atoms: C3_4  and  C4_6 
ROOT
HETATM    1  C4  UNL     1      22.637   3.176  52.415  1.00  0.00     0.095 C 
HETATM    2  C5  UNL     1      23.353   2.177  52.010  1.00  0.00     0.019 C 
HETATM    3  C6  UNL     1      22.506   0.981  51.643  1.00  0.00     0.073 C 
HETATM    4  C7  UNL     1      22.784  -0.092  52.717  1.00  0.00     0.005 C 
HETATM    5  C8  UNL     1      23.924  -0.294  53.341  1.00  0.00     0.034 A 
HETATM    6  C9  UNL     1      25.308   0.009  53.582  1.00  0.00     0.118 A 
HETATM    7  C10 UNL     1      26.591   0.392  53.572  1.00  0.00     0.064 A 
HETATM    8  C11 UNL     1      27.076   1.107  52.290  1.00  0.00     0.139 C 
HETATM    9  N1  UNL     1      25.771   1.050  51.552  1.00  0.00    -0.356 N 
HETATM   10  C12 UNL     1      24.753   1.888  52.064  1.00  0.00     0.248 C 
HETATM   11  O3  UNL     1      25.205   2.656  52.928  1.00  0.00    -0.268 OA
HETATM   12  C13 UNL     1      26.373  -0.252  54.856  1.00  0.00     0.234 A 
HETATM   13  F1  UNL     1      27.695  -0.042  55.267  1.00  0.00    -0.214 F 
HETATM   14  N2  UNL     1      25.317  -0.778  55.321  1.00  0.00    -0.170 NA
HETATM   15  N3  UNL     1      24.096  -0.855  54.690  1.00  0.00    -0.283 N 
HETATM   16  H13 UNL     1      25.128   0.734  50.816  1.00  0.00     0.162 HD
HETATM   17  H14 UNL     1      23.240  -1.316  55.168  1.00  0.00     0.188 HD
ENDROOT
BRANCH   1  18
HETATM   18  C3  UNL     1      21.222   3.129  52.496  1.00  0.00     0.283 C 
HETATM   19  O2  UNL     1      20.031   2.862  52.727  1.00  0.00    -0.260 OA
BRANCH  18  20
HETATM   20  O1  UNL     1      20.590   4.135  51.795  1.00  0.00    -0.319 OA
BRANCH  20  21
HETATM   21  C2  UNL     1      21.087   4.765  50.650  1.00  0.00     0.174 C 
HETATM   22  C1  UNL     1      21.413   6.218  50.856  1.00  0.00     0.034 C 
ENDBRANCH  20  21
ENDBRANCH  18  20
ENDBRANCH   1  18
TORSDOF 3
ENDMDL
MODEL 6
REMARK VINA RESULT:      -6.6      3.625      6.154
REMARK  3 active torsions:
REMARK  status: ('A' for Active; 'I' for Inactive)
REMARK    1  A    between atoms: C2_2  and  O1_3 
REMARK    2  A    between atoms: O1_3  and  C3_4 
REMARK    3  A    between atoms: C3_4  and  C4_6 
ROOT
HETATM    1  C4  UNL     1      23.856   3.983  52.431  1.00  0.00     0.095 C 
HETATM    2  C5  UNL     1      24.110   2.774  52.044  1.00  0.00     0.019 C 
HETATM    3  C6  UNL     1      23.108   2.279  51.028  1.00  0.00     0.073 C 
HETATM    4  C7  UNL     1      22.277   1.187  51.736  1.00  0.00     0.005 C 
HETATM    5  C8  UNL     1      22.710   0.351  52.653  1.00  0.00     0.034 A 
HETATM    6  C9  UNL     1      23.748  -0.188  53.490  1.00  0.00     0.118 A 
HETATM    7  C10 UNL     1      24.872  -0.593  54.093  1.00  0.00     0.064 A 
HETATM    8  C11 UNL     1      26.194  -0.215  53.388  1.00  0.00     0.139 C 
HETATM    9  N1  UNL     1      25.575   0.506  52.226  1.00  0.00    -0.356 N 
HETATM   10  C12 UNL     1      24.972   1.746  52.540  1.00  0.00     0.248 C 
HETATM   11  O3  UNL     1      25.239   2.086  53.703  1.00  0.00    -0.268 OA
HETATM   12  C13 UNL     1      23.777  -1.061  54.925  1.00  0.00     0.234 A 
HETATM   13  F1  UNL     1      24.642  -1.650  55.856  1.00  0.00    -0.214 F 
HETATM   14  N2  UNL     1      22.527  -0.924  54.760  1.00  0.00    -0.170 NA
HETATM   15  N3  UNL     1      21.907  -0.272  53.717  1.00  0.00    -0.283 N 
HETATM   16  H13 UNL     1      25.318   0.640  51.241  1.00  0.00     0.162 HD
HETATM   17  H14 UNL     1      20.828  -0.194  53.660  1.00  0.00     0.188 HD
ENDROOT
BRANCH   1  18
HETATM   18  C3  UNL     1      22.757   4.735  51.943  1.00  0.00     0.283 C 
HETATM   19  O2  UNL     1      21.648   5.231  51.688  1.00  0.00    -0.260 OA
BRANCH  18  20
HETATM   20  O1  UNL     1      23.108   5.692  51.012  1.00  0.00    -0.319 OA
BRANCH  20  21
HETATM   21  C2  UNL     1      24.158   6.605  51.140  1.00  0.00     0.174 C 
HETATM   22  C1  UNL     1      23.816   7.987  50.659  1.00  0.00     0.034 C 
ENDBRANCH  20  21
ENDBRANCH  18  20
ENDBRANCH   1  18
TORSDOF 3
ENDMDL
MODEL 7
REMARK VINA RESULT:      -6.6      3.371      5.816
REMARK  3 active torsions:
REMARK  status: ('A' for Active; 'I' for Inactive)
REMARK    1  A    between atoms: C2_2  and  O1_3 
REMARK    2  A    between atoms: O1_3  and  C3_4 
REMARK    3  A    between atoms: C3_4  and  C4_6 
ROOT
HETATM    1  C4  UNL     1      22.776   3.694  49.663  1.00  0.00     0.095 C 
HETATM    2  C5  UNL     1      22.505   3.330  50.875  1.00  0.00     0.019 C 
HETATM    3  C6  UNL     1      22.655   4.468  51.858  1.00  0.00     0.073 C 
HETATM    4  C7  UNL     1      23.889   4.133  52.723  1.00  0.00     0.005 C 
HETATM    5  C8  UNL     1      24.287   2.932  53.082  1.00  0.00     0.034 A 
HETATM    6  C9  UNL     1      24.139   1.502  53.108  1.00  0.00     0.118 A 
HETATM    7  C10 UNL     1      23.757   0.220  53.083  1.00  0.00     0.064 A 
HETATM    8  C11 UNL     1      22.259  -0.036  52.797  1.00  0.00     0.139 C 
HETATM    9  N1  UNL     1      21.857   1.403  52.662  1.00  0.00    -0.356 N 
HETATM   10  C12 UNL     1      22.334   2.056  51.501  1.00  0.00     0.248 C 
HETATM   11  O3  UNL     1      22.850   1.242  50.718  1.00  0.00    -0.268 OA
HETATM   12  C13 UNL     1      25.181   0.210  53.370  1.00  0.00     0.234 A 
HETATM   13  F1  UNL     1      25.231  -1.189  53.432  1.00  0.00    -0.214 F 
HETATM   14  N2  UNL     1      25.981   1.185  53.496  1.00  0.00    -0.170 NA
HETATM   15  N3  UNL     1      25.667   2.521  53.381  1.00  0.00    -0.283 N 
HETATM   16  H13 UNL     1      21.384   2.270  52.944  1.00  0.00     0.162 HD
HETATM   17  H14 UNL     1      26.420   3.291  53.495  1.00  0.00     0.188 HD
ENDROOT
BRANCH   1  18
HETATM   18  C3  UNL     1      23.166   5.015  49.323  1.00  0.00     0.283 C 
HETATM   19  O2  UNL     1      23.249   6.235  49.108  1.00  0.00    -0.260 OA
BRANCH  18  20
HETATM   20  O1  UNL     1      24.459   5.108  48.849  1.00  0.00    -0.319 OA
BRANCH  20  21
HETATM   21  C2  UNL     1      25.609   5.222  49.636  1.00  0.00     0.174 C 
HETATM   22  C1  UNL     1      26.417   3.958  49.707  1.00  0.00     0.034 C 
ENDBRANCH  20  21
ENDBRANCH  18  20
ENDBRANCH   1  18
TORSDOF 3
ENDMDL
MODEL 8
REMARK VINA RESULT:      -6.5      8.269     10.298
REMARK  3 active torsions:
REMARK  status: ('A' for Active; 'I' for Inactive)
REMARK    1  A    between atoms: C2_2  and  O1_3 
REMARK    2  A    between atoms: O1_3  and  C3_4 
REMARK    3  A    between atoms: C3_4  and  C4_6 
ROOT
HETATM    1  C4  UNL     1      30.014   5.416  48.119  1.00  0.00     0.095 C 
HETATM    2  C5  UNL     1      31.262   5.746  48.220  1.00  0.00     0.019 C 
HETATM    3  C6  UNL     1      31.486   7.218  47.965  1.00  0.00     0.073 C 
HETATM    4  C7  UNL     1      32.240   7.313  46.621  1.00  0.00     0.005 C 
HETATM    5  C8  UNL     1      33.118   6.452  46.156  1.00  0.00     0.034 A 
HETATM    6  C9  UNL     1      33.899   5.251  46.271  1.00  0.00     0.118 A 
HETATM    7  C10 UNL     1      34.590   4.162  46.629  1.00  0.00     0.064 A 
HETATM    8  C11 UNL     1      34.664   3.874  48.146  1.00  0.00     0.139 C 
HETATM    9  N1  UNL     1      33.853   5.055  48.590  1.00  0.00    -0.356 N 
HETATM   10  C12 UNL     1      32.474   4.988  48.283  1.00  0.00     0.248 C 
HETATM   11  O3  UNL     1      32.170   3.862  47.860  1.00  0.00    -0.268 OA
HETATM   12  C13 UNL     1      34.664   4.228  45.180  1.00  0.00     0.234 A 
HETATM   13  F1  UNL     1      35.436   3.062  45.095  1.00  0.00    -0.214 F 
HETATM   14  N2  UNL     1      34.167   5.084  44.389  1.00  0.00    -0.170 NA
HETATM   15  N3  UNL     1      33.414   6.183  44.741  1.00  0.00    -0.283 N 
HETATM   16  H13 UNL     1      33.699   5.967  49.039  1.00  0.00     0.162 HD
HETATM   17  H14 UNL     1      33.019   6.861  43.994  1.00  0.00     0.188 HD
ENDROOT
BRANCH   1  18
HETATM   18  C3  UNL     1      28.994   6.349  47.802  1.00  0.00     0.283 C 
HETATM   19  O2  UNL     1      28.307   7.299  47.391  1.00  0.00    -0.260 OA
BRANCH  18  20
HETATM   20  O1  UNL     1      27.758   6.017  48.317  1.00  0.00    -0.319 OA
BRANCH  20  21
HETATM   21  C2  UNL     1      27.378   4.751  48.772  1.00  0.00     0.174 C 
HETATM   22  C1  UNL     1      25.988   4.707  49.341  1.00  0.00     0.034 C 
ENDBRANCH  20  21
ENDBRANCH  18  20
ENDBRANCH   1  18
TORSDOF 3
ENDMDL
MODEL 9
REMARK VINA RESULT:      -6.5      2.637      3.814
REMARK  3 active torsions:
REMARK  status: ('A' for Active; 'I' for Inactive)
REMARK    1  A    between atoms: C2_2  and  O1_3 
REMARK    2  A    between atoms: O1_3  and  C3_4 
REMARK    3  A    between atoms: C3_4  and  C4_6 
ROOT
HETATM    1  C4  UNL     1      24.024   2.320  53.165  1.00  0.00     0.095 C 
HETATM    2  C5  UNL     1      23.593   2.800  52.043  1.00  0.00     0.019 C 
HETATM    3  C6  UNL     1      24.226   2.118  50.852  1.00  0.00     0.073 C 
HETATM    4  C7  UNL     1      25.154   3.164  50.198  1.00  0.00     0.005 C 
HETATM    5  C8  UNL     1      24.954   4.463  50.148  1.00  0.00     0.034 A 
HETATM    6  C9  UNL     1      24.170   5.636  50.424  1.00  0.00     0.118 A 
HETATM    7  C10 UNL     1      23.245   6.565  50.695  1.00  0.00     0.064 A 
HETATM    8  C11 UNL     1      21.802   6.048  50.892  1.00  0.00     0.139 C 
HETATM    9  N1  UNL     1      22.103   4.595  50.670  1.00  0.00    -0.356 N 
HETATM   10  C12 UNL     1      22.848   3.971  51.698  1.00  0.00     0.248 C 
HETATM   11  O3  UNL     1      22.951   4.718  52.685  1.00  0.00    -0.268 OA
HETATM   12  C13 UNL     1      24.502   7.279  50.547  1.00  0.00     0.234 A 
HETATM   13  F1  UNL     1      23.908   8.522  50.799  1.00  0.00    -0.214 F 
HETATM   14  N2  UNL     1      25.656   6.826  50.284  1.00  0.00    -0.170 NA
HETATM   15  N3  UNL     1      25.989   5.506  50.075  1.00  0.00    -0.283 N 
HETATM   16  H13 UNL     1      22.072   3.702  50.163  1.00  0.00     0.162 HD
HETATM   17  H14 UNL     1      27.008   5.205  49.864  1.00  0.00     0.188 HD
ENDROOT
BRANCH   1  18
HETATM   18  C3  UNL     1      24.980   1.275  53.241  1.00  0.00     0.283 C 
HETATM   19  O2  UNL     1      25.606   0.202  53.215  1.00  0.00    -0.260 OA
BRANCH  18  20
HETATM   20  O1  UNL     1      26.219   1.687  53.687  1.00  0.00    -0.319 OA
BRANCH  20  21
HETATM   21  C2  UNL     1      27.429   1.511  53.009  1.00  0.00     0.174 C 
HETATM   22  C1  UNL     1      28.518   2.437  53.471  1.00  0.00     0.034 C 
ENDBRANCH  20  21
ENDBRANCH  18  20
ENDBRANCH   1  18
TORSDOF 3
ENDMDL
