MODEL 1
REMARK VINA RESULT:      -9.3      0.000      0.000
REMARK  4 active torsions:
REMARK  status: ('A' for Active; 'I' for Inactive)
REMARK    1  A    between atoms: O1_1  and  C1_2 
REMARK    2  A    between atoms: C6_7  and  C7_8 
REMARK    3  A    between atoms: C12_15  and  N3_16 
REMARK    4  A    between atoms: N3_16  and  C13_17 
ROOT
HETATM    1  C7  UNL     1      22.633   1.107  51.736  1.00  0.00     0.045 A 
HETATM    2  C8  UNL     1      22.208   1.569  50.574  1.00  0.00     0.033 A 
HETATM    3  C9  UNL     1      22.968   2.448  49.715  1.00  0.00     0.036 A 
HETATM    4  C10 UNL     1      24.190   2.892  50.002  1.00  0.00     0.088 A 
HETATM    5  N1  UNL     1      24.962   3.758  49.177  1.00  0.00    -0.242 NA
HETATM    6  C11 UNL     1      26.157   4.145  49.538  1.00  0.00     0.209 A 
HETATM    7  N2  UNL     1      26.678   3.675  50.797  1.00  0.00    -0.335 N 
HETATM    8  C12 UNL     1      25.952   2.809  51.665  1.00  0.00     0.136 A 
HETATM    9  C19 UNL     1      24.746   2.423  51.290  1.00  0.00     0.106 A 
HETATM   10  N4  UNL     1      23.917   1.565  52.054  1.00  0.00    -0.351 N 
HETATM   11  H9  UNL     1      27.635   3.995  51.071  1.00  0.00     0.168 HD
HETATM   12  H15 UNL     1      24.373   1.277  52.943  1.00  0.00     0.166 HD
ENDROOT
BRANCH   8  13
HETATM   13  N3  UNL     1      26.474   2.351  52.901  1.00  0.00    -0.340 N 
HETATM   14  H10 UNL     1      26.013   2.906  53.637  1.00  0.00     0.167 HD
BRANCH  13  15
HETATM   15  C13 UNL     1      27.441   1.329  53.100  1.00  0.00     0.035 A 
HETATM   16  C14 UNL     1      28.685   1.687  53.547  1.00  0.00     0.029 A 
HETATM   17  C15 UNL     1      29.584   0.632  53.720  1.00  0.00     0.004 A 
HETATM   18  C16 UNL     1      29.219  -0.678  53.450  1.00  0.00     0.024 A 
HETATM   19  C17 UNL     1      27.949  -0.963  53.002  1.00  0.00     0.036 A 
HETATM   20 CL1  UNL     1      27.466  -2.620  52.654  1.00  0.00    -0.084 Cl
HETATM   21  C18 UNL     1      27.009   0.052  52.811  1.00  0.00     0.053 A 
ENDBRANCH  13  15
ENDBRANCH   8  13
BRANCH   1  22
HETATM   22  C6  UNL     1      21.796   0.231  52.524  1.00  0.00     0.024 A 
HETATM   23  C1  UNL     1      22.212  -0.674  53.465  1.00  0.00     0.078 A 
HETATM   24  C2  UNL     1      21.405  -1.505  54.210  1.00  0.00     0.037 A 
HETATM   25  C3  UNL     1      20.040  -1.444  54.015  1.00  0.00     0.003 A 
HETATM   26  C4  UNL     1      19.566  -0.550  53.079  1.00  0.00     0.001 A 
HETATM   27  C5  UNL     1      20.431   0.253  52.367  1.00  0.00     0.016 A 
BRANCH  23  28
HETATM   28  O1  UNL     1      23.556  -0.817  53.740  1.00  0.00    -0.360 OA
HETATM   29  H1  UNL     1      23.791  -1.137  54.688  1.00  0.00     0.217 HD
ENDBRANCH  23  28
ENDBRANCH   1  22
TORSDOF 4
ENDMDL
MODEL 2
REMARK VINA RESULT:      -9.2      2.754      6.289
REMARK  4 active torsions:
REMARK  status: ('A' for Active; 'I' for Inactive)
REMARK    1  A    between atoms: O1_1  and  C1_2 
REMARK    2  A    between atoms: C6_7  and  C7_8 
REMARK    3  A    between atoms: C12_15  and  N3_16 
REMARK    4  A    between atoms: N3_16  and  C13_17 
ROOT
HETATM    1  C7  UNL     1      25.541   0.633  53.179  1.00  0.00     0.045 A 
HETATM    2  C8  UNL     1      24.663  -0.337  53.356  1.00  0.00     0.033 A 
HETATM    3  C9  UNL     1      23.233  -0.183  53.216  1.00  0.00     0.036 A 
HETATM    4  C10 UNL     1      22.638   0.962  52.890  1.00  0.00     0.088 A 
HETATM    5  N1  UNL     1      21.234   1.144  52.745  1.00  0.00    -0.242 NA
HETATM    6  C11 UNL     1      20.734   2.308  52.421  1.00  0.00     0.209 A 
HETATM    7  N2  UNL     1      21.641   3.408  52.214  1.00  0.00    -0.335 N 
HETATM    8  C12 UNL     1      23.055   3.287  52.345  1.00  0.00     0.136 A 
HETATM    9  C19 UNL     1      23.549   2.107  52.672  1.00  0.00     0.106 A 
HETATM   10  N4  UNL     1      24.932   1.847  52.835  1.00  0.00    -0.351 N 
HETATM   11  H9  UNL     1      21.225   4.332  51.956  1.00  0.00     0.168 HD
HETATM   12  H15 UNL     1      25.508   2.695  52.667  1.00  0.00     0.166 HD
ENDROOT
BRANCH   8  13
HETATM   13  N3  UNL     1      23.939   4.376  52.138  1.00  0.00    -0.340 N 
HETATM   14  H10 UNL     1      24.252   4.680  53.072  1.00  0.00     0.167 HD
BRANCH  13  15
HETATM   15  C13 UNL     1      24.325   4.945  50.894  1.00  0.00     0.035 A 
HETATM   16  C14 UNL     1      23.447   5.785  50.262  1.00  0.00     0.029 A 
HETATM   17  C15 UNL     1      23.892   6.307  49.045  1.00  0.00     0.004 A 
HETATM   18  C16 UNL     1      25.140   5.982  48.534  1.00  0.00     0.024 A 
HETATM   19  C17 UNL     1      25.970   5.129  49.227  1.00  0.00     0.036 A 
HETATM   20 CL1  UNL     1      27.558   4.706  48.595  1.00  0.00    -0.084 Cl
HETATM   21  C18 UNL     1      25.577   4.578  50.448  1.00  0.00     0.053 A 
ENDBRANCH  13  15
ENDBRANCH   8  13
BRANCH   1  22
HETATM   22  C6  UNL     1      26.953   0.378  53.342  1.00  0.00     0.024 A 
HETATM   23  C1  UNL     1      27.912   1.282  53.720  1.00  0.00     0.078 A 
HETATM   24  C2  UNL     1      29.257   1.028  53.873  1.00  0.00     0.037 A 
HETATM   25  C3  UNL     1      29.716  -0.250  53.631  1.00  0.00     0.003 A 
HETATM   26  C4  UNL     1      28.795  -1.201  53.247  1.00  0.00     0.001 A 
HETATM   27  C5  UNL     1      27.461  -0.878  53.113  1.00  0.00     0.016 A 
BRANCH  23  28
HETATM   28  O1  UNL     1      27.563   2.590  53.987  1.00  0.00    -0.360 OA
HETATM   29  H1  UNL     1      28.182   3.100  54.630  1.00  0.00     0.217 HD
ENDBRANCH  23  28
ENDBRANCH   1  22
TORSDOF 4
ENDMDL
MODEL 3
REMARK VINA RESULT:      -8.9      2.541      6.095
REMARK  4 active torsions:
REMARK  status: ('A' for Active; 'I' for Inactive)
REMARK    1  A    between atoms: O1_1  and  C1_2 
REMARK    2  A    between atoms: C6_7  and  C7_8 
REMARK    3  A    between atoms: C12_15  and  N3_16 
REMARK    4  A    between atoms: N3_16  and  C13_17 
ROOT
HETATM    1  C7  UNL     1      25.302   4.958  49.477  1.00  0.00     0.045 A 
HETATM    2  C8  UNL     1      24.047   4.825  49.087  1.00  0.00     0.033 A 
HETATM    3  C9  UNL     1      23.074   3.974  49.734  1.00  0.00     0.036 A 
HETATM    4  C10 UNL     1      23.337   3.225  50.802  1.00  0.00     0.088 A 
HETATM    5  N1  UNL     1      22.401   2.378  51.460  1.00  0.00    -0.242 NA
HETATM    6  C11 UNL     1      22.747   1.675  52.507  1.00  0.00     0.209 A 
HETATM    7  N2  UNL     1      24.104   1.777  52.982  1.00  0.00    -0.335 N 
HETATM    8  C12 UNL     1      25.084   2.607  52.365  1.00  0.00     0.136 A 
HETATM    9  C19 UNL     1      24.724   3.313  51.309  1.00  0.00     0.106 A 
HETATM   10  N4  UNL     1      25.596   4.176  50.600  1.00  0.00    -0.351 N 
HETATM   11  H9  UNL     1      24.364   1.208  53.820  1.00  0.00     0.168 HD
HETATM   12  H15 UNL     1      26.551   4.186  51.012  1.00  0.00     0.166 HD
ENDROOT
BRANCH   8  13
HETATM   13  N3  UNL     1      26.417   2.700  52.841  1.00  0.00    -0.340 N 
HETATM   14  H10 UNL     1      26.613   3.704  52.966  1.00  0.00     0.167 HD
BRANCH  13  15
HETATM   15  C13 UNL     1      27.314   1.629  53.099  1.00  0.00     0.035 A 
HETATM   16  C14 UNL     1      28.524   1.916  53.673  1.00  0.00     0.029 A 
HETATM   17  C15 UNL     1      29.354   0.815  53.898  1.00  0.00     0.004 A 
HETATM   18  C16 UNL     1      28.959  -0.469  53.554  1.00  0.00     0.024 A 
HETATM   19  C17 UNL     1      27.726  -0.681  52.978  1.00  0.00     0.036 A 
HETATM   20 CL1  UNL     1      27.207  -2.304  52.534  1.00  0.00    -0.084 Cl
HETATM   21  C18 UNL     1      26.855   0.382  52.731  1.00  0.00     0.053 A 
ENDBRANCH  13  15
ENDBRANCH   8  13
BRANCH   1  22
HETATM   22  C6  UNL     1      26.199   5.836  48.762  1.00  0.00     0.024 A 
HETATM   23  C1  UNL     1      27.562   5.724  48.677  1.00  0.00     0.078 A 
HETATM   24  C2  UNL     1      28.408   6.567  47.992  1.00  0.00     0.037 A 
HETATM   25  C3  UNL     1      27.863   7.639  47.314  1.00  0.00     0.003 A 
HETATM   26  C4  UNL     1      26.495   7.800  47.366  1.00  0.00     0.001 A 
HETATM   27  C5  UNL     1      25.705   6.917  48.071  1.00  0.00     0.016 A 
BRANCH  23  28
HETATM   28  O1  UNL     1      28.212   4.689  49.317  1.00  0.00    -0.360 OA
HETATM   29  H1  UNL     1      29.016   4.285  48.820  1.00  0.00     0.217 HD
ENDBRANCH  23  28
ENDBRANCH   1  22
TORSDOF 4
ENDMDL
MODEL 4
REMARK VINA RESULT:      -8.7      2.315      5.602
REMARK  4 active torsions:
REMARK  status: ('A' for Active; 'I' for Inactive)
REMARK    1  A    between atoms: O1_1  and  C1_2 
REMARK    2  A    between atoms: C6_7  and  C7_8 
REMARK    3  A    between atoms: C12_15  and  N3_16 
REMARK    4  A    between atoms: N3_16  and  C13_17 
ROOT
HETATM    1  C7  UNL     1      24.245   3.363  49.703  1.00  0.00     0.045 A 
HETATM    2  C8  UNL     1      23.204   3.073  48.944  1.00  0.00     0.033 A 
HETATM    3  C9  UNL     1      22.181   2.112  49.289  1.00  0.00     0.036 A 
HETATM    4  C10 UNL     1      22.174   1.408  50.419  1.00  0.00     0.088 A 
HETATM    5  N1  UNL     1      21.182   0.456  50.786  1.00  0.00    -0.242 NA
HETATM    6  C11 UNL     1      21.255  -0.191  51.919  1.00  0.00     0.209 A 
HETATM    7  N2  UNL     1      22.369   0.081  52.793  1.00  0.00    -0.335 N 
HETATM    8  C12 UNL     1      23.392   1.022  52.479  1.00  0.00     0.136 A 
HETATM    9  C19 UNL     1      23.308   1.671  51.333  1.00  0.00     0.106 A 
HETATM   10  N4  UNL     1      24.254   2.631  50.897  1.00  0.00    -0.351 N 
HETATM   11  H9  UNL     1      22.412  -0.446  53.695  1.00  0.00     0.168 HD
HETATM   12  H15 UNL     1      25.020   2.762  51.588  1.00  0.00     0.166 HD
ENDROOT
BRANCH   8  13
HETATM   13  N3  UNL     1      24.483   1.283  53.347  1.00  0.00    -0.340 N 
HETATM   14  H10 UNL     1      24.169   2.016  53.999  1.00  0.00     0.167 HD
BRANCH  13  15
HETATM   15  C13 UNL     1      25.762   0.662  53.329  1.00  0.00     0.035 A 
HETATM   16  C14 UNL     1      25.862  -0.608  52.826  1.00  0.00     0.029 A 
HETATM   17  C15 UNL     1      27.148  -1.155  52.840  1.00  0.00     0.004 A 
HETATM   18  C16 UNL     1      28.230  -0.442  53.334  1.00  0.00     0.024 A 
HETATM   19  C17 UNL     1      28.052   0.832  53.825  1.00  0.00     0.036 A 
HETATM   20 CL1  UNL     1      29.414   1.753  54.456  1.00  0.00    -0.084 Cl
HETATM   21  C18 UNL     1      26.790   1.429  53.835  1.00  0.00     0.053 A 
ENDBRANCH  13  15
ENDBRANCH   8  13
BRANCH   1  22
HETATM   22  C6  UNL     1      25.216   4.341  49.268  1.00  0.00     0.024 A 
HETATM   23  C1  UNL     1      26.574   4.172  49.192  1.00  0.00     0.078 A 
HETATM   24  C2  UNL     1      27.490   5.111  48.776  1.00  0.00     0.037 A 
HETATM   25  C3  UNL     1      27.029   6.354  48.391  1.00  0.00     0.003 A 
HETATM   26  C4  UNL     1      25.671   6.580  48.448  1.00  0.00     0.001 A 
HETATM   27  C5  UNL     1      24.808   5.593  48.874  1.00  0.00     0.016 A 
BRANCH  23  28
HETATM   28  O1  UNL     1      27.142   2.967  49.553  1.00  0.00    -0.360 OA
HETATM   29  H1  UNL     1      28.168   2.925  49.520  1.00  0.00     0.217 HD
ENDBRANCH  23  28
ENDBRANCH   1  22
TORSDOF 4
ENDMDL
MODEL 5
REMARK VINA RESULT:      -8.5      3.254      7.174
REMARK  4 active torsions:
REMARK  status: ('A' for Active; 'I' for Inactive)
REMARK    1  A    between atoms: O1_1  and  C1_2 
REMARK    2  A    between atoms: C6_7  and  C7_8 
REMARK    3  A    between atoms: C12_15  and  N3_16 
REMARK    4  A    between atoms: N3_16  and  C13_17 
ROOT
HETATM    1  C7  UNL     1      25.463  -0.097  54.102  1.00  0.00     0.045 A 
HETATM    2  C8  UNL     1      25.121  -0.923  55.074  1.00  0.00     0.033 A 
HETATM    3  C9  UNL     1      23.774  -1.383  55.321  1.00  0.00     0.036 A 
HETATM    4  C10 UNL     1      22.720  -1.023  54.592  1.00  0.00     0.088 A 
HETATM    5  N1  UNL     1      21.383  -1.458  54.811  1.00  0.00    -0.242 NA
HETATM    6  C11 UNL     1      20.407  -1.053  54.043  1.00  0.00     0.209 A 
HETATM    7  N2  UNL     1      20.715  -0.148  52.964  1.00  0.00    -0.335 N 
HETATM    8  C12 UNL     1      22.034   0.323  52.696  1.00  0.00     0.136 A 
HETATM    9  C19 UNL     1      23.012  -0.095  53.478  1.00  0.00     0.106 A 
HETATM   10  N4  UNL     1      24.366   0.294  53.325  1.00  0.00    -0.351 N 
HETATM   11  H9  UNL     1      19.923   0.167  52.360  1.00  0.00     0.168 HD
HETATM   12  H15 UNL     1      24.494   0.945  52.524  1.00  0.00     0.166 HD
ENDROOT
BRANCH   8  13
HETATM   13  N3  UNL     1      22.327   1.212  51.631  1.00  0.00    -0.340 N 
HETATM   14  H10 UNL     1      22.706   0.636  50.865  1.00  0.00     0.167 HD
BRANCH  13  15
HETATM   15  C13 UNL     1      22.139   2.621  51.612  1.00  0.00     0.035 A 
HETATM   16  C14 UNL     1      23.073   3.411  52.228  1.00  0.00     0.029 A 
HETATM   17  C15 UNL     1      22.825   4.784  52.169  1.00  0.00     0.004 A 
HETATM   18  C16 UNL     1      21.704   5.288  51.527  1.00  0.00     0.024 A 
HETATM   19  C17 UNL     1      20.806   4.431  50.930  1.00  0.00     0.036 A 
HETATM   20 CL1  UNL     1      19.377   5.052  50.109  1.00  0.00    -0.084 Cl
HETATM   21  C18 UNL     1      21.004   3.050  50.956  1.00  0.00     0.053 A 
ENDBRANCH  13  15
ENDBRANCH   8  13
BRANCH   1  22
HETATM   22  C6  UNL     1      26.841   0.306  53.937  1.00  0.00     0.024 A 
HETATM   23  C1  UNL     1      27.321   1.588  53.880  1.00  0.00     0.078 A 
HETATM   24  C2  UNL     1      28.637   1.960  53.722  1.00  0.00     0.037 A 
HETATM   25  C3  UNL     1      29.591   0.970  53.608  1.00  0.00     0.003 A 
HETATM   26  C4  UNL     1      29.165  -0.340  53.658  1.00  0.00     0.001 A 
HETATM   27  C5  UNL     1      27.829  -0.643  53.818  1.00  0.00     0.016 A 
BRANCH  23  28
HETATM   28  O1  UNL     1      26.453   2.656  53.985  1.00  0.00    -0.360 OA
HETATM   29  H1  UNL     1      26.875   3.590  53.901  1.00  0.00     0.217 HD
ENDBRANCH  23  28
ENDBRANCH   1  22
TORSDOF 4
ENDMDL
MODEL 6
REMARK VINA RESULT:      -8.5      2.198      5.983
REMARK  4 active torsions:
REMARK  status: ('A' for Active; 'I' for Inactive)
REMARK    1  A    between atoms: O1_1  and  C1_2 
REMARK    2  A    between atoms: C6_7  and  C7_8 
REMARK    3  A    between atoms: C12_15  and  N3_16 
REMARK    4  A    between atoms: N3_16  and  C13_17 
ROOT
HETATM    1  C7  UNL     1      26.187   2.025  51.686  1.00  0.00     0.045 A 
HETATM    2  C8  UNL     1      26.676   2.555  50.579  1.00  0.00     0.033 A 
HETATM    3  C9  UNL     1      25.923   3.387  49.668  1.00  0.00     0.036 A 
HETATM    4  C10 UNL     1      24.645   3.714  49.845  1.00  0.00     0.088 A 
HETATM    5  N1  UNL     1      23.878   4.531  48.967  1.00  0.00    -0.242 NA
HETATM    6  C11 UNL     1      22.625   4.802  49.219  1.00  0.00     0.209 A 
HETATM    7  N2  UNL     1      22.032   4.252  50.413  1.00  0.00    -0.335 N 
HETATM    8  C12 UNL     1      22.749   3.428  51.329  1.00  0.00     0.136 A 
HETATM    9  C19 UNL     1      24.015   3.162  51.064  1.00  0.00     0.106 A 
HETATM   10  N4  UNL     1      24.842   2.358  51.888  1.00  0.00    -0.351 N 
HETATM   11  H9  UNL     1      21.029   4.478  50.600  1.00  0.00     0.168 HD
HETATM   12  H15 UNL     1      24.333   2.006  52.723  1.00  0.00     0.166 HD
ENDROOT
BRANCH   8  13
HETATM   13  N3  UNL     1      22.157   2.893  52.501  1.00  0.00    -0.340 N 
HETATM   14  H10 UNL     1      22.496   3.466  53.287  1.00  0.00     0.167 HD
BRANCH  13  15
HETATM   15  C13 UNL     1      21.270   1.786  52.587  1.00  0.00     0.035 A 
HETATM   16  C14 UNL     1      20.083   1.849  51.907  1.00  0.00     0.029 A 
HETATM   17  C15 UNL     1      19.261   0.726  52.036  1.00  0.00     0.004 A 
HETATM   18  C16 UNL     1      19.643  -0.364  52.804  1.00  0.00     0.024 A 
HETATM   19  C17 UNL     1      20.854  -0.355  53.460  1.00  0.00     0.036 A 
HETATM   20 CL1  UNL     1      21.357  -1.729  54.440  1.00  0.00    -0.084 Cl
HETATM   21  C18 UNL     1      21.715   0.739  53.367  1.00  0.00     0.053 A 
ENDBRANCH  13  15
ENDBRANCH   8  13
BRANCH   1  22
HETATM   22  C6  UNL     1      27.022   1.205  52.533  1.00  0.00     0.024 A 
HETATM   23  C1  UNL     1      27.788   1.628  53.588  1.00  0.00     0.078 A 
HETATM   24  C2  UNL     1      28.581   0.837  54.388  1.00  0.00     0.037 A 
HETATM   25  C3  UNL     1      28.631  -0.518  54.131  1.00  0.00     0.003 A 
HETATM   26  C4  UNL     1      27.880  -0.999  53.080  1.00  0.00     0.001 A 
HETATM   27  C5  UNL     1      27.107  -0.150  52.318  1.00  0.00     0.016 A 
BRANCH  23  28
HETATM   28  O1  UNL     1      27.811   2.964  53.933  1.00  0.00    -0.360 OA
HETATM   29  H1  UNL     1      27.043   3.288  54.533  1.00  0.00     0.217 HD
ENDBRANCH  23  28
ENDBRANCH   1  22
TORSDOF 4
ENDMDL
MODEL 7
REMARK VINA RESULT:      -8.3      2.933      5.253
REMARK  4 active torsions:
REMARK  status: ('A' for Active; 'I' for Inactive)
REMARK    1  A    between atoms: O1_1  and  C1_2 
REMARK    2  A    between atoms: C6_7  and  C7_8 
REMARK    3  A    between atoms: C12_15  and  N3_16 
REMARK    4  A    between atoms: N3_16  and  C13_17 
ROOT
HETATM    1  C7  UNL     1      21.296  -0.824  53.682  1.00  0.00     0.045 A 
HETATM    2  C8  UNL     1      21.681  -1.479  54.762  1.00  0.00     0.033 A 
HETATM    3  C9  UNL     1      23.032  -1.492  55.274  1.00  0.00     0.036 A 
HETATM    4  C10 UNL     1      24.046  -0.839  54.711  1.00  0.00     0.088 A 
HETATM    5  N1  UNL     1      25.385  -0.832  55.192  1.00  0.00    -0.242 NA
HETATM    6  C11 UNL     1      26.321  -0.161  54.574  1.00  0.00     0.209 A 
HETATM    7  N2  UNL     1      25.965   0.576  53.387  1.00  0.00    -0.335 N 
HETATM    8  C12 UNL     1      24.641   0.607  52.858  1.00  0.00     0.136 A 
HETATM    9  C19 UNL     1      23.704  -0.074  53.491  1.00  0.00     0.106 A 
HETATM   10  N4  UNL     1      22.351  -0.131  53.075  1.00  0.00    -0.351 N 
HETATM   11  H9  UNL     1      26.725   1.107  52.905  1.00  0.00     0.168 HD
HETATM   12  H15 UNL     1      22.187   0.428  52.214  1.00  0.00     0.166 HD
ENDROOT
BRANCH   8  13
HETATM   13  N3  UNL     1      24.301   1.336  51.690  1.00  0.00    -0.340 N 
HETATM   14  H10 UNL     1      24.248   0.650  50.923  1.00  0.00     0.167 HD
BRANCH  13  15
HETATM   15  C13 UNL     1      24.075   2.735  51.587  1.00  0.00     0.035 A 
HETATM   16  C14 UNL     1      23.717   3.422  52.716  1.00  0.00     0.029 A 
HETATM   17  C15 UNL     1      23.511   4.793  52.541  1.00  0.00     0.004 A 
HETATM   18  C16 UNL     1      23.664   5.392  51.300  1.00  0.00     0.024 A 
HETATM   19  C17 UNL     1      24.026   4.636  50.207  1.00  0.00     0.036 A 
HETATM   20 CL1  UNL     1      24.226   5.379  48.623  1.00  0.00    -0.084 Cl
HETATM   21  C18 UNL     1      24.245   3.262  50.324  1.00  0.00     0.053 A 
ENDBRANCH  13  15
ENDBRANCH   8  13
BRANCH   1  22
HETATM   22  C6  UNL     1      19.918  -0.874  53.249  1.00  0.00     0.024 A 
HETATM   23  C1  UNL     1      19.318  -0.058  52.325  1.00  0.00     0.078 A 
HETATM   24  C2  UNL     1      18.003  -0.115  51.921  1.00  0.00     0.037 A 
HETATM   25  C3  UNL     1      17.184  -1.075  52.479  1.00  0.00     0.003 A 
HETATM   26  C4  UNL     1      17.736  -1.923  53.414  1.00  0.00     0.001 A 
HETATM   27  C5  UNL     1      19.062  -1.811  53.774  1.00  0.00     0.016 A 
BRANCH  23  28
HETATM   28  O1  UNL     1      20.045   0.936  51.705  1.00  0.00    -0.360 OA
HETATM   29  H1  UNL     1      19.966   0.980  50.681  1.00  0.00     0.217 HD
ENDBRANCH  23  28
ENDBRANCH   1  22
TORSDOF 4
ENDMDL
MODEL 8
REMARK VINA RESULT:      -7.9      2.836      6.270
REMARK  4 active torsions:
REMARK  status: ('A' for Active; 'I' for Inactive)
REMARK    1  A    between atoms: O1_1  and  C1_2 
REMARK    2  A    between atoms: C6_7  and  C7_8 
REMARK    3  A    between atoms: C12_15  and  N3_16 
REMARK    4  A    between atoms: N3_16  and  C13_17 
ROOT
HETATM    1  C7  UNL     1      25.255   0.636  52.841  1.00  0.00     0.045 A 
HETATM    2  C8  UNL     1      24.378   0.081  53.658  1.00  0.00     0.033 A 
HETATM    3  C9  UNL     1      22.946   0.119  53.470  1.00  0.00     0.036 A 
HETATM    4  C10 UNL     1      22.347   0.721  52.445  1.00  0.00     0.088 A 
HETATM    5  N1  UNL     1      20.941   0.775  52.233  1.00  0.00    -0.242 NA
HETATM    6  C11 UNL     1      20.438   1.390  51.195  1.00  0.00     0.209 A 
HETATM    7  N2  UNL     1      21.344   2.016  50.265  1.00  0.00    -0.335 N 
HETATM    8  C12 UNL     1      22.760   1.996  50.425  1.00  0.00     0.136 A 
HETATM    9  C19 UNL     1      23.257   1.371  51.476  1.00  0.00     0.106 A 
HETATM   10  N4  UNL     1      24.643   1.275  51.756  1.00  0.00    -0.351 N 
HETATM   11  H9  UNL     1      20.925   2.504  49.441  1.00  0.00     0.168 HD
HETATM   12  H15 UNL     1      25.218   1.754  51.035  1.00  0.00     0.166 HD
ENDROOT
BRANCH   8  13
HETATM   13  N3  UNL     1      23.643   2.615  49.503  1.00  0.00    -0.340 N 
HETATM   14  H10 UNL     1      23.720   1.977  48.698  1.00  0.00     0.167 HD
BRANCH  13  15
HETATM   15  C13 UNL     1      24.297   3.868  49.650  1.00  0.00     0.035 A 
HETATM   16  C14 UNL     1      25.637   3.939  49.376  1.00  0.00     0.029 A 
HETATM   17  C15 UNL     1      26.214   5.201  49.541  1.00  0.00     0.004 A 
HETATM   18  C16 UNL     1      25.461   6.290  49.955  1.00  0.00     0.024 A 
HETATM   19  C17 UNL     1      24.117   6.142  50.212  1.00  0.00     0.036 A 
HETATM   20 CL1  UNL     1      23.144   7.513  50.738  1.00  0.00    -0.084 Cl
HETATM   21  C18 UNL     1      23.487   4.905  50.064  1.00  0.00     0.053 A 
ENDBRANCH  13  15
ENDBRANCH   8  13
BRANCH   1  22
HETATM   22  C6  UNL     1      26.670   0.543  53.117  1.00  0.00     0.024 A 
HETATM   23  C1  UNL     1      27.419  -0.603  53.187  1.00  0.00     0.078 A 
HETATM   24  C2  UNL     1      28.768  -0.680  53.451  1.00  0.00     0.037 A 
HETATM   25  C3  UNL     1      29.464   0.492  53.670  1.00  0.00     0.003 A 
HETATM   26  C4  UNL     1      28.760   1.675  53.612  1.00  0.00     0.001 A 
HETATM   27  C5  UNL     1      27.408   1.681  53.342  1.00  0.00     0.016 A 
BRANCH  23  28
HETATM   28  O1  UNL     1      26.825  -1.831  52.983  1.00  0.00    -0.360 OA
HETATM   29  H1  UNL     1      27.397  -2.534  52.499  1.00  0.00     0.217 HD
ENDBRANCH  23  28
ENDBRANCH   1  22
TORSDOF 4
ENDMDL
MODEL 9
REMARK VINA RESULT:      -7.8      3.407      7.558
REMARK  4 active torsions:
REMARK  status: ('A' for Active; 'I' for Inactive)
REMARK    1  A    between atoms: O1_1  and  C1_2 
REMARK    2  A    between atoms: C6_7  and  C7_8 
REMARK    3  A    between atoms: C12_15  and  N3_16 
REMARK    4  A    between atoms: N3_16  and  C13_17 
ROOT
HETATM    1  C7  UNL     1      24.648   1.911  51.839  1.00  0.00     0.045 A 
HETATM    2  C8  UNL     1      25.559   1.115  52.367  1.00  0.00     0.033 A 
HETATM    3  C9  UNL     1      25.280   0.076  53.331  1.00  0.00     0.036 A 
HETATM    4  C10 UNL     1      24.063  -0.197  53.797  1.00  0.00     0.088 A 
HETATM    5  N1  UNL     1      23.757  -1.212  54.746  1.00  0.00    -0.242 NA
HETATM    6  C11 UNL     1      22.530  -1.411  55.150  1.00  0.00     0.209 A 
HETATM    7  N2  UNL     1      21.488  -0.574  54.611  1.00  0.00    -0.335 N 
HETATM    8  C12 UNL     1      21.733   0.459  53.659  1.00  0.00     0.136 A 
HETATM    9  C19 UNL     1      22.976   0.650  53.258  1.00  0.00     0.106 A 
HETATM   10  N4  UNL     1      23.361   1.639  52.319  1.00  0.00    -0.351 N 
HETATM   11  H9  UNL     1      20.512  -0.746  54.944  1.00  0.00     0.168 HD
HETATM   12  H15 UNL     1      22.547   2.193  51.985  1.00  0.00     0.166 HD
ENDROOT
BRANCH   8  13
HETATM   13  N3  UNL     1      20.701   1.277  53.134  1.00  0.00    -0.340 N 
HETATM   14  H10 UNL     1      20.769   2.182  53.621  1.00  0.00     0.167 HD
BRANCH  13  15
HETATM   15  C13 UNL     1      19.754   0.928  52.133  1.00  0.00     0.035 A 
HETATM   16  C14 UNL     1      19.899   1.468  50.883  1.00  0.00     0.029 A 
HETATM   17  C15 UNL     1      18.933   1.082  49.950  1.00  0.00     0.004 A 
HETATM   18  C16 UNL     1      17.909   0.210  50.291  1.00  0.00     0.024 A 
HETATM   19  C17 UNL     1      17.827  -0.293  51.570  1.00  0.00     0.036 A 
HETATM   20 CL1  UNL     1      16.535  -1.400  52.022  1.00  0.00    -0.084 Cl
HETATM   21  C18 UNL     1      18.765   0.059  52.543  1.00  0.00     0.053 A 
ENDBRANCH  13  15
ENDBRANCH   8  13
BRANCH   1  22
HETATM   22  C6  UNL     1      25.028   2.923  50.880  1.00  0.00     0.024 A 
HETATM   23  C1  UNL     1      24.235   3.925  50.385  1.00  0.00     0.078 A 
HETATM   24  C2  UNL     1      24.608   4.884  49.471  1.00  0.00     0.037 A 
HETATM   25  C3  UNL     1      25.901   4.863  48.987  1.00  0.00     0.003 A 
HETATM   26  C4  UNL     1      26.743   3.876  49.451  1.00  0.00     0.001 A 
HETATM   27  C5  UNL     1      26.304   2.946  50.368  1.00  0.00     0.016 A 
BRANCH  23  28
HETATM   28  O1  UNL     1      22.924   4.038  50.802  1.00  0.00    -0.360 OA
HETATM   29  H1  UNL     1      22.237   3.473  50.287  1.00  0.00     0.217 HD
ENDBRANCH  23  28
ENDBRANCH   1  22
TORSDOF 4
ENDMDL
