MODEL 1
REMARK VINA RESULT:      -8.4      0.000      0.000
REMARK  5 active torsions:
REMARK  status: ('A' for Active; 'I' for Inactive)
REMARK    1  A    between atoms: N1_3  and  C4_5 
REMARK    2  A    between atoms: C7_8  and  C8_9 
REMARK    3  A    between atoms: C10_14  and  C11_15 
REMARK    4  A    between atoms: C11_15  and  C12_16 
REMARK       I    between atoms: C12_16  and  N2_18 
REMARK    5  A    between atoms: N2_18  and  C13_19 
ROOT
HETATM    1  C1  UNL     1      22.114   5.121  50.763  1.00  0.00     0.037 C 
HETATM    2  C2  UNL     1      22.834   4.121  50.739  1.00  0.00     0.002 C 
HETATM    3  N1  UNL     1      23.664   2.962  50.686  1.00  0.00    -0.311 N 
HETATM    4  C3  UNL     1      24.736   3.145  49.706  1.00  0.00     0.167 C 
ENDROOT
BRANCH   3   5
HETATM    5  C4  UNL     1      23.207   1.976  51.600  1.00  0.00     0.048 A 
HETATM    6  C5  UNL     1      22.066   1.319  51.131  1.00  0.00     0.031 A 
HETATM    7  C6  UNL     1      21.428   0.301  51.843  1.00  0.00     0.018 A 
HETATM    8  C7  UNL     1      22.015  -0.007  53.052  1.00  0.00     0.048 A 
HETATM    9  C9  UNL     1      23.137   0.608  53.562  1.00  0.00     0.026 A 
HETATM   10  C10 UNL     1      23.726   1.605  52.820  1.00  0.00    -0.021 A 
BRANCH   8  11
HETATM   11  C8  UNL     1      21.385  -1.081  53.860  1.00  0.00     0.417 C 
HETATM   12  F1  UNL     1      21.936  -2.296  53.512  1.00  0.00    -0.166 F 
HETATM   13  F2  UNL     1      21.569  -0.811  55.211  1.00  0.00    -0.166 F 
HETATM   14  F3  UNL     1      20.053  -1.128  53.531  1.00  0.00    -0.166 F 
ENDBRANCH   8  11
BRANCH  10  15
HETATM   15  C11 UNL     1      24.920   2.327  53.281  1.00  0.00     0.144 C 
BRANCH  15  16
HETATM   16  C12 UNL     1      25.960   1.439  53.883  1.00  0.00     0.226 C 
HETATM   17  O1  UNL     1      26.483   1.027  54.936  1.00  0.00    -0.273 OA
HETATM   18  N2  UNL     1      26.654   0.776  52.825  1.00  0.00    -0.327 N 
HETATM   19  H10 UNL     1      26.606   0.770  51.763  1.00  0.00     0.169 HD
BRANCH  18  20
HETATM   20  C13 UNL     1      27.720  -0.154  53.031  1.00  0.00     0.034 A 
HETATM   21  C14 UNL     1      28.998   0.255  53.395  1.00  0.00     0.029 A 
HETATM   22  C15 UNL     1      29.956  -0.740  53.567  1.00  0.00     0.002 A 
HETATM   23  C16 UNL     1      29.672  -2.081  53.390  1.00  0.00     0.000 A 
HETATM   24  C17 UNL     1      28.385  -2.430  53.027  1.00  0.00     0.002 A 
HETATM   25  C18 UNL     1      27.365  -1.490  52.835  1.00  0.00     0.029 A 
ENDBRANCH  18  20
ENDBRANCH  15  16
ENDBRANCH  10  15
ENDBRANCH   3   5
TORSDOF 5
ENDMDL
MODEL 2
REMARK VINA RESULT:      -8.0      1.973      6.292
REMARK  5 active torsions:
REMARK  status: ('A' for Active; 'I' for Inactive)
REMARK    1  A    between atoms: N1_3  and  C4_5 
REMARK    2  A    between atoms: C7_8  and  C8_9 
REMARK    3  A    between atoms: C10_14  and  C11_15 
REMARK    4  A    between atoms: C11_15  and  C12_16 
REMARK       I    between atoms: C12_16  and  N2_18 
REMARK    5  A    between atoms: N2_18  and  C13_19 
ROOT
HETATM    1  C1  UNL     1      29.515  -1.103  53.484  1.00  0.00     0.037 C 
HETATM    2  C2  UNL     1      28.793  -0.107  53.546  1.00  0.00     0.002 C 
HETATM    3  N1  UNL     1      27.968   1.053  53.638  1.00  0.00    -0.311 N 
HETATM    4  C3  UNL     1      28.789   2.253  53.810  1.00  0.00     0.167 C 
ENDROOT
BRANCH   3   5
HETATM    5  C4  UNL     1      26.596   0.702  53.534  1.00  0.00     0.048 A 
HETATM    6  C5  UNL     1      26.200  -0.163  54.558  1.00  0.00     0.031 A 
HETATM    7  C6  UNL     1      24.896  -0.649  54.683  1.00  0.00     0.018 A 
HETATM    8  C7  UNL     1      24.025  -0.205  53.710  1.00  0.00     0.048 A 
HETATM    9  C9  UNL     1      24.362   0.645  52.679  1.00  0.00     0.026 A 
HETATM   10  C10 UNL     1      25.660   1.093  52.604  1.00  0.00    -0.021 A 
BRANCH   8  11
HETATM   11  C8  UNL     1      22.622  -0.685  53.784  1.00  0.00     0.417 C 
HETATM   12  F1  UNL     1      22.226  -1.131  52.542  1.00  0.00    -0.166 F 
HETATM   13  F2  UNL     1      22.529  -1.693  54.738  1.00  0.00    -0.166 F 
HETATM   14  F3  UNL     1      21.828   0.388  54.105  1.00  0.00    -0.166 F 
ENDBRANCH   8  11
BRANCH  10  15
HETATM   15  C11 UNL     1      26.119   1.994  51.538  1.00  0.00     0.144 C 
BRANCH  15  16
HETATM   16  C12 UNL     1      25.021   2.802  50.924  1.00  0.00     0.226 C 
HETATM   17  O1  UNL     1      24.191   2.882  49.999  1.00  0.00    -0.273 OA
HETATM   18  N2  UNL     1      24.828   3.975  51.716  1.00  0.00    -0.327 N 
HETATM   19  H10 UNL     1      25.263   4.386  52.595  1.00  0.00     0.169 HD
BRANCH  18  20
HETATM   20  C13 UNL     1      23.855   4.981  51.427  1.00  0.00     0.034 A 
HETATM   21  C14 UNL     1      22.495   4.775  51.634  1.00  0.00     0.029 A 
HETATM   22  C15 UNL     1      21.640   5.827  51.315  1.00  0.00     0.002 A 
HETATM   23  C16 UNL     1      22.100   7.030  50.814  1.00  0.00     0.000 A 
HETATM   24  C17 UNL     1      23.462   7.178  50.628  1.00  0.00     0.002 A 
HETATM   25  C18 UNL     1      24.387   6.170  50.923  1.00  0.00     0.029 A 
ENDBRANCH  18  20
ENDBRANCH  15  16
ENDBRANCH  10  15
ENDBRANCH   3   5
TORSDOF 5
ENDMDL
MODEL 3
REMARK VINA RESULT:      -7.8      2.099      6.229
REMARK  5 active torsions:
REMARK  status: ('A' for Active; 'I' for Inactive)
REMARK    1  A    between atoms: N1_3  and  C4_5 
REMARK    2  A    between atoms: C7_8  and  C8_9 
REMARK    3  A    between atoms: C10_14  and  C11_15 
REMARK    4  A    between atoms: C11_15  and  C12_16 
REMARK       I    between atoms: C12_16  and  N2_18 
REMARK    5  A    between atoms: N2_18  and  C13_19 
ROOT
HETATM    1  C1  UNL     1      26.990  -2.135  52.333  1.00  0.00     0.037 C 
HETATM    2  C2  UNL     1      26.621  -1.161  52.992  1.00  0.00     0.002 C 
HETATM    3  N1  UNL     1      26.202  -0.044  53.774  1.00  0.00    -0.311 N 
HETATM    4  C3  UNL     1      27.307   0.444  54.601  1.00  0.00     0.167 C 
ENDROOT
BRANCH   3   5
HETATM    5  C4  UNL     1      24.839   0.263  53.519  1.00  0.00     0.048 A 
HETATM    6  C5  UNL     1      23.977  -0.671  54.098  1.00  0.00     0.031 A 
HETATM    7  C6  UNL     1      22.586  -0.587  53.998  1.00  0.00     0.018 A 
HETATM    8  C7  UNL     1      22.129   0.497  53.279  1.00  0.00     0.048 A 
HETATM    9  C9  UNL     1      22.933   1.446  52.688  1.00  0.00     0.026 A 
HETATM   10  C10 UNL     1      24.296   1.315  52.817  1.00  0.00    -0.021 A 
BRANCH   8  11
HETATM   11  C8  UNL     1      20.659   0.645  53.134  1.00  0.00     0.417 C 
HETATM   12  F1  UNL     1      20.261   0.104  51.930  1.00  0.00    -0.166 F 
HETATM   13  F2  UNL     1      20.025   0.021  54.203  1.00  0.00    -0.166 F 
HETATM   14  F3  UNL     1      20.373   1.987  53.092  1.00  0.00    -0.166 F 
ENDBRANCH   8  11
BRANCH  10  15
HETATM   15  C11 UNL     1      25.237   2.270  52.216  1.00  0.00     0.144 C 
BRANCH  15  16
HETATM   16  C12 UNL     1      24.584   3.264  51.312  1.00  0.00     0.226 C 
HETATM   17  O1  UNL     1      24.192   3.506  50.154  1.00  0.00    -0.273 OA
HETATM   18  N2  UNL     1      24.270   4.430  52.075  1.00  0.00    -0.327 N 
HETATM   19  H10 UNL     1      24.388   4.738  53.086  1.00  0.00     0.169 HD
BRANCH  18  20
HETATM   20  C13 UNL     1      23.634   5.590  51.534  1.00  0.00     0.034 A 
HETATM   21  C14 UNL     1      24.359   6.697  51.105  1.00  0.00     0.029 A 
HETATM   22  C15 UNL     1      23.632   7.770  50.596  1.00  0.00     0.002 A 
HETATM   23  C16 UNL     1      22.253   7.758  50.510  1.00  0.00     0.000 A 
HETATM   24  C17 UNL     1      21.585   6.630  50.952  1.00  0.00     0.002 A 
HETATM   25  C18 UNL     1      22.242   5.511  51.476  1.00  0.00     0.029 A 
ENDBRANCH  18  20
ENDBRANCH  15  16
ENDBRANCH  10  15
ENDBRANCH   3   5
TORSDOF 5
ENDMDL
MODEL 4
REMARK VINA RESULT:      -7.8      3.515      6.682
REMARK  5 active torsions:
REMARK  status: ('A' for Active; 'I' for Inactive)
REMARK    1  A    between atoms: N1_3  and  C4_5 
REMARK    2  A    between atoms: C7_8  and  C8_9 
REMARK    3  A    between atoms: C10_14  and  C11_15 
REMARK    4  A    between atoms: C11_15  and  C12_16 
REMARK       I    between atoms: C12_16  and  N2_18 
REMARK    5  A    between atoms: N2_18  and  C13_19 
ROOT
HETATM    1  C1  UNL     1      21.563  -0.478  54.849  1.00  0.00     0.037 C 
HETATM    2  C2  UNL     1      22.189  -0.040  53.882  1.00  0.00     0.002 C 
HETATM    3  N1  UNL     1      22.905   0.448  52.749  1.00  0.00    -0.311 N 
HETATM    4  C3  UNL     1      22.020   0.548  51.588  1.00  0.00     0.167 C 
ENDROOT
BRANCH   3   5
HETATM    5  C4  UNL     1      24.264   0.693  53.083  1.00  0.00     0.048 A 
HETATM    6  C5  UNL     1      24.973  -0.493  53.286  1.00  0.00     0.031 A 
HETATM    7  C6  UNL     1      26.330  -0.521  53.618  1.00  0.00     0.018 A 
HETATM    8  C7  UNL     1      26.918   0.721  53.729  1.00  0.00     0.048 A 
HETATM    9  C9  UNL     1      26.266   1.921  53.540  1.00  0.00     0.026 A 
HETATM   10  C10 UNL     1      24.930   1.891  53.216  1.00  0.00    -0.021 A 
BRANCH   8  11
HETATM   11  C8  UNL     1      28.360   0.762  54.080  1.00  0.00     0.417 C 
HETATM   12  F1  UNL     1      29.067  -0.026  53.198  1.00  0.00    -0.166 F 
HETATM   13  F2  UNL     1      28.804   2.080  54.050  1.00  0.00    -0.166 F 
HETATM   14  F3  UNL     1      28.505   0.209  55.328  1.00  0.00    -0.166 F 
ENDBRANCH   8  11
BRANCH  10  15
HETATM   15  C11 UNL     1      24.146   3.114  53.004  1.00  0.00     0.144 C 
BRANCH  15  16
HETATM   16  C12 UNL     1      24.155   3.591  51.587  1.00  0.00     0.226 C 
HETATM   17  O1  UNL     1      23.960   3.290  50.394  1.00  0.00    -0.273 OA
HETATM   18  N2  UNL     1      24.547   4.965  51.576  1.00  0.00    -0.327 N 
HETATM   19  H10 UNL     1      24.821   5.689  52.306  1.00  0.00     0.169 HD
BRANCH  18  20
HETATM   20  C13 UNL     1      24.664   5.751  50.389  1.00  0.00     0.034 A 
HETATM   21  C14 UNL     1      25.843   5.807  49.653  1.00  0.00     0.029 A 
HETATM   22  C15 UNL     1      25.840   6.607  48.513  1.00  0.00     0.002 A 
HETATM   23  C16 UNL     1      24.728   7.323  48.113  1.00  0.00     0.000 A 
HETATM   24  C17 UNL     1      23.584   7.230  48.883  1.00  0.00     0.002 A 
HETATM   25  C18 UNL     1      23.505   6.448  50.042  1.00  0.00     0.029 A 
ENDBRANCH  18  20
ENDBRANCH  15  16
ENDBRANCH  10  15
ENDBRANCH   3   5
TORSDOF 5
ENDMDL
MODEL 5
REMARK VINA RESULT:      -7.8      3.116      5.474
REMARK  5 active torsions:
REMARK  status: ('A' for Active; 'I' for Inactive)
REMARK    1  A    between atoms: N1_3  and  C4_5 
REMARK    2  A    between atoms: C7_8  and  C8_9 
REMARK    3  A    between atoms: C10_14  and  C11_15 
REMARK    4  A    between atoms: C11_15  and  C12_16 
REMARK       I    between atoms: C12_16  and  N2_18 
REMARK    5  A    between atoms: N2_18  and  C13_19 
ROOT
HETATM    1  C1  UNL     1      21.200   0.978  49.244  1.00  0.00     0.037 C 
HETATM    2  C2  UNL     1      21.166   1.105  50.470  1.00  0.00     0.002 C 
HETATM    3  N1  UNL     1      21.116   1.273  51.885  1.00  0.00    -0.311 N 
HETATM    4  C3  UNL     1      19.748   1.561  52.318  1.00  0.00     0.167 C 
ENDROOT
BRANCH   3   5
HETATM    5  C4  UNL     1      22.407   1.111  52.455  1.00  0.00     0.048 A 
HETATM    6  C5  UNL     1      22.611  -0.190  52.921  1.00  0.00     0.031 A 
HETATM    7  C6  UNL     1      23.804  -0.606  53.518  1.00  0.00     0.018 A 
HETATM    8  C7  UNL     1      24.770   0.375  53.610  1.00  0.00     0.048 A 
HETATM    9  C9  UNL     1      24.621   1.671  53.168  1.00  0.00     0.026 A 
HETATM   10  C10 UNL     1      23.426   2.027  52.588  1.00  0.00    -0.021 A 
BRANCH   8  11
HETATM   11  C8  UNL     1      26.063  -0.002  54.235  1.00  0.00     0.417 C 
HETATM   12  F1  UNL     1      26.571  -1.114  53.598  1.00  0.00    -0.166 F 
HETATM   13  F2  UNL     1      26.943   1.073  54.157  1.00  0.00    -0.166 F 
HETATM   14  F3  UNL     1      25.814  -0.356  55.538  1.00  0.00    -0.166 F 
ENDBRANCH   8  11
BRANCH  10  15
HETATM   15  C11 UNL     1      23.167   3.386  52.094  1.00  0.00     0.144 C 
BRANCH  15  16
HETATM   16  C12 UNL     1      23.863   3.697  50.808  1.00  0.00     0.226 C 
HETATM   17  O1  UNL     1      23.911   3.485  49.582  1.00  0.00    -0.273 OA
HETATM   18  N2  UNL     1      24.917   4.623  51.079  1.00  0.00    -0.327 N 
HETATM   19  H10 UNL     1      25.301   5.115  51.939  1.00  0.00     0.169 HD
BRANCH  18  20
HETATM   20  C13 UNL     1      25.796   5.144  50.080  1.00  0.00     0.034 A 
HETATM   21  C14 UNL     1      25.689   6.449  49.610  1.00  0.00     0.029 A 
HETATM   22  C15 UNL     1      26.601   6.847  48.635  1.00  0.00     0.002 A 
HETATM   23  C16 UNL     1      27.575   6.001  48.142  1.00  0.00     0.000 A 
HETATM   24  C17 UNL     1      27.634   4.715  48.645  1.00  0.00     0.002 A 
HETATM   25  C18 UNL     1      26.755   4.238  49.625  1.00  0.00     0.029 A 
ENDBRANCH  18  20
ENDBRANCH  15  16
ENDBRANCH  10  15
ENDBRANCH   3   5
TORSDOF 5
ENDMDL
MODEL 6
REMARK VINA RESULT:      -7.6      5.346      6.912
REMARK  5 active torsions:
REMARK  status: ('A' for Active; 'I' for Inactive)
REMARK    1  A    between atoms: N1_3  and  C4_5 
REMARK    2  A    between atoms: C7_8  and  C8_9 
REMARK    3  A    between atoms: C10_14  and  C11_15 
REMARK    4  A    between atoms: C11_15  and  C12_16 
REMARK       I    between atoms: C12_16  and  N2_18 
REMARK    5  A    between atoms: N2_18  and  C13_19 
ROOT
HETATM    1  C1  UNL     1      22.703   6.855  47.609  1.00  0.00     0.037 C 
HETATM    2  C2  UNL     1      23.398   6.494  48.561  1.00  0.00     0.002 C 
HETATM    3  N1  UNL     1      24.194   6.096  49.675  1.00  0.00    -0.311 N 
HETATM    4  C3  UNL     1      23.383   6.048  50.893  1.00  0.00     0.167 C 
ENDROOT
BRANCH   3   5
HETATM    5  C4  UNL     1      25.537   5.862  49.274  1.00  0.00     0.048 A 
HETATM    6  C5  UNL     1      26.212   7.054  48.998  1.00  0.00     0.031 A 
HETATM    7  C6  UNL     1      27.548   7.094  48.591  1.00  0.00     0.018 A 
HETATM    8  C7  UNL     1      28.151   5.858  48.483  1.00  0.00     0.048 A 
HETATM    9  C9  UNL     1      27.532   4.655  48.743  1.00  0.00     0.026 A 
HETATM   10  C10 UNL     1      26.216   4.673  49.140  1.00  0.00    -0.021 A 
BRANCH   8  11
HETATM   11  C8  UNL     1      29.572   5.830  48.055  1.00  0.00     0.417 C 
HETATM   12  F1  UNL     1      29.759   6.737  47.034  1.00  0.00    -0.166 F 
HETATM   13  F2  UNL     1      30.388   6.119  49.144  1.00  0.00    -0.166 F 
HETATM   14  F3  UNL     1      29.833   4.582  47.546  1.00  0.00    -0.166 F 
ENDBRANCH   8  11
BRANCH  10  15
HETATM   15  C11 UNL     1      25.466   3.443  49.430  1.00  0.00     0.144 C 
BRANCH  15  16
HETATM   16  C12 UNL     1      25.585   2.993  50.851  1.00  0.00     0.226 C 
HETATM   17  O1  UNL     1      25.101   3.053  51.997  1.00  0.00    -0.273 OA
HETATM   18  N2  UNL     1      26.721   2.133  50.958  1.00  0.00    -0.327 N 
HETATM   19  H10 UNL     1      27.463   1.760  50.295  1.00  0.00     0.169 HD
BRANCH  18  20
HETATM   20  C13 UNL     1      27.139   1.514  52.175  1.00  0.00     0.034 A 
HETATM   21  C14 UNL     1      28.042   2.122  53.042  1.00  0.00     0.029 A 
HETATM   22  C15 UNL     1      28.377   1.423  54.199  1.00  0.00     0.002 A 
HETATM   23  C16 UNL     1      27.850   0.181  54.494  1.00  0.00     0.000 A 
HETATM   24  C17 UNL     1      26.958  -0.376  53.596  1.00  0.00     0.002 A 
HETATM   25  C18 UNL     1      26.569   0.261  52.411  1.00  0.00     0.029 A 
ENDBRANCH  18  20
ENDBRANCH  15  16
ENDBRANCH  10  15
ENDBRANCH   3   5
TORSDOF 5
ENDMDL
MODEL 7
REMARK VINA RESULT:      -7.5      6.888      8.153
REMARK  5 active torsions:
REMARK  status: ('A' for Active; 'I' for Inactive)
REMARK    1  A    between atoms: N1_3  and  C4_5 
REMARK    2  A    between atoms: C7_8  and  C8_9 
REMARK    3  A    between atoms: C10_14  and  C11_15 
REMARK    4  A    between atoms: C11_15  and  C12_16 
REMARK       I    between atoms: C12_16  and  N2_18 
REMARK    5  A    between atoms: N2_18  and  C13_19 
ROOT
HETATM    1  C1  UNL     1      26.354   9.785  46.457  1.00  0.00     0.037 C 
HETATM    2  C2  UNL     1      26.895   9.330  47.467  1.00  0.00     0.002 C 
HETATM    3  N1  UNL     1      27.543   8.813  48.627  1.00  0.00    -0.311 N 
HETATM    4  C3  UNL     1      28.323   9.860  49.288  1.00  0.00     0.167 C 
ENDROOT
BRANCH   3   5
HETATM    5  C4  UNL     1      27.239   7.436  48.799  1.00  0.00     0.048 A 
HETATM    6  C5  UNL     1      26.031   7.249  49.476  1.00  0.00     0.031 A 
HETATM    7  C6  UNL     1      25.507   5.986  49.762  1.00  0.00     0.018 A 
HETATM    8  C7  UNL     1      26.280   4.932  49.321  1.00  0.00     0.048 A 
HETATM    9  C9  UNL     1      27.476   5.060  48.650  1.00  0.00     0.026 A 
HETATM   10  C10 UNL     1      27.947   6.326  48.394  1.00  0.00    -0.021 A 
BRANCH   8  11
HETATM   11  C8  UNL     1      25.779   3.562  49.593  1.00  0.00     0.417 C 
HETATM   12  F1  UNL     1      24.582   3.374  48.936  1.00  0.00    -0.166 F 
HETATM   13  F2  UNL     1      26.731   2.633  49.185  1.00  0.00    -0.166 F 
HETATM   14  F3  UNL     1      25.525   3.466  50.938  1.00  0.00    -0.166 F 
ENDBRANCH   8  11
BRANCH  10  15
HETATM   15  C11 UNL     1      29.216   6.567  47.694  1.00  0.00     0.144 C 
BRANCH  15  16
HETATM   16  C12 UNL     1      30.376   5.841  48.295  1.00  0.00     0.226 C 
HETATM   17  O1  UNL     1      30.885   5.392  49.340  1.00  0.00    -0.273 OA
HETATM   18  N2  UNL     1      31.296   5.519  47.251  1.00  0.00    -0.327 N 
HETATM   19  H10 UNL     1      31.344   5.669  46.199  1.00  0.00     0.169 HD
BRANCH  18  20
HETATM   20  C13 UNL     1      32.526   4.821  47.459  1.00  0.00     0.034 A 
HETATM   21  C14 UNL     1      33.686   5.472  47.862  1.00  0.00     0.029 A 
HETATM   22  C15 UNL     1      34.825   4.689  48.032  1.00  0.00     0.002 A 
HETATM   23  C16 UNL     1      34.825   3.324  47.817  1.00  0.00     0.000 A 
HETATM   24  C17 UNL     1      33.643   2.730  47.417  1.00  0.00     0.002 A 
HETATM   25  C18 UNL     1      32.456   3.446  47.223  1.00  0.00     0.029 A 
ENDBRANCH  18  20
ENDBRANCH  15  16
ENDBRANCH  10  15
ENDBRANCH   3   5
TORSDOF 5
ENDMDL
MODEL 8
REMARK VINA RESULT:      -7.5      1.488      2.087
REMARK  5 active torsions:
REMARK  status: ('A' for Active; 'I' for Inactive)
REMARK    1  A    between atoms: N1_3  and  C4_5 
REMARK    2  A    between atoms: C7_8  and  C8_9 
REMARK    3  A    between atoms: C10_14  and  C11_15 
REMARK    4  A    between atoms: C11_15  and  C12_16 
REMARK       I    between atoms: C12_16  and  N2_18 
REMARK    5  A    between atoms: N2_18  and  C13_19 
ROOT
HETATM    1  C1  UNL     1      23.933   6.658  51.161  1.00  0.00     0.037 C 
HETATM    2  C2  UNL     1      24.153   5.476  50.890  1.00  0.00     0.002 C 
HETATM    3  N1  UNL     1      24.405   4.113  50.553  1.00  0.00    -0.311 N 
HETATM    4  C3  UNL     1      25.495   4.020  49.581  1.00  0.00     0.167 C 
ENDROOT
BRANCH   3   5
HETATM    5  C4  UNL     1      23.525   3.251  51.261  1.00  0.00     0.048 A 
HETATM    6  C5  UNL     1      22.274   3.164  50.645  1.00  0.00     0.031 A 
HETATM    7  C6  UNL     1      21.235   2.373  51.142  1.00  0.00     0.018 A 
HETATM    8  C7  UNL     1      21.543   1.681  52.294  1.00  0.00     0.048 A 
HETATM    9  C9  UNL     1      22.759   1.731  52.942  1.00  0.00     0.026 A 
HETATM   10  C10 UNL     1      23.746   2.526  52.410  1.00  0.00    -0.021 A 
BRANCH   8  11
HETATM   11  C8  UNL     1      20.482   0.821  52.875  1.00  0.00     0.417 C 
HETATM   12  F1  UNL     1      20.636   0.768  54.244  1.00  0.00    -0.166 F 
HETATM   13  F2  UNL     1      19.235   1.328  52.526  1.00  0.00    -0.166 F 
HETATM   14  F3  UNL     1      20.662  -0.452  52.394  1.00  0.00    -0.166 F 
ENDBRANCH   8  11
BRANCH  10  15
HETATM   15  C11 UNL     1      25.072   2.654  53.031  1.00  0.00     0.144 C 
BRANCH  15  16
HETATM   16  C12 UNL     1      26.076   1.681  52.502  1.00  0.00     0.226 C 
HETATM   17  O1  UNL     1      26.725   1.304  51.507  1.00  0.00    -0.273 OA
HETATM   18  N2  UNL     1      26.467   0.813  53.567  1.00  0.00    -0.327 N 
HETATM   19  H10 UNL     1      26.221   0.704  54.595  1.00  0.00     0.169 HD
BRANCH  18  20
HETATM   20  C13 UNL     1      27.417  -0.245  53.424  1.00  0.00     0.034 A 
HETATM   21  C14 UNL     1      27.063  -1.494  52.925  1.00  0.00     0.029 A 
HETATM   22  C15 UNL     1      28.074  -2.448  52.832  1.00  0.00     0.002 A 
HETATM   23  C16 UNL     1      29.376  -2.187  53.213  1.00  0.00     0.000 A 
HETATM   24  C17 UNL     1      29.670  -0.928  53.703  1.00  0.00     0.002 A 
HETATM   25  C18 UNL     1      28.713   0.085  53.828  1.00  0.00     0.029 A 
ENDBRANCH  18  20
ENDBRANCH  15  16
ENDBRANCH  10  15
ENDBRANCH   3   5
TORSDOF 5
ENDMDL
MODEL 9
REMARK VINA RESULT:      -7.5      3.097      4.289
REMARK  5 active torsions:
REMARK  status: ('A' for Active; 'I' for Inactive)
REMARK    1  A    between atoms: N1_3  and  C4_5 
REMARK    2  A    between atoms: C7_8  and  C8_9 
REMARK    3  A    between atoms: C10_14  and  C11_15 
REMARK    4  A    between atoms: C11_15  and  C12_16 
REMARK       I    between atoms: C12_16  and  N2_18 
REMARK    5  A    between atoms: N2_18  and  C13_19 
ROOT
HETATM    1  C1  UNL     1      23.517  -1.431  54.025  1.00  0.00     0.037 C 
HETATM    2  C2  UNL     1      22.686  -0.572  53.726  1.00  0.00     0.002 C 
HETATM    3  N1  UNL     1      21.705   0.405  53.385  1.00  0.00    -0.311 N 
HETATM    4  C3  UNL     1      20.729   0.551  54.466  1.00  0.00     0.167 C 
ENDROOT
BRANCH   3   5
HETATM    5  C4  UNL     1      21.966   0.949  52.099  1.00  0.00     0.048 A 
HETATM    6  C5  UNL     1      21.025   0.528  51.155  1.00  0.00     0.031 A 
HETATM    7  C6  UNL     1      21.058   0.930  49.817  1.00  0.00     0.018 A 
HETATM    8  C7  UNL     1      22.097   1.780  49.500  1.00  0.00     0.048 A 
HETATM    9  C9  UNL     1      23.051   2.224  50.390  1.00  0.00     0.026 A 
HETATM   10  C10 UNL     1      22.972   1.797  51.694  1.00  0.00    -0.021 A 
BRANCH   8  11
HETATM   11  C8  UNL     1      22.189   2.245  48.093  1.00  0.00     0.417 C 
HETATM   12  F1  UNL     1      20.924   2.518  47.619  1.00  0.00    -0.166 F 
HETATM   13  F2  UNL     1      23.006   3.369  48.032  1.00  0.00    -0.166 F 
HETATM   14  F3  UNL     1      22.694   1.213  47.341  1.00  0.00    -0.166 F 
ENDBRANCH   8  11
BRANCH  10  15
HETATM   15  C11 UNL     1      23.945   2.207  52.715  1.00  0.00     0.144 C 
BRANCH  15  16
HETATM   16  C12 UNL     1      25.351   1.816  52.391  1.00  0.00     0.226 C 
HETATM   17  O1  UNL     1      26.270   1.866  51.551  1.00  0.00    -0.273 OA
HETATM   18  N2  UNL     1      25.880   1.078  53.495  1.00  0.00    -0.327 N 
HETATM   19  H10 UNL     1      25.522   0.758  54.443  1.00  0.00     0.169 HD
BRANCH  18  20
HETATM   20  C13 UNL     1      27.204   0.544  53.535  1.00  0.00     0.034 A 
HETATM   21  C14 UNL     1      28.299   1.311  53.918  1.00  0.00     0.029 A 
HETATM   22  C15 UNL     1      29.542   0.684  53.919  1.00  0.00     0.002 A 
HETATM   23  C16 UNL     1      29.704  -0.640  53.560  1.00  0.00     0.000 A 
HETATM   24  C17 UNL     1      28.581  -1.354  53.187  1.00  0.00     0.002 A 
HETATM   25  C18 UNL     1      27.297  -0.797  53.159  1.00  0.00     0.029 A 
ENDBRANCH  18  20
ENDBRANCH  15  16
ENDBRANCH  10  15
ENDBRANCH   3   5
TORSDOF 5
ENDMDL
