MODEL 1
REMARK VINA RESULT:      -7.6      0.000      0.000
REMARK  2 active torsions:
REMARK  status: ('A' for Active; 'I' for Inactive)
REMARK       I    between atoms: N1_5  and  C5_6 
REMARK    1  A    between atoms: C5_6  and  C6_8 
REMARK    2  A    between atoms: C8_11  and  N3_12 
ROOT
HETATM    1  C6  UNL     1      21.583   0.241  53.650  1.00  0.00     0.226 C 
HETATM    2  C7  UNL     1      21.503  -0.989  54.416  1.00  0.00     0.068 C 
HETATM    3  N2  UNL     1      21.427  -1.980  55.021  1.00  0.00    -0.197 NA
ENDROOT
BRANCH   1   4
HETATM    4  C5  UNL     1      22.951   0.449  53.086  1.00  0.00     0.234 C 
HETATM    5  N1  UNL     1      23.101   1.364  52.010  1.00  0.00    -0.330 N 
HETATM    6  C4  UNL     1      22.046   2.155  51.362  1.00  0.00     0.128 C 
HETATM    7  C8  UNL     1      24.386   1.646  51.381  1.00  0.00     0.194 C 
HETATM    8  C3  UNL     1      22.801   3.143  50.505  1.00  0.00     0.028 C 
HETATM    9  C2  UNL     1      24.244   3.083  50.965  1.00  0.00     0.026 C 
HETATM   10  C1  UNL     1      25.094   3.343  49.740  1.00  0.00     0.014 C 
HETATM   11  O1  UNL     1      23.869  -0.234  53.644  1.00  0.00    -0.272 OA
BRANCH   7  12
HETATM   12  N3  UNL     1      25.485   1.403  52.254  1.00  0.00    -0.349 N 
HETATM   13  C9  UNL     1      25.710   2.330  53.278  1.00  0.00     0.209 A 
HETATM   14  N4  UNL     1      26.688   2.165  54.102  1.00  0.00    -0.226 NA
HETATM   15  C10 UNL     1      27.570   1.028  53.989  1.00  0.00     0.139 A 
HETATM   16  C11 UNL     1      27.416   0.130  53.061  1.00  0.00    -0.005 A 
HETATM   17  N5  UNL     1      28.663   0.803  54.875  1.00  0.00    -0.314 N 
HETATM   18  C12 UNL     1      28.344  -1.031  52.972  1.00  0.00     0.137 C 
HETATM   19  C13 UNL     1      26.319   0.235  52.065  1.00  0.00     0.165 A 
HETATM   20  S1  UNL     1      29.619  -0.502  54.159  1.00  0.00    -0.050 SA
HETATM   21  H15 UNL     1      28.921   1.259  55.771  1.00  0.00     0.175 HD
ENDBRANCH   7  12
ENDBRANCH   1   4
TORSDOF 2
ENDMDL
MODEL 2
REMARK VINA RESULT:      -7.6      1.973      4.236
REMARK  2 active torsions:
REMARK  status: ('A' for Active; 'I' for Inactive)
REMARK       I    between atoms: N1_5  and  C5_6 
REMARK    1  A    between atoms: C5_6  and  C6_8 
REMARK    2  A    between atoms: C8_11  and  N3_12 
ROOT
HETATM    1  C6  UNL     1      25.804   3.486  49.323  1.00  0.00     0.226 C 
HETATM    2  C7  UNL     1      27.040   4.220  49.123  1.00  0.00     0.068 C 
HETATM    3  N2  UNL     1      28.023   4.821  48.957  1.00  0.00    -0.197 NA
ENDROOT
BRANCH   1   4
HETATM    4  C5  UNL     1      25.741   2.878  50.687  1.00  0.00     0.234 C 
HETATM    5  N1  UNL     1      24.487   2.404  51.153  1.00  0.00    -0.330 N 
HETATM    6  C4  UNL     1      23.202   2.440  50.441  1.00  0.00     0.128 C 
HETATM    7  C8  UNL     1      24.307   1.794  52.465  1.00  0.00     0.194 C 
HETATM    8  C3  UNL     1      22.298   1.560  51.270  1.00  0.00     0.028 C 
HETATM    9  C2  UNL     1      23.202   0.803  52.222  1.00  0.00     0.026 C 
HETATM   10  C1  UNL     1      22.410   0.604  53.497  1.00  0.00     0.014 C 
HETATM   11  O1  UNL     1      26.852   2.845  51.309  1.00  0.00    -0.272 OA
BRANCH   7  12
HETATM   12  N3  UNL     1      25.506   1.211  52.964  1.00  0.00    -0.349 N 
HETATM   13  C9  UNL     1      26.209   1.923  53.943  1.00  0.00     0.209 A 
HETATM   14  N4  UNL     1      27.301   1.448  54.435  1.00  0.00    -0.226 NA
HETATM   15  C10 UNL     1      27.824   0.177  53.993  1.00  0.00     0.139 A 
HETATM   16  C11 UNL     1      27.220  -0.535  53.088  1.00  0.00    -0.005 A 
HETATM   17  N5  UNL     1      29.026  -0.389  54.508  1.00  0.00    -0.314 N 
HETATM   18  C12 UNL     1      27.786  -1.842  52.653  1.00  0.00     0.137 C 
HETATM   19  C13 UNL     1      25.956  -0.070  52.461  1.00  0.00     0.165 A 
HETATM   20  S1  UNL     1      29.418  -1.757  53.456  1.00  0.00    -0.050 SA
HETATM   21  H15 UNL     1      29.613  -0.122  55.321  1.00  0.00     0.175 HD
ENDBRANCH   7  12
ENDBRANCH   1   4
TORSDOF 2
ENDMDL
MODEL 3
REMARK VINA RESULT:      -7.1      3.330      5.806
REMARK  2 active torsions:
REMARK  status: ('A' for Active; 'I' for Inactive)
REMARK       I    between atoms: N1_5  and  C5_6 
REMARK    1  A    between atoms: C5_6  and  C6_8 
REMARK    2  A    between atoms: C8_11  and  N3_12 
ROOT
HETATM    1  C6  UNL     1      27.540   0.874  52.716  1.00  0.00     0.226 C 
HETATM    2  C7  UNL     1      28.302   1.769  53.567  1.00  0.00     0.068 C 
HETATM    3  N2  UNL     1      28.925   2.484  54.240  1.00  0.00    -0.197 NA
ENDROOT
BRANCH   1   4
HETATM    4  C5  UNL     1      26.305   1.531  52.193  1.00  0.00     0.234 C 
HETATM    5  N1  UNL     1      25.061   0.875  52.389  1.00  0.00    -0.330 N 
HETATM    6  C4  UNL     1      24.830  -0.411  53.062  1.00  0.00     0.128 C 
HETATM    7  C8  UNL     1      23.792   1.421  51.922  1.00  0.00     0.194 C 
HETATM    8  C3  UNL     1      23.332  -0.473  53.233  1.00  0.00     0.028 C 
HETATM    9  C2  UNL     1      22.817   0.924  52.952  1.00  0.00     0.026 C 
HETATM   10  C1  UNL     1      21.451   0.758  52.319  1.00  0.00     0.014 C 
HETATM   11  O1  UNL     1      26.499   2.646  51.608  1.00  0.00    -0.272 OA
BRANCH   7  12
HETATM   12  N3  UNL     1      23.824   2.839  51.793  1.00  0.00    -0.349 N 
HETATM   13  C9  UNL     1      23.786   3.593  52.971  1.00  0.00     0.209 A 
HETATM   14  N4  UNL     1      23.813   4.881  52.921  1.00  0.00    -0.226 NA
HETATM   15  C10 UNL     1      23.883   5.574  51.657  1.00  0.00     0.139 A 
HETATM   16  C11 UNL     1      23.922   4.933  50.525  1.00  0.00    -0.005 A 
HETATM   17  N5  UNL     1      23.916   6.994  51.551  1.00  0.00    -0.314 N 
HETATM   18  C12 UNL     1      23.995   5.678  49.237  1.00  0.00     0.137 C 
HETATM   19  C13 UNL     1      23.894   3.448  50.482  1.00  0.00     0.165 A 
HETATM   20  S1  UNL     1      23.679   7.367  49.837  1.00  0.00    -0.050 SA
HETATM   21  H15 UNL     1      24.048   7.730  52.271  1.00  0.00     0.175 HD
ENDBRANCH   7  12
ENDBRANCH   1   4
TORSDOF 2
ENDMDL
MODEL 4
REMARK VINA RESULT:      -6.9      2.695      5.558
REMARK  2 active torsions:
REMARK  status: ('A' for Active; 'I' for Inactive)
REMARK       I    between atoms: N1_5  and  C5_6 
REMARK    1  A    between atoms: C5_6  and  C6_8 
REMARK    2  A    between atoms: C8_11  and  N3_12 
ROOT
HETATM    1  C6  UNL     1      25.868  -0.544  54.018  1.00  0.00     0.226 C 
HETATM    2  C7  UNL     1      26.802   0.502  54.392  1.00  0.00     0.068 C 
HETATM    3  N2  UNL     1      27.563   1.332  54.685  1.00  0.00    -0.197 NA
ENDROOT
BRANCH   1   4
HETATM    4  C5  UNL     1      24.770  -0.017  53.153  1.00  0.00     0.234 C 
HETATM    5  N1  UNL     1      23.429  -0.316  53.513  1.00  0.00    -0.330 N 
HETATM    6  C4  UNL     1      22.973  -1.104  54.666  1.00  0.00     0.128 C 
HETATM    7  C8  UNL     1      22.279   0.144  52.744  1.00  0.00     0.194 C 
HETATM    8  C3  UNL     1      21.485  -0.853  54.717  1.00  0.00     0.028 C 
HETATM    9  C2  UNL     1      21.224   0.324  53.799  1.00  0.00     0.026 C 
HETATM   10  C1  UNL     1      19.855   0.097  53.192  1.00  0.00     0.014 C 
HETATM   11  O1  UNL     1      25.160   0.666  52.151  1.00  0.00    -0.272 OA
BRANCH   7  12
HETATM   12  N3  UNL     1      22.559   1.325  51.999  1.00  0.00    -0.349 N 
HETATM   13  C9  UNL     1      22.536   1.225  50.603  1.00  0.00     0.209 A 
HETATM   14  N4  UNL     1      22.779   2.259  49.872  1.00  0.00    -0.226 NA
HETATM   15  C10 UNL     1      23.080   3.537  50.471  1.00  0.00     0.139 A 
HETATM   16  C11 UNL     1      23.117   3.698  51.761  1.00  0.00    -0.005 A 
HETATM   17  N5  UNL     1      23.355   4.707  49.706  1.00  0.00    -0.314 N 
HETATM   18  C12 UNL     1      23.430   5.031  52.348  1.00  0.00     0.137 C 
HETATM   19  C13 UNL     1      22.851   2.565  52.685  1.00  0.00     0.165 A 
HETATM   20  S1  UNL     1      23.968   5.911  50.848  1.00  0.00    -0.050 SA
HETATM   21  H15 UNL     1      23.248   4.901  48.692  1.00  0.00     0.175 HD
ENDBRANCH   7  12
ENDBRANCH   1   4
TORSDOF 2
ENDMDL
MODEL 5
REMARK VINA RESULT:      -6.7      3.241      5.749
REMARK  2 active torsions:
REMARK  status: ('A' for Active; 'I' for Inactive)
REMARK       I    between atoms: N1_5  and  C5_6 
REMARK    1  A    between atoms: C5_6  and  C6_8 
REMARK    2  A    between atoms: C8_11  and  N3_12 
ROOT
HETATM    1  C6  UNL     1      25.540  -0.086  54.008  1.00  0.00     0.226 C 
HETATM    2  C7  UNL     1      26.445  -1.054  53.416  1.00  0.00     0.068 C 
HETATM    3  N2  UNL     1      27.168  -1.840  52.955  1.00  0.00    -0.197 NA
ENDROOT
BRANCH   1   4
HETATM    4  C5  UNL     1      24.423   0.262  53.078  1.00  0.00     0.234 C 
HETATM    5  N1  UNL     1      23.116  -0.191  53.400  1.00  0.00    -0.330 N 
HETATM    6  C4  UNL     1      22.712  -0.983  54.569  1.00  0.00     0.128 C 
HETATM    7  C8  UNL     1      21.952   0.088  52.567  1.00  0.00     0.194 C 
HETATM    8  C3  UNL     1      21.204  -0.922  54.552  1.00  0.00     0.028 C 
HETATM    9  C2  UNL     1      20.837   0.174  53.572  1.00  0.00     0.026 C 
HETATM   10  C1  UNL     1      19.536  -0.249  52.924  1.00  0.00     0.014 C 
HETATM   11  O1  UNL     1      24.767   0.948  52.062  1.00  0.00    -0.272 OA
BRANCH   7  12
HETATM   12  N3  UNL     1      22.113   1.264  51.780  1.00  0.00    -0.349 N 
HETATM   13  C9  UNL     1      22.136   2.490  52.455  1.00  0.00     0.209 A 
HETATM   14  N4  UNL     1      22.281   3.591  51.799  1.00  0.00    -0.226 NA
HETATM   15  C10 UNL     1      22.421   3.587  50.362  1.00  0.00     0.139 A 
HETATM   16  C11 UNL     1      22.408   2.482  49.675  1.00  0.00    -0.005 A 
HETATM   17  N5  UNL     1      22.584   4.776  49.595  1.00  0.00    -0.314 N 
HETATM   18  C12 UNL     1      22.556   2.512  48.194  1.00  0.00     0.137 C 
HETATM   19  C13 UNL     1      22.246   1.165  50.343  1.00  0.00     0.165 A 
HETATM   20  S1  UNL     1      22.391   4.301  47.901  1.00  0.00    -0.050 SA
HETATM   21  H15 UNL     1      22.777   5.754  49.884  1.00  0.00     0.175 HD
ENDBRANCH   7  12
ENDBRANCH   1   4
TORSDOF 2
ENDMDL
MODEL 6
REMARK VINA RESULT:      -6.7      1.918      4.028
REMARK  2 active torsions:
REMARK  status: ('A' for Active; 'I' for Inactive)
REMARK       I    between atoms: N1_5  and  C5_6 
REMARK    1  A    between atoms: C5_6  and  C6_8 
REMARK    2  A    between atoms: C8_11  and  N3_12 
ROOT
HETATM    1  C6  UNL     1      23.693   2.528  50.506  1.00  0.00     0.226 C 
HETATM    2  C7  UNL     1      23.744   3.963  50.715  1.00  0.00     0.068 C 
HETATM    3  N2  UNL     1      23.769   5.115  50.880  1.00  0.00    -0.197 NA
ENDROOT
BRANCH   1   4
HETATM    4  C5  UNL     1      24.317   1.785  51.643  1.00  0.00     0.234 C 
HETATM    5  N1  UNL     1      23.464   1.093  52.542  1.00  0.00    -0.330 N 
HETATM    6  C4  UNL     1      21.998   1.014  52.493  1.00  0.00     0.128 C 
HETATM    7  C8  UNL     1      23.961   0.336  53.685  1.00  0.00     0.194 C 
HETATM    8  C3  UNL     1      21.654  -0.065  53.492  1.00  0.00     0.028 C 
HETATM    9  C2  UNL     1      22.954  -0.773  53.812  1.00  0.00     0.026 C 
HETATM   10  C1  UNL     1      22.859  -1.209  55.259  1.00  0.00     0.014 C 
HETATM   11  O1  UNL     1      25.589   1.851  51.691  1.00  0.00    -0.272 OA
BRANCH   7  12
HETATM   12  N3  UNL     1      25.298  -0.115  53.500  1.00  0.00    -0.349 N 
HETATM   13  C9  UNL     1      25.493  -1.229  52.676  1.00  0.00     0.209 A 
HETATM   14  N4  UNL     1      26.681  -1.685  52.467  1.00  0.00    -0.226 NA
HETATM   15  C10 UNL     1      27.832  -1.063  53.076  1.00  0.00     0.139 A 
HETATM   16  C11 UNL     1      27.721  -0.025  53.852  1.00  0.00    -0.005 A 
HETATM   17  N5  UNL     1      29.163  -1.531  52.875  1.00  0.00    -0.314 N 
HETATM   18  C12 UNL     1      28.929   0.593  54.464  1.00  0.00     0.137 C 
HETATM   19  C13 UNL     1      26.394   0.571  54.152  1.00  0.00     0.165 A 
HETATM   20  S1  UNL     1      30.170  -0.674  54.051  1.00  0.00    -0.050 SA
HETATM   21  H15 UNL     1      29.551  -2.222  52.206  1.00  0.00     0.175 HD
ENDBRANCH   7  12
ENDBRANCH   1   4
TORSDOF 2
ENDMDL
MODEL 7
REMARK VINA RESULT:      -6.6      2.242      4.227
REMARK  2 active torsions:
REMARK  status: ('A' for Active; 'I' for Inactive)
REMARK       I    between atoms: N1_5  and  C5_6 
REMARK    1  A    between atoms: C5_6  and  C6_8 
REMARK    2  A    between atoms: C8_11  and  N3_12 
ROOT
HETATM    1  C6  UNL     1      21.615   1.120  48.851  1.00  0.00     0.226 C 
HETATM    2  C7  UNL     1      21.944   2.211  47.952  1.00  0.00     0.068 C 
HETATM    3  N2  UNL     1      22.192   3.087  47.228  1.00  0.00    -0.197 NA
ENDROOT
BRANCH   1   4
HETATM    4  C5  UNL     1      22.116   1.378  50.235  1.00  0.00     0.234 C 
HETATM    5  N1  UNL     1      21.290   1.007  51.329  1.00  0.00    -0.330 N 
HETATM    6  C4  UNL     1      19.961   0.383  51.267  1.00  0.00     0.128 C 
HETATM    7  C8  UNL     1      21.675   1.211  52.720  1.00  0.00     0.194 C 
HETATM    8  C3  UNL     1      19.689  -0.044  52.689  1.00  0.00     0.028 C 
HETATM    9  C2  UNL     1      21.013   0.057  53.421  1.00  0.00     0.026 C 
HETATM   10  C1  UNL     1      20.685   0.450  54.846  1.00  0.00     0.014 C 
HETATM   11  O1  UNL     1      23.268   1.920  50.294  1.00  0.00    -0.272 OA
BRANCH   7  12
HETATM   12  N3  UNL     1      23.088   1.258  52.893  1.00  0.00    -0.349 N 
HETATM   13  C9  UNL     1      23.676   2.520  53.034  1.00  0.00     0.209 A 
HETATM   14  N4  UNL     1      24.951   2.629  53.195  1.00  0.00    -0.226 NA
HETATM   15  C10 UNL     1      25.798   1.461  53.233  1.00  0.00     0.139 A 
HETATM   16  C11 UNL     1      25.314   0.260  53.109  1.00  0.00    -0.005 A 
HETATM   17  N5  UNL     1      27.210   1.531  53.409  1.00  0.00    -0.314 N 
HETATM   18  C12 UNL     1      26.215  -0.925  53.153  1.00  0.00     0.137 C 
HETATM   19  C13 UNL     1      23.858   0.033  52.918  1.00  0.00     0.165 A 
HETATM   20  S1  UNL     1      27.831  -0.091  53.071  1.00  0.00    -0.050 SA
HETATM   21  H15 UNL     1      27.826   2.322  53.678  1.00  0.00     0.175 HD
ENDBRANCH   7  12
ENDBRANCH   1   4
TORSDOF 2
ENDMDL
MODEL 8
REMARK VINA RESULT:      -6.5      3.113      4.987
REMARK  2 active torsions:
REMARK  status: ('A' for Active; 'I' for Inactive)
REMARK       I    between atoms: N1_5  and  C5_6 
REMARK    1  A    between atoms: C5_6  and  C6_8 
REMARK    2  A    between atoms: C8_11  and  N3_12 
ROOT
HETATM    1  C6  UNL     1      22.226  -0.905  53.610  1.00  0.00     0.226 C 
HETATM    2  C7  UNL     1      20.780  -0.791  53.561  1.00  0.00     0.068 C 
HETATM    3  N2  UNL     1      19.620  -0.706  53.537  1.00  0.00    -0.197 NA
ENDROOT
BRANCH   1   4
HETATM    4  C5  UNL     1      22.891   0.395  53.294  1.00  0.00     0.234 C 
HETATM    5  N1  UNL     1      24.310   0.431  53.253  1.00  0.00    -0.330 N 
HETATM    6  C4  UNL     1      25.234  -0.685  53.490  1.00  0.00     0.128 C 
HETATM    7  C8  UNL     1      25.065   1.643  52.956  1.00  0.00     0.194 C 
HETATM    8  C3  UNL     1      26.574  -0.156  53.037  1.00  0.00     0.028 C 
HETATM    9  C2  UNL     1      26.285   1.111  52.257  1.00  0.00     0.026 C 
HETATM   10  C1  UNL     1      27.455   2.040  52.503  1.00  0.00     0.014 C 
HETATM   11  O1  UNL     1      22.093   1.368  53.089  1.00  0.00    -0.272 OA
BRANCH   7  12
HETATM   12  N3  UNL     1      24.317   2.576  52.184  1.00  0.00    -0.349 N 
HETATM   13  C9  UNL     1      23.883   3.741  52.826  1.00  0.00     0.209 A 
HETATM   14  N4  UNL     1      23.202   4.626  52.180  1.00  0.00    -0.226 NA
HETATM   15  C10 UNL     1      22.872   4.438  50.787  1.00  0.00     0.139 A 
HETATM   16  C11 UNL     1      23.245   3.378  50.132  1.00  0.00    -0.005 A 
HETATM   17  N5  UNL     1      22.124   5.386  50.032  1.00  0.00    -0.314 N 
HETATM   18  C12 UNL     1      22.889   3.214  48.695  1.00  0.00     0.137 C 
HETATM   19  C13 UNL     1      24.032   2.304  50.791  1.00  0.00     0.165 A 
HETATM   20  S1  UNL     1      21.707   4.586  48.510  1.00  0.00    -0.050 SA
HETATM   21  H15 UNL     1      21.839   6.359  50.249  1.00  0.00     0.175 HD
ENDBRANCH   7  12
ENDBRANCH   1   4
TORSDOF 2
ENDMDL
MODEL 9
REMARK VINA RESULT:      -6.5      3.514      5.761
REMARK  2 active torsions:
REMARK  status: ('A' for Active; 'I' for Inactive)
REMARK       I    between atoms: N1_5  and  C5_6 
REMARK    1  A    between atoms: C5_6  and  C6_8 
REMARK    2  A    between atoms: C8_11  and  N3_12 
ROOT
HETATM    1  C6  UNL     1      25.701   0.248  52.822  1.00  0.00     0.226 C 
HETATM    2  C7  UNL     1      26.290   0.482  54.127  1.00  0.00     0.068 C 
HETATM    3  N2  UNL     1      26.775   0.667  55.168  1.00  0.00    -0.197 NA
ENDROOT
BRANCH   1   4
HETATM    4  C5  UNL     1      24.797   1.367  52.418  1.00  0.00     0.234 C 
HETATM    5  N1  UNL     1      25.274   2.306  51.465  1.00  0.00    -0.330 N 
HETATM    6  C4  UNL     1      26.588   2.315  50.808  1.00  0.00     0.128 C 
HETATM    7  C8  UNL     1      24.481   3.436  50.999  1.00  0.00     0.194 C 
HETATM    8  C3  UNL     1      26.441   3.338  49.707  1.00  0.00     0.028 C 
HETATM    9  C2  UNL     1      24.956   3.614  49.583  1.00  0.00     0.026 C 
HETATM   10  C1  UNL     1      24.823   5.068  49.183  1.00  0.00     0.014 C 
HETATM   11  O1  UNL     1      23.656   1.364  52.985  1.00  0.00    -0.272 OA
BRANCH   7  12
HETATM   12  N3  UNL     1      23.081   3.204  51.113  1.00  0.00    -0.349 N 
HETATM   13  C9  UNL     1      22.392   3.902  52.112  1.00  0.00     0.209 A 
HETATM   14  N4  UNL     1      21.123   3.736  52.265  1.00  0.00    -0.226 NA
HETATM   15  C10 UNL     1      20.384   2.831  51.417  1.00  0.00     0.139 A 
HETATM   16  C11 UNL     1      20.963   2.152  50.470  1.00  0.00    -0.005 A 
HETATM   17  N5  UNL     1      18.982   2.615  51.547  1.00  0.00    -0.314 N 
HETATM   18  C12 UNL     1      20.173   1.227  49.612  1.00  0.00     0.137 C 
HETATM   19  C13 UNL     1      22.422   2.277  50.218  1.00  0.00     0.165 A 
HETATM   20  S1  UNL     1      18.601   1.218  50.531  1.00  0.00    -0.050 SA
HETATM   21  H15 UNL     1      18.262   3.120  52.098  1.00  0.00     0.175 HD
ENDBRANCH   7  12
ENDBRANCH   1   4
TORSDOF 2
ENDMDL
