MODEL 1
REMARK VINA RESULT:      -6.6      0.000      0.000
REMARK  6 active torsions:
REMARK  status: ('A' for Active; 'I' for Inactive)
REMARK    1  A    between atoms: O1_2  and  C2_3 
REMARK    2  A    between atoms: C2_3  and  C3_5 
REMARK    3  A    between atoms: C3_5  and  C4_6 
REMARK    4  A    between atoms: C4_6  and  C5_7 
REMARK    5  A    between atoms: C5_7  and  C6_8 
REMARK    6  A    between atoms: C6_8  and  O4_10 
ROOT
HETATM    1  C4  UNL     1      25.894   0.484  52.736  1.00  0.00     0.059 A 
HETATM    2  C8  UNL     1      25.782   1.700  53.564  1.00  0.00     0.092 A 
HETATM    3  S1  UNL     1      24.452   2.661  53.440  1.00  0.00    -0.064 SA
HETATM    4  N1  UNL     1      26.926   1.856  54.396  1.00  0.00    -0.349 N 
HETATM    5  C9  UNL     1      27.804   0.745  54.125  1.00  0.00     0.040 A 
HETATM    6  C10 UNL     1      29.035   0.448  54.677  1.00  0.00     0.030 A 
HETATM    7  C11 UNL     1      29.684  -0.702  54.235  1.00  0.00     0.002 A 
HETATM    8  C12 UNL     1      29.093  -1.502  53.274  1.00  0.00     0.001 A 
HETATM    9  C13 UNL     1      27.859  -1.214  52.715  1.00  0.00     0.011 A 
HETATM   10  C14 UNL     1      27.229  -0.067  53.167  1.00  0.00    -0.015 A 
HETATM   11  H11 UNL     1      27.050   2.651  55.059  1.00  0.00     0.166 HD
ENDROOT
BRANCH   1  12
HETATM   12  C3  UNL     1      24.893  -0.576  53.034  1.00  0.00     0.133 C 
BRANCH  12  13
HETATM   13  C2  UNL     1      24.667  -0.791  54.483  1.00  0.00     0.259 C 
HETATM   14  O2  UNL     1      25.355  -0.947  55.531  1.00  0.00    -0.265 OA
BRANCH  13  15
HETATM   15  O1  UNL     1      23.324  -0.842  54.844  1.00  0.00    -0.326 OA
HETATM   16  C1  UNL     1      22.270  -0.621  53.930  1.00  0.00     0.213 C 
ENDBRANCH  13  15
ENDBRANCH  12  13
ENDBRANCH   1  12
BRANCH   1  17
HETATM   17  C5  UNL     1      26.039   0.814  51.268  1.00  0.00     0.133 C 
BRANCH  17  18
HETATM   18  C6  UNL     1      26.606   2.198  51.087  1.00  0.00     0.259 C 
HETATM   19  O3  UNL     1      27.615   2.776  51.569  1.00  0.00    -0.265 OA
BRANCH  18  20
HETATM   20  O4  UNL     1      25.851   2.970  50.214  1.00  0.00    -0.326 OA
HETATM   21  C7  UNL     1      26.466   4.044  49.486  1.00  0.00     0.213 C 
ENDBRANCH  18  20
ENDBRANCH  17  18
ENDBRANCH   1  17
TORSDOF 6
ENDMDL
MODEL 2
REMARK VINA RESULT:      -6.6      2.114      4.860
REMARK  6 active torsions:
REMARK  status: ('A' for Active; 'I' for Inactive)
REMARK    1  A    between atoms: O1_2  and  C2_3 
REMARK    2  A    between atoms: C2_3  and  C3_5 
REMARK    3  A    between atoms: C3_5  and  C4_6 
REMARK    4  A    between atoms: C4_6  and  C5_7 
REMARK    5  A    between atoms: C5_7  and  C6_8 
REMARK    6  A    between atoms: C6_8  and  O4_10 
ROOT
HETATM    1  C4  UNL     1      26.217   0.581  53.360  1.00  0.00     0.059 A 
HETATM    2  C8  UNL     1      27.038   0.289  54.551  1.00  0.00     0.092 A 
HETATM    3  S1  UNL     1      28.595   0.814  54.627  1.00  0.00    -0.064 SA
HETATM    4  N1  UNL     1      26.293  -0.453  55.512  1.00  0.00    -0.349 N 
HETATM    5  C9  UNL     1      24.976  -0.658  54.963  1.00  0.00     0.040 A 
HETATM    6  C10 UNL     1      23.894  -1.318  55.511  1.00  0.00     0.030 A 
HETATM    7  C11 UNL     1      22.720  -1.373  54.764  1.00  0.00     0.002 A 
HETATM    8  C12 UNL     1      22.668  -0.776  53.517  1.00  0.00     0.001 A 
HETATM    9  C13 UNL     1      23.746  -0.111  52.959  1.00  0.00     0.011 A 
HETATM   10  C14 UNL     1      24.904  -0.067  53.717  1.00  0.00    -0.015 A 
HETATM   11  H11 UNL     1      26.686  -0.763  56.426  1.00  0.00     0.166 HD
ENDROOT
BRANCH   1  12
HETATM   12  C3  UNL     1      25.920   2.022  53.136  1.00  0.00     0.133 C 
BRANCH  12  13
HETATM   13  C2  UNL     1      26.192   2.478  51.752  1.00  0.00     0.259 C 
HETATM   14  O2  UNL     1      27.174   2.883  51.070  1.00  0.00    -0.265 OA
BRANCH  13  15
HETATM   15  O1  UNL     1      25.072   2.476  50.926  1.00  0.00    -0.326 OA
HETATM   16  C1  UNL     1      24.352   3.646  50.597  1.00  0.00     0.213 C 
ENDBRANCH  13  15
ENDBRANCH  12  13
ENDBRANCH   1  12
BRANCH   1  17
HETATM   17  C5  UNL     1      26.720  -0.152  52.138  1.00  0.00     0.133 C 
BRANCH  17  18
HETATM   18  C6  UNL     1      26.891  -1.620  52.430  1.00  0.00     0.259 C 
HETATM   19  O3  UNL     1      26.324  -2.650  51.980  1.00  0.00    -0.265 OA
BRANCH  18  20
HETATM   20  O4  UNL     1      27.870  -1.860  53.385  1.00  0.00    -0.326 OA
HETATM   21  C7  UNL     1      28.928  -2.792  53.112  1.00  0.00     0.213 C 
ENDBRANCH  18  20
ENDBRANCH  17  18
ENDBRANCH   1  17
TORSDOF 6
ENDMDL
MODEL 3
REMARK VINA RESULT:      -6.3      3.055      5.253
REMARK  6 active torsions:
REMARK  status: ('A' for Active; 'I' for Inactive)
REMARK    1  A    between atoms: O1_2  and  C2_3 
REMARK    2  A    between atoms: C2_3  and  C3_5 
REMARK    3  A    between atoms: C3_5  and  C4_6 
REMARK    4  A    between atoms: C4_6  and  C5_7 
REMARK    5  A    between atoms: C5_7  and  C6_8 
REMARK    6  A    between atoms: C6_8  and  O4_10 
ROOT
HETATM    1  C4  UNL     1      24.459   2.124  51.891  1.00  0.00     0.059 A 
HETATM    2  C8  UNL     1      24.278   2.571  50.496  1.00  0.00     0.092 A 
HETATM    3  S1  UNL     1      25.428   3.498  49.772  1.00  0.00    -0.064 SA
HETATM    4  N1  UNL     1      23.048   2.091  49.964  1.00  0.00    -0.349 N 
HETATM    5  C9  UNL     1      22.405   1.324  51.003  1.00  0.00     0.040 A 
HETATM    6  C10 UNL     1      21.196   0.657  50.977  1.00  0.00     0.030 A 
HETATM    7  C11 UNL     1      20.801  -0.016  52.130  1.00  0.00     0.002 A 
HETATM    8  C12 UNL     1      21.613  -0.001  53.250  1.00  0.00     0.001 A 
HETATM    9  C13 UNL     1      22.827   0.663  53.286  1.00  0.00     0.011 A 
HETATM   10  C14 UNL     1      23.203   1.327  52.131  1.00  0.00    -0.015 A 
HETATM   11  H11 UNL     1      22.725   2.292  48.994  1.00  0.00     0.166 HD
ENDROOT
BRANCH   1  12
HETATM   12  C3  UNL     1      25.593   1.187  52.111  1.00  0.00     0.133 C 
BRANCH  12  13
HETATM   13  C2  UNL     1      26.775   1.820  52.743  1.00  0.00     0.259 C 
HETATM   14  O2  UNL     1      27.775   2.507  52.393  1.00  0.00    -0.265 OA
BRANCH  13  15
HETATM   15  O1  UNL     1      26.847   1.634  54.120  1.00  0.00    -0.326 OA
HETATM   16  C1  UNL     1      26.502   0.420  54.755  1.00  0.00     0.213 C 
ENDBRANCH  13  15
ENDBRANCH  12  13
ENDBRANCH   1  12
BRANCH   1  17
HETATM   17  C5  UNL     1      24.404   3.281  52.863  1.00  0.00     0.133 C 
BRANCH  17  18
HETATM   18  C6  UNL     1      23.311   4.245  52.481  1.00  0.00     0.259 C 
HETATM   19  O3  UNL     1      22.058   4.136  52.428  1.00  0.00    -0.265 OA
BRANCH  18  20
HETATM   20  O4  UNL     1      23.806   5.492  52.121  1.00  0.00    -0.326 OA
HETATM   21  C7  UNL     1      23.168   6.246  51.080  1.00  0.00     0.213 C 
ENDBRANCH  18  20
ENDBRANCH  17  18
ENDBRANCH   1  17
TORSDOF 6
ENDMDL
MODEL 4
REMARK VINA RESULT:      -6.2      4.092      5.473
REMARK  6 active torsions:
REMARK  status: ('A' for Active; 'I' for Inactive)
REMARK    1  A    between atoms: O1_2  and  C2_3 
REMARK    2  A    between atoms: C2_3  and  C3_5 
REMARK    3  A    between atoms: C3_5  and  C4_6 
REMARK    4  A    between atoms: C4_6  and  C5_7 
REMARK    5  A    between atoms: C5_7  and  C6_8 
REMARK    6  A    between atoms: C6_8  and  O4_10 
ROOT
HETATM    1  C4  UNL     1      22.468   2.247  51.924  1.00  0.00     0.059 A 
HETATM    2  C8  UNL     1      21.114   2.825  52.028  1.00  0.00     0.092 A 
HETATM    3  S1  UNL     1      20.710   4.144  51.131  1.00  0.00    -0.064 SA
HETATM    4  N1  UNL     1      20.319   2.094  52.955  1.00  0.00    -0.349 N 
HETATM    5  C9  UNL     1      21.140   1.028  53.472  1.00  0.00     0.040 A 
HETATM    6  C10 UNL     1      20.825   0.050  54.395  1.00  0.00     0.030 A 
HETATM    7  C11 UNL     1      21.814  -0.874  54.725  1.00  0.00     0.002 A 
HETATM    8  C12 UNL     1      23.061  -0.791  54.133  1.00  0.00     0.001 A 
HETATM    9  C13 UNL     1      23.386   0.184  53.206  1.00  0.00     0.011 A 
HETATM   10  C14 UNL     1      22.391   1.093  52.890  1.00  0.00    -0.015 A 
HETATM   11  H11 UNL     1      19.330   2.335  53.177  1.00  0.00     0.166 HD
ENDROOT
BRANCH   1  12
HETATM   12  C3  UNL     1      22.803   1.658  50.600  1.00  0.00     0.133 C 
BRANCH  12  13
HETATM   13  C2  UNL     1      21.642   1.048  49.909  1.00  0.00     0.259 C 
HETATM   14  O2  UNL     1      20.649   0.322  50.198  1.00  0.00    -0.265 OA
BRANCH  13  15
HETATM   15  O1  UNL     1      21.583   1.328  48.547  1.00  0.00    -0.326 OA
HETATM   16  C1  UNL     1      22.460   2.230  47.906  1.00  0.00     0.213 C 
ENDBRANCH  13  15
ENDBRANCH  12  13
ENDBRANCH   1  12
BRANCH   1  17
HETATM   17  C5  UNL     1      23.521   3.179  52.480  1.00  0.00     0.133 C 
BRANCH  17  18
HETATM   18  C6  UNL     1      24.420   3.682  51.381  1.00  0.00     0.259 C 
HETATM   19  O3  UNL     1      24.274   4.568  50.498  1.00  0.00    -0.265 OA
BRANCH  18  20
HETATM   20  O4  UNL     1      25.645   3.028  51.357  1.00  0.00    -0.326 OA
HETATM   21  C7  UNL     1      26.502   3.148  50.211  1.00  0.00     0.213 C 
ENDBRANCH  18  20
ENDBRANCH  17  18
ENDBRANCH   1  17
TORSDOF 6
ENDMDL
MODEL 5
REMARK VINA RESULT:      -6.1      4.897      7.285
REMARK  6 active torsions:
REMARK  status: ('A' for Active; 'I' for Inactive)
REMARK    1  A    between atoms: O1_2  and  C2_3 
REMARK    2  A    between atoms: C2_3  and  C3_5 
REMARK    3  A    between atoms: C3_5  and  C4_6 
REMARK    4  A    between atoms: C4_6  and  C5_7 
REMARK    5  A    between atoms: C5_7  and  C6_8 
REMARK    6  A    between atoms: C6_8  and  O4_10 
ROOT
HETATM    1  C4  UNL     1      20.949   1.075  51.548  1.00  0.00     0.059 A 
HETATM    2  C8  UNL     1      19.641   0.657  51.007  1.00  0.00     0.092 A 
HETATM    3  S1  UNL     1      18.525  -0.040  51.994  1.00  0.00    -0.064 SA
HETATM    4  N1  UNL     1      19.551   0.947  49.615  1.00  0.00    -0.349 N 
HETATM    5  C9  UNL     1      20.798   1.558  49.226  1.00  0.00     0.040 A 
HETATM    6  C10 UNL     1      21.198   2.016  47.986  1.00  0.00     0.030 A 
HETATM    7  C11 UNL     1      22.471   2.572  47.879  1.00  0.00     0.002 A 
HETATM    8  C12 UNL     1      23.286   2.649  48.994  1.00  0.00     0.001 A 
HETATM    9  C13 UNL     1      22.894   2.193  50.241  1.00  0.00     0.011 A 
HETATM   10  C14 UNL     1      21.626   1.645  50.328  1.00  0.00    -0.015 A 
HETATM   11  H11 UNL     1      18.711   0.732  49.038  1.00  0.00     0.166 HD
ENDROOT
BRANCH   1  12
HETATM   12  C3  UNL     1      20.896   2.178  52.545  1.00  0.00     0.133 C 
BRANCH  12  13
HETATM   13  C2  UNL     1      20.039   3.314  52.131  1.00  0.00     0.259 C 
HETATM   14  O2  UNL     1      18.808   3.581  52.039  1.00  0.00    -0.265 OA
BRANCH  13  15
HETATM   15  O1  UNL     1      20.750   4.436  51.715  1.00  0.00    -0.326 OA
HETATM   16  C1  UNL     1      20.489   5.110  50.501  1.00  0.00     0.213 C 
ENDBRANCH  13  15
ENDBRANCH  12  13
ENDBRANCH   1  12
BRANCH   1  17
HETATM   17  C5  UNL     1      21.787  -0.111  51.968  1.00  0.00     0.133 C 
BRANCH  17  18
HETATM   18  C6  UNL     1      22.561   0.202  53.223  1.00  0.00     0.259 C 
HETATM   19  O3  UNL     1      23.660   0.782  53.425  1.00  0.00    -0.265 OA
BRANCH  18  20
HETATM   20  O4  UNL     1      21.917  -0.247  54.368  1.00  0.00    -0.326 OA
HETATM   21  C7  UNL     1      21.222  -1.504  54.358  1.00  0.00     0.213 C 
ENDBRANCH  18  20
ENDBRANCH  17  18
ENDBRANCH   1  17
TORSDOF 6
ENDMDL
MODEL 6
REMARK VINA RESULT:      -6.1      2.226      2.678
REMARK  6 active torsions:
REMARK  status: ('A' for Active; 'I' for Inactive)
REMARK    1  A    between atoms: O1_2  and  C2_3 
REMARK    2  A    between atoms: C2_3  and  C3_5 
REMARK    3  A    between atoms: C3_5  and  C4_6 
REMARK    4  A    between atoms: C4_6  and  C5_7 
REMARK    5  A    between atoms: C5_7  and  C6_8 
REMARK    6  A    between atoms: C6_8  and  O4_10 
ROOT
HETATM    1  C4  UNL     1      24.511   1.780  52.380  1.00  0.00     0.059 A 
HETATM    2  C8  UNL     1      24.769   2.942  53.252  1.00  0.00     0.092 A 
HETATM    3  S1  UNL     1      23.761   4.241  53.213  1.00  0.00    -0.064 SA
HETATM    4  N1  UNL     1      25.934   2.734  54.045  1.00  0.00    -0.349 N 
HETATM    5  C9  UNL     1      26.455   1.434  53.703  1.00  0.00     0.040 A 
HETATM    6  C10 UNL     1      27.567   0.780  54.197  1.00  0.00     0.030 A 
HETATM    7  C11 UNL     1      27.854  -0.485  53.691  1.00  0.00     0.002 A 
HETATM    8  C12 UNL     1      27.035  -1.045  52.727  1.00  0.00     0.001 A 
HETATM    9  C13 UNL     1      25.918  -0.398  52.226  1.00  0.00     0.011 A 
HETATM   10  C14 UNL     1      25.649   0.859  52.740  1.00  0.00    -0.015 A 
HETATM   11  H11 UNL     1      26.294   3.433  54.729  1.00  0.00     0.166 HD
ENDROOT
BRANCH   1  12
HETATM   12  C3  UNL     1      23.261   1.031  52.680  1.00  0.00     0.133 C 
BRANCH  12  13
HETATM   13  C2  UNL     1      22.246   1.112  51.603  1.00  0.00     0.259 C 
HETATM   14  O2  UNL     1      21.900   0.451  50.583  1.00  0.00    -0.265 OA
BRANCH  13  15
HETATM   15  O1  UNL     1      21.406   2.217  51.699  1.00  0.00    -0.326 OA
HETATM   16  C1  UNL     1      20.392   2.334  52.676  1.00  0.00     0.213 C 
ENDBRANCH  13  15
ENDBRANCH  12  13
ENDBRANCH   1  12
BRANCH   1  17
HETATM   17  C5  UNL     1      24.704   2.119  50.920  1.00  0.00     0.133 C 
BRANCH  17  18
HETATM   18  C6  UNL     1      25.871   3.054  50.740  1.00  0.00     0.259 C 
HETATM   19  O3  UNL     1      27.094   2.955  51.021  1.00  0.00    -0.265 OA
BRANCH  18  20
HETATM   20  O4  UNL     1      25.503   4.254  50.145  1.00  0.00    -0.326 OA
HETATM   21  C7  UNL     1      24.271   4.347  49.413  1.00  0.00     0.213 C 
ENDBRANCH  18  20
ENDBRANCH  17  18
ENDBRANCH   1  17
TORSDOF 6
ENDMDL
MODEL 7
REMARK VINA RESULT:      -6.0      4.046      6.208
REMARK  6 active torsions:
REMARK  status: ('A' for Active; 'I' for Inactive)
REMARK    1  A    between atoms: O1_2  and  C2_3 
REMARK    2  A    between atoms: C2_3  and  C3_5 
REMARK    3  A    between atoms: C3_5  and  C4_6 
REMARK    4  A    between atoms: C4_6  and  C5_7 
REMARK    5  A    between atoms: C5_7  and  C6_8 
REMARK    6  A    between atoms: C6_8  and  O4_10 
ROOT
HETATM    1  C4  UNL     1      23.039   1.620  51.891  1.00  0.00     0.059 A 
HETATM    2  C8  UNL     1      22.056   0.557  52.175  1.00  0.00     0.092 A 
HETATM    3  S1  UNL     1      21.954  -0.089  53.684  1.00  0.00    -0.064 SA
HETATM    4  N1  UNL     1      21.300   0.240  51.011  1.00  0.00    -0.349 N 
HETATM    5  C9  UNL     1      21.777   1.090  49.948  1.00  0.00     0.040 A 
HETATM    6  C10 UNL     1      21.362   1.162  48.633  1.00  0.00     0.030 A 
HETATM    7  C11 UNL     1      21.997   2.083  47.802  1.00  0.00     0.002 A 
HETATM    8  C12 UNL     1      23.005   2.885  48.304  1.00  0.00     0.001 A 
HETATM    9  C13 UNL     1      23.427   2.822  49.621  1.00  0.00     0.011 A 
HETATM   10  C14 UNL     1      22.785   1.901  50.432  1.00  0.00    -0.015 A 
HETATM   11  H11 UNL     1      20.551  -0.485  50.993  1.00  0.00     0.166 HD
ENDROOT
BRANCH   1  12
HETATM   12  C3  UNL     1      22.805   2.904  52.606  1.00  0.00     0.133 C 
BRANCH  12  13
HETATM   13  C2  UNL     1      21.429   3.432  52.446  1.00  0.00     0.259 C 
HETATM   14  O2  UNL     1      20.247   3.080  52.720  1.00  0.00    -0.265 OA
BRANCH  13  15
HETATM   15  O1  UNL     1      21.369   4.673  51.820  1.00  0.00    -0.326 OA
HETATM   16  C1  UNL     1      20.560   4.930  50.690  1.00  0.00     0.213 C 
ENDBRANCH  13  15
ENDBRANCH  12  13
ENDBRANCH   1  12
BRANCH   1  17
HETATM   17  C5  UNL     1      24.459   1.108  51.970  1.00  0.00     0.133 C 
BRANCH  17  18
HETATM   18  C6  UNL     1      25.107   1.533  53.261  1.00  0.00     0.259 C 
HETATM   19  O3  UNL     1      25.465   2.655  53.707  1.00  0.00    -0.265 OA
BRANCH  18  20
HETATM   20  O4  UNL     1      25.349   0.462  54.111  1.00  0.00    -0.326 OA
HETATM   21  C7  UNL     1      26.046  -0.697  53.629  1.00  0.00     0.213 C 
ENDBRANCH  18  20
ENDBRANCH  17  18
ENDBRANCH   1  17
TORSDOF 6
ENDMDL
MODEL 8
REMARK VINA RESULT:      -6.0      8.861     10.390
REMARK  6 active torsions:
REMARK  status: ('A' for Active; 'I' for Inactive)
REMARK    1  A    between atoms: O1_2  and  C2_3 
REMARK    2  A    between atoms: C2_3  and  C3_5 
REMARK    3  A    between atoms: C3_5  and  C4_6 
REMARK    4  A    between atoms: C4_6  and  C5_7 
REMARK    5  A    between atoms: C5_7  and  C6_8 
REMARK    6  A    between atoms: C6_8  and  O4_10 
ROOT
HETATM    1  C4  UNL     1      33.349   5.430  47.082  1.00  0.00     0.059 A 
HETATM    2  C8  UNL     1      34.432   5.440  48.084  1.00  0.00     0.092 A 
HETATM    3  S1  UNL     1      35.207   6.845  48.446  1.00  0.00    -0.064 SA
HETATM    4  N1  UNL     1      34.646   4.136  48.615  1.00  0.00    -0.349 N 
HETATM    5  C9  UNL     1      33.707   3.254  47.967  1.00  0.00     0.040 A 
HETATM    6  C10 UNL     1      33.520   1.897  48.140  1.00  0.00     0.030 A 
HETATM    7  C11 UNL     1      32.531   1.276  47.380  1.00  0.00     0.002 A 
HETATM    8  C12 UNL     1      31.777   2.019  46.490  1.00  0.00     0.001 A 
HETATM    9  C13 UNL     1      31.955   3.380  46.310  1.00  0.00     0.011 A 
HETATM   10  C14 UNL     1      32.942   3.979  47.074  1.00  0.00    -0.015 A 
HETATM   11  H11 UNL     1      35.366   3.922  49.337  1.00  0.00     0.166 HD
ENDROOT
BRANCH   1  12
HETATM   12  C3  UNL     1      32.133   6.200  47.459  1.00  0.00     0.133 C 
BRANCH  12  13
HETATM   13  C2  UNL     1      31.789   6.101  48.898  1.00  0.00     0.259 C 
HETATM   14  O2  UNL     1      31.455   5.208  49.727  1.00  0.00    -0.265 OA
BRANCH  13  15
HETATM   15  O1  UNL     1      31.833   7.316  49.574  1.00  0.00    -0.326 OA
HETATM   16  C1  UNL     1      31.694   8.565  48.929  1.00  0.00     0.213 C 
ENDBRANCH  13  15
ENDBRANCH  12  13
ENDBRANCH   1  12
BRANCH   1  17
HETATM   17  C5  UNL     1      33.868   5.720  45.692  1.00  0.00     0.133 C 
BRANCH  17  18
HETATM   18  C6  UNL     1      33.136   6.886  45.082  1.00  0.00     0.259 C 
HETATM   19  O3  UNL     1      32.063   6.972  44.429  1.00  0.00    -0.265 OA
BRANCH  18  20
HETATM   20  O4  UNL     1      33.790   8.093  45.294  1.00  0.00    -0.326 OA
HETATM   21  C7  UNL     1      33.034   9.299  45.478  1.00  0.00     0.213 C 
ENDBRANCH  18  20
ENDBRANCH  17  18
ENDBRANCH   1  17
TORSDOF 6
ENDMDL
MODEL 9
REMARK VINA RESULT:      -5.9      3.583      4.903
REMARK  6 active torsions:
REMARK  status: ('A' for Active; 'I' for Inactive)
REMARK    1  A    between atoms: O1_2  and  C2_3 
REMARK    2  A    between atoms: C2_3  and  C3_5 
REMARK    3  A    between atoms: C3_5  and  C4_6 
REMARK    4  A    between atoms: C4_6  and  C5_7 
REMARK    5  A    between atoms: C5_7  and  C6_8 
REMARK    6  A    between atoms: C6_8  and  O4_10 
ROOT
HETATM    1  C4  UNL     1      23.096   2.660  51.843  1.00  0.00     0.059 A 
HETATM    2  C8  UNL     1      21.932   2.026  52.491  1.00  0.00     0.092 A 
HETATM    3  S1  UNL     1      20.466   2.773  52.465  1.00  0.00    -0.064 SA
HETATM    4  N1  UNL     1      22.292   0.780  53.077  1.00  0.00    -0.349 N 
HETATM    5  C9  UNL     1      23.697   0.580  52.821  1.00  0.00     0.040 A 
HETATM    6  C10 UNL     1      24.510  -0.476  53.185  1.00  0.00     0.030 A 
HETATM    7  C11 UNL     1      25.850  -0.423  52.808  1.00  0.00     0.002 A 
HETATM    8  C12 UNL     1      26.323   0.663  52.093  1.00  0.00     0.001 A 
HETATM    9  C13 UNL     1      25.516   1.725  51.723  1.00  0.00     0.011 A 
HETATM   10  C14 UNL     1      24.188   1.655  52.107  1.00  0.00    -0.015 A 
HETATM   11  H11 UNL     1      21.618   0.168  53.585  1.00  0.00     0.166 HD
ENDROOT
BRANCH   1  12
HETATM   12  C3  UNL     1      23.001   2.790  50.364  1.00  0.00     0.133 C 
BRANCH  12  13
HETATM   13  C2  UNL     1      22.018   1.869  49.747  1.00  0.00     0.259 C 
HETATM   14  O2  UNL     1      21.733   0.639  49.777  1.00  0.00    -0.265 OA
BRANCH  13  15
HETATM   15  O1  UNL     1      21.129   2.492  48.877  1.00  0.00    -0.326 OA
HETATM   16  C1  UNL     1      21.080   3.891  48.693  1.00  0.00     0.213 C 
ENDBRANCH  13  15
ENDBRANCH  12  13
ENDBRANCH   1  12
BRANCH   1  17
HETATM   17  C5  UNL     1      23.519   3.923  52.558  1.00  0.00     0.133 C 
BRANCH  17  18
HETATM   18  C6  UNL     1      23.243   5.135  51.707  1.00  0.00     0.259 C 
HETATM   19  O3  UNL     1      22.188   5.772  51.448  1.00  0.00    -0.265 OA
BRANCH  18  20
HETATM   20  O4  UNL     1      24.389   5.629  51.099  1.00  0.00    -0.326 OA
HETATM   21  C7  UNL     1      24.479   7.020  50.755  1.00  0.00     0.213 C 
ENDBRANCH  18  20
ENDBRANCH  17  18
ENDBRANCH   1  17
TORSDOF 6
ENDMDL
