MODEL 1
REMARK VINA RESULT:      -7.8      0.000      0.000
REMARK  3 active torsions:
REMARK  status: ('A' for Active; 'I' for Inactive)
REMARK    1  A    between atoms: C3_3  and  C4_4 
REMARK    2  A    between atoms: C5_5  and  C6_6 
REMARK    3  A    between atoms: N1_7  and  C7_8 
ROOT
HETATM    1  C7  UNL     1      24.414   2.940  51.869  1.00  0.00     0.158 C 
HETATM    2  N2  UNL     1      24.702   3.612  50.778  1.00  0.00    -0.222 NA
HETATM    3  C8  UNL     1      25.962   3.456  50.170  1.00  0.00     0.230 C 
HETATM    4  N3  UNL     1      26.916   2.726  50.557  1.00  0.00    -0.271 NA
HETATM    5  C9  UNL     1      26.848   1.878  51.794  1.00  0.00     0.169 C 
HETATM    6  C10 UNL     1      27.800   2.565  52.714  1.00  0.00     0.200 C 
HETATM    7  O1  UNL     1      28.241   2.204  53.868  1.00  0.00    -0.387 OA
HETATM    8  C11 UNL     1      28.964   1.242  54.360  1.00  0.00     0.189 C 
HETATM    9  C12 UNL     1      28.527  -0.186  54.446  1.00  0.00     0.172 C 
HETATM   10  N4  UNL     1      27.403  -0.375  55.284  1.00  0.00    -0.300 N 
HETATM   11  O2  UNL     1      26.270   0.243  55.033  1.00  0.00    -0.281 OA
HETATM   12  C13 UNL     1      25.932   0.165  53.688  1.00  0.00     0.229 C 
HETATM   13  C14 UNL     1      24.945   1.167  53.241  1.00  0.00     0.015 C 
HETATM   14  C15 UNL     1      25.442   1.960  52.297  1.00  0.00     0.015 C 
HETATM   15  H17 UNL     1      27.236  -1.336  55.598  1.00  0.00     0.187 HD
ENDROOT
BRANCH   1  16
HETATM   16  N1  UNL     1      23.156   3.099  52.495  1.00  0.00    -0.241 NA
HETATM   17  C6  UNL     1      22.123   2.449  52.128  1.00  0.00     0.119 C 
BRANCH  17  18
HETATM   18  C5  UNL     1      21.807   1.451  51.113  1.00  0.00     0.019 C 
HETATM   19  C4  UNL     1      21.455   0.224  51.443  1.00  0.00     0.001 C 
BRANCH  19  20
HETATM   20  C3  UNL     1      21.374  -0.154  52.831  1.00  0.00    -0.004 C 
HETATM   21  C2  UNL     1      22.136  -1.124  53.343  1.00  0.00    -0.031 C 
HETATM   22  C1  UNL     1      22.062  -1.526  54.775  1.00  0.00     0.036 C 
ENDBRANCH  19  20
ENDBRANCH  17  18
ENDBRANCH   1  16
TORSDOF 3
ENDMDL
MODEL 2
REMARK VINA RESULT:      -7.4      2.064      2.936
REMARK  3 active torsions:
REMARK  status: ('A' for Active; 'I' for Inactive)
REMARK    1  A    between atoms: C3_3  and  C4_4 
REMARK    2  A    between atoms: C5_5  and  C6_6 
REMARK    3  A    between atoms: N1_7  and  C7_8 
ROOT
HETATM    1  C7  UNL     1      23.973   0.058  52.867  1.00  0.00     0.158 C 
HETATM    2  N2  UNL     1      23.352   1.196  52.659  1.00  0.00    -0.222 NA
HETATM    3  C8  UNL     1      24.094   2.379  52.478  1.00  0.00     0.230 C 
HETATM    4  N3  UNL     1      25.350   2.509  52.503  1.00  0.00    -0.271 NA
HETATM    5  C9  UNL     1      26.285   1.362  52.752  1.00  0.00     0.169 C 
HETATM    6  C10 UNL     1      26.834   1.674  54.102  1.00  0.00     0.200 C 
HETATM    7  O1  UNL     1      27.781   1.105  54.763  1.00  0.00    -0.387 OA
HETATM    8  C11 UNL     1      29.062   0.926  54.640  1.00  0.00     0.189 C 
HETATM    9  C12 UNL     1      29.699   0.047  53.610  1.00  0.00     0.172 C 
HETATM   10  N4  UNL     1      29.351  -1.317  53.748  1.00  0.00    -0.300 N 
HETATM   11  O2  UNL     1      28.093  -1.696  53.692  1.00  0.00    -0.281 OA
HETATM   12  C13 UNL     1      27.426  -1.098  52.631  1.00  0.00     0.229 C 
HETATM   13  C14 UNL     1      25.954  -1.110  52.741  1.00  0.00     0.015 C 
HETATM   14  C15 UNL     1      25.453   0.120  52.771  1.00  0.00     0.015 C 
HETATM   15  H17 UNL     1      29.959  -1.985  53.264  1.00  0.00     0.187 HD
ENDROOT
BRANCH   1  16
HETATM   16  N1  UNL     1      23.237  -1.133  53.062  1.00  0.00    -0.241 NA
HETATM   17  C6  UNL     1      22.236  -1.197  53.848  1.00  0.00     0.119 C 
BRANCH  17  18
HETATM   18  C5  UNL     1      21.525  -0.280  54.732  1.00  0.00     0.019 C 
HETATM   19  C4  UNL     1      20.446   0.362  54.330  1.00  0.00     0.001 C 
BRANCH  19  20
HETATM   20  C3  UNL     1      19.944   0.163  52.995  1.00  0.00    -0.004 C 
HETATM   21  C2  UNL     1      18.676  -0.189  52.763  1.00  0.00    -0.031 C 
HETATM   22  C1  UNL     1      18.144  -0.398  51.387  1.00  0.00     0.036 C 
ENDBRANCH  19  20
ENDBRANCH  17  18
ENDBRANCH   1  16
TORSDOF 3
ENDMDL
MODEL 3
REMARK VINA RESULT:      -7.3      2.259      4.368
REMARK  3 active torsions:
REMARK  status: ('A' for Active; 'I' for Inactive)
REMARK    1  A    between atoms: C3_3  and  C4_4 
REMARK    2  A    between atoms: C5_5  and  C6_6 
REMARK    3  A    between atoms: N1_7  and  C7_8 
ROOT
HETATM    1  C7  UNL     1      24.576  -0.147  53.426  1.00  0.00     0.158 C 
HETATM    2  N2  UNL     1      25.389  -0.371  54.432  1.00  0.00    -0.222 NA
HETATM    3  C8  UNL     1      26.370   0.581  54.769  1.00  0.00     0.230 C 
HETATM    4  N3  UNL     1      26.601   1.681  54.195  1.00  0.00    -0.271 NA
HETATM    5  C9  UNL     1      25.828   2.158  52.999  1.00  0.00     0.169 C 
HETATM    6  C10 UNL     1      26.833   2.068  51.903  1.00  0.00     0.200 C 
HETATM    7  O1  UNL     1      26.767   2.474  50.683  1.00  0.00    -0.387 OA
HETATM    8  C11 UNL     1      26.659   3.607  50.054  1.00  0.00     0.189 C 
HETATM    9  C12 UNL     1      25.435   4.467  50.061  1.00  0.00     0.172 C 
HETATM   10  N4  UNL     1      24.310   3.841  49.473  1.00  0.00    -0.300 N 
HETATM   11  O2  UNL     1      23.851   2.705  49.951  1.00  0.00    -0.281 OA
HETATM   12  C13 UNL     1      23.762   2.732  51.337  1.00  0.00     0.229 C 
HETATM   13  C14 UNL     1      23.682   1.405  51.976  1.00  0.00     0.015 C 
HETATM   14  C15 UNL     1      24.706   1.191  52.796  1.00  0.00     0.015 C 
HETATM   15  H17 UNL     1      23.543   4.464  49.202  1.00  0.00     0.187 HD
ENDROOT
BRANCH   1  16
HETATM   16  N1  UNL     1      23.596  -1.102  53.072  1.00  0.00    -0.241 NA
HETATM   17  C6  UNL     1      22.471  -1.179  53.666  1.00  0.00     0.119 C 
BRANCH  17  18
HETATM   18  C5  UNL     1      21.800  -0.477  54.754  1.00  0.00     0.019 C 
HETATM   19  C4  UNL     1      20.766   0.308  54.530  1.00  0.00     0.001 C 
BRANCH  19  20
HETATM   20  C3  UNL     1      20.275   0.489  53.188  1.00  0.00    -0.004 C 
HETATM   21  C2  UNL     1      19.199  -0.163  52.737  1.00  0.00    -0.031 C 
HETATM   22  C1  UNL     1      18.680   0.014  51.353  1.00  0.00     0.036 C 
ENDBRANCH  19  20
ENDBRANCH  17  18
ENDBRANCH   1  16
TORSDOF 3
ENDMDL
MODEL 4
REMARK VINA RESULT:      -7.2      2.127      4.375
REMARK  3 active torsions:
REMARK  status: ('A' for Active; 'I' for Inactive)
REMARK    1  A    between atoms: C3_3  and  C4_4 
REMARK    2  A    between atoms: C5_5  and  C6_6 
REMARK    3  A    between atoms: N1_7  and  C7_8 
ROOT
HETATM    1  C7  UNL     1      23.788   0.984  52.023  1.00  0.00     0.158 C 
HETATM    2  N2  UNL     1      22.857   0.160  52.445  1.00  0.00    -0.222 NA
HETATM    3  C8  UNL     1      23.094  -0.652  53.570  1.00  0.00     0.230 C 
HETATM    4  N3  UNL     1      24.147  -0.712  54.264  1.00  0.00    -0.271 NA
HETATM    5  C9  UNL     1      25.368   0.111  53.972  1.00  0.00     0.169 C 
HETATM    6  C10 UNL     1      26.345  -0.911  53.501  1.00  0.00     0.200 C 
HETATM    7  O1  UNL     1      27.600  -0.797  53.238  1.00  0.00    -0.387 OA
HETATM    8  C11 UNL     1      28.693  -0.519  53.885  1.00  0.00     0.189 C 
HETATM    9  C12 UNL     1      29.025   0.827  54.448  1.00  0.00     0.172 C 
HETATM   10  N4  UNL     1      29.156   1.829  53.458  1.00  0.00    -0.300 N 
HETATM   11  O2  UNL     1      28.155   2.108  52.652  1.00  0.00    -0.281 OA
HETATM   12  C13 UNL     1      26.956   2.219  53.345  1.00  0.00     0.229 C 
HETATM   13  C14 UNL     1      25.746   2.095  52.509  1.00  0.00     0.015 C 
HETATM   14  C15 UNL     1      24.997   1.061  52.879  1.00  0.00     0.015 C 
HETATM   15  H17 UNL     1      29.645   2.682  53.746  1.00  0.00     0.187 HD
ENDROOT
BRANCH   1  16
HETATM   16  N1  UNL     1      23.563   1.795  50.887  1.00  0.00    -0.241 NA
HETATM   17  C6  UNL     1      22.872   2.865  50.935  1.00  0.00     0.119 C 
BRANCH  17  18
HETATM   18  C5  UNL     1      22.141   3.605  51.957  1.00  0.00     0.019 C 
HETATM   19  C4  UNL     1      22.567   4.772  52.395  1.00  0.00     0.001 C 
BRANCH  19  20
HETATM   20  C3  UNL     1      23.777   5.345  51.864  1.00  0.00    -0.004 C 
HETATM   21  C2  UNL     1      23.775   6.498  51.188  1.00  0.00    -0.031 C 
HETATM   22  C1  UNL     1      25.019   7.101  50.633  1.00  0.00     0.036 C 
ENDBRANCH  19  20
ENDBRANCH  17  18
ENDBRANCH   1  16
TORSDOF 3
ENDMDL
MODEL 5
REMARK VINA RESULT:      -7.1      1.881      3.406
REMARK  3 active torsions:
REMARK  status: ('A' for Active; 'I' for Inactive)
REMARK    1  A    between atoms: C3_3  and  C4_4 
REMARK    2  A    between atoms: C5_5  and  C6_6 
REMARK    3  A    between atoms: N1_7  and  C7_8 
ROOT
HETATM    1  C7  UNL     1      23.822   1.170  52.073  1.00  0.00     0.158 C 
HETATM    2  N2  UNL     1      22.858   0.355  52.433  1.00  0.00    -0.222 NA
HETATM    3  C8  UNL     1      23.074  -0.577  53.466  1.00  0.00     0.230 C 
HETATM    4  N3  UNL     1      24.135  -0.759  54.126  1.00  0.00    -0.271 NA
HETATM    5  C9  UNL     1      25.391   0.028  53.888  1.00  0.00     0.169 C 
HETATM    6  C10 UNL     1      26.306  -0.989  53.295  1.00  0.00     0.200 C 
HETATM    7  O1  UNL     1      27.560  -0.911  53.015  1.00  0.00    -0.387 OA
HETATM    8  C11 UNL     1      28.677  -0.754  53.660  1.00  0.00     0.189 C 
HETATM    9  C12 UNL     1      29.088   0.511  54.346  1.00  0.00     0.172 C 
HETATM   10  N4  UNL     1      29.252   1.600  53.458  1.00  0.00    -0.300 N 
HETATM   11  O2  UNL     1      28.252   2.007  52.707  1.00  0.00    -0.281 OA
HETATM   12  C13 UNL     1      27.074   2.108  53.436  1.00  0.00     0.229 C 
HETATM   13  C14 UNL     1      25.844   2.128  52.621  1.00  0.00     0.015 C 
HETATM   14  C15 UNL     1      25.050   1.100  52.904  1.00  0.00     0.015 C 
HETATM   15  H17 UNL     1      29.790   2.394  53.818  1.00  0.00     0.187 HD
ENDROOT
BRANCH   1  16
HETATM   16  N1  UNL     1      23.619   2.101  51.029  1.00  0.00    -0.241 NA
HETATM   17  C6  UNL     1      22.894   3.139  51.169  1.00  0.00     0.119 C 
BRANCH  17  18
HETATM   18  C5  UNL     1      22.099   3.736  52.236  1.00  0.00     0.019 C 
HETATM   19  C4  UNL     1      20.804   3.517  52.332  1.00  0.00     0.001 C 
BRANCH  19  20
HETATM   20  C3  UNL     1      20.142   2.671  51.372  1.00  0.00    -0.004 C 
HETATM   21  C2  UNL     1      19.615   1.492  51.715  1.00  0.00    -0.031 C 
HETATM   22  C1  UNL     1      18.929   0.608  50.733  1.00  0.00     0.036 C 
ENDBRANCH  19  20
ENDBRANCH  17  18
ENDBRANCH   1  16
TORSDOF 3
ENDMDL
MODEL 6
REMARK VINA RESULT:      -7.1      2.353      4.196
REMARK  3 active torsions:
REMARK  status: ('A' for Active; 'I' for Inactive)
REMARK    1  A    between atoms: C3_3  and  C4_4 
REMARK    2  A    between atoms: C5_5  and  C6_6 
REMARK    3  A    between atoms: N1_7  and  C7_8 
ROOT
HETATM    1  C7  UNL     1      23.657   1.368  52.601  1.00  0.00     0.158 C 
HETATM    2  N2  UNL     1      22.717   0.528  52.967  1.00  0.00    -0.222 NA
HETATM    3  C8  UNL     1      23.025  -0.537  53.835  1.00  0.00     0.230 C 
HETATM    4  N3  UNL     1      24.151  -0.822  54.331  1.00  0.00    -0.271 NA
HETATM    5  C9  UNL     1      25.394  -0.031  54.045  1.00  0.00     0.169 C 
HETATM    6  C10 UNL     1      26.198  -0.974  53.217  1.00  0.00     0.200 C 
HETATM    7  O1  UNL     1      27.412  -0.880  52.798  1.00  0.00    -0.387 OA
HETATM    8  C11 UNL     1      28.603  -0.828  53.316  1.00  0.00     0.189 C 
HETATM    9  C12 UNL     1      29.134   0.327  54.105  1.00  0.00     0.172 C 
HETATM   10  N4  UNL     1      29.225   1.522  53.353  1.00  0.00    -0.300 N 
HETATM   11  O2  UNL     1      28.156   2.042  52.791  1.00  0.00    -0.281 OA
HETATM   12  C13 UNL     1      27.078   2.063  53.666  1.00  0.00     0.229 C 
HETATM   13  C14 UNL     1      25.760   2.212  53.018  1.00  0.00     0.015 C 
HETATM   14  C15 UNL     1      24.972   1.169  53.259  1.00  0.00     0.015 C 
HETATM   15  H17 UNL     1      29.828   2.252  53.746  1.00  0.00     0.187 HD
ENDROOT
BRANCH   1  16
HETATM   16  N1  UNL     1      23.361   2.433  51.721  1.00  0.00    -0.241 NA
HETATM   17  C6  UNL     1      22.621   2.286  50.693  1.00  0.00     0.119 C 
BRANCH  17  18
HETATM   18  C5  UNL     1      21.888   1.191  50.067  1.00  0.00     0.019 C 
HETATM   19  C4  UNL     1      21.702   1.147  48.764  1.00  0.00     0.001 C 
BRANCH  19  20
HETATM   20  C3  UNL     1      22.229   2.192  47.924  1.00  0.00    -0.004 C 
HETATM   21  C2  UNL     1      21.432   2.988  47.205  1.00  0.00    -0.031 C 
HETATM   22  C1  UNL     1      21.964   4.072  46.333  1.00  0.00     0.036 C 
ENDBRANCH  19  20
ENDBRANCH  17  18
ENDBRANCH   1  16
TORSDOF 3
ENDMDL
MODEL 7
REMARK VINA RESULT:      -7.1      1.989      4.892
REMARK  3 active torsions:
REMARK  status: ('A' for Active; 'I' for Inactive)
REMARK    1  A    between atoms: C3_3  and  C4_4 
REMARK    2  A    between atoms: C5_5  and  C6_6 
REMARK    3  A    between atoms: N1_7  and  C7_8 
ROOT
HETATM    1  C7  UNL     1      23.708   2.017  52.314  1.00  0.00     0.158 C 
HETATM    2  N2  UNL     1      22.710   1.187  52.115  1.00  0.00    -0.222 NA
HETATM    3  C8  UNL     1      22.770  -0.122  52.629  1.00  0.00     0.230 C 
HETATM    4  N3  UNL     1      23.714  -0.646  53.283  1.00  0.00    -0.271 NA
HETATM    5  C9  UNL     1      24.981   0.085  53.620  1.00  0.00     0.169 C 
HETATM    6  C10 UNL     1      25.993  -0.608  52.772  1.00  0.00     0.200 C 
HETATM    7  O1  UNL     1      27.274  -0.489  52.748  1.00  0.00    -0.387 OA
HETATM    8  C11 UNL     1      28.272  -0.709  53.552  1.00  0.00     0.189 C 
HETATM    9  C12 UNL     1      28.551   0.081  54.792  1.00  0.00     0.172 C 
HETATM   10  N4  UNL     1      28.840   1.442  54.533  1.00  0.00    -0.300 N 
HETATM   11  O2  UNL     1      27.968   2.205  53.912  1.00  0.00    -0.281 OA
HETATM   12  C13 UNL     1      26.687   2.037  54.422  1.00  0.00     0.229 C 
HETATM   13  C14 UNL     1      25.603   2.498  53.533  1.00  0.00     0.015 C 
HETATM   14  C15 UNL     1      24.787   1.505  53.195  1.00  0.00     0.015 C 
HETATM   15  H17 UNL     1      29.303   1.953  55.291  1.00  0.00     0.187 HD
ENDROOT
BRANCH   1  16
HETATM   16  N1  UNL     1      23.662   3.330  51.792  1.00  0.00    -0.241 NA
HETATM   17  C6  UNL     1      24.383   3.700  50.809  1.00  0.00     0.119 C 
BRANCH  17  18
HETATM   18  C5  UNL     1      25.382   3.088  49.941  1.00  0.00     0.019 C 
HETATM   19  C4  UNL     1      26.253   3.818  49.275  1.00  0.00     0.001 C 
BRANCH  19  20
HETATM   20  C3  UNL     1      26.233   5.254  49.397  1.00  0.00    -0.004 C 
HETATM   21  C2  UNL     1      26.934   6.041  48.575  1.00  0.00    -0.031 C 
HETATM   22  C1  UNL     1      26.923   7.526  48.690  1.00  0.00     0.036 C 
ENDBRANCH  19  20
ENDBRANCH  17  18
ENDBRANCH   1  16
TORSDOF 3
ENDMDL
MODEL 8
REMARK VINA RESULT:      -6.2      7.423      9.803
REMARK  3 active torsions:
REMARK  status: ('A' for Active; 'I' for Inactive)
REMARK    1  A    between atoms: C3_3  and  C4_4 
REMARK    2  A    between atoms: C5_5  and  C6_6 
REMARK    3  A    between atoms: N1_7  and  C7_8 
ROOT
HETATM    1  C7  UNL     1      31.584   8.470  48.307  1.00  0.00     0.158 C 
HETATM    2  N2  UNL     1      32.064   9.560  47.754  1.00  0.00    -0.222 NA
HETATM    3  C8  UNL     1      33.068   9.467  46.773  1.00  0.00     0.230 C 
HETATM    4  N3  UNL     1      33.616   8.418  46.333  1.00  0.00    -0.271 NA
HETATM    5  C9  UNL     1      33.264   7.044  46.824  1.00  0.00     0.169 C 
HETATM    6  C10 UNL     1      34.488   6.641  47.572  1.00  0.00     0.200 C 
HETATM    7  O1  UNL     1      34.804   5.507  48.095  1.00  0.00    -0.387 OA
HETATM    8  C11 UNL     1      35.049   4.298  47.685  1.00  0.00     0.189 C 
HETATM    9  C12 UNL     1      34.022   3.375  47.109  1.00  0.00     0.172 C 
HETATM   10  N4  UNL     1      32.999   3.037  48.026  1.00  0.00    -0.300 N 
HETATM   11  O2  UNL     1      32.252   3.974  48.570  1.00  0.00    -0.281 OA
HETATM   12  C13 UNL     1      31.816   4.893  47.624  1.00  0.00     0.229 C 
HETATM   13  C14 UNL     1      31.358   6.181  48.181  1.00  0.00     0.015 C 
HETATM   14  C15 UNL     1      32.089   7.197  47.734  1.00  0.00     0.015 C 
HETATM   15  H17 UNL     1      32.440   2.212  47.789  1.00  0.00     0.187 HD
ENDROOT
BRANCH   1  16
HETATM   16  N1  UNL     1      30.584   8.554  49.303  1.00  0.00    -0.241 NA
HETATM   17  C6  UNL     1      29.345   8.656  49.021  1.00  0.00     0.119 C 
BRANCH  17  18
HETATM   18  C5  UNL     1      28.540   8.722  47.807  1.00  0.00     0.019 C 
HETATM   19  C4  UNL     1      27.881   7.671  47.363  1.00  0.00     0.001 C 
BRANCH  19  20
HETATM   20  C3  UNL     1      27.945   6.423  48.080  1.00  0.00    -0.004 C 
HETATM   21  C2  UNL     1      26.844   5.794  48.502  1.00  0.00    -0.031 C 
HETATM   22  C1  UNL     1      26.896   4.504  49.244  1.00  0.00     0.036 C 
ENDBRANCH  19  20
ENDBRANCH  17  18
ENDBRANCH   1  16
TORSDOF 3
ENDMDL
MODEL 9
REMARK VINA RESULT:      -6.2      2.118      3.078
REMARK  3 active torsions:
REMARK  status: ('A' for Active; 'I' for Inactive)
REMARK    1  A    between atoms: C3_3  and  C4_4 
REMARK    2  A    between atoms: C5_5  and  C6_6 
REMARK    3  A    between atoms: N1_7  and  C7_8 
ROOT
HETATM    1  C7  UNL     1      24.450   4.327  51.031  1.00  0.00     0.158 C 
HETATM    2  N2  UNL     1      25.232   4.978  50.202  1.00  0.00    -0.222 NA
HETATM    3  C8  UNL     1      26.409   4.373  49.722  1.00  0.00     0.230 C 
HETATM    4  N3  UNL     1      26.851   3.224  50.006  1.00  0.00    -0.271 NA
HETATM    5  C9  UNL     1      26.155   2.291  50.953  1.00  0.00     0.169 C 
HETATM    6  C10 UNL     1      27.074   2.270  52.126  1.00  0.00     0.200 C 
HETATM    7  O1  UNL     1      27.051   1.536  53.184  1.00  0.00    -0.387 OA
HETATM    8  C11 UNL     1      27.168   0.276  53.478  1.00  0.00     0.189 C 
HETATM    9  C12 UNL     1      26.161  -0.773  53.127  1.00  0.00     0.172 C 
HETATM   10  N4  UNL     1      24.905  -0.572  53.748  1.00  0.00    -0.300 N 
HETATM   11  O2  UNL     1      24.229   0.537  53.545  1.00  0.00    -0.281 OA
HETATM   12  C13 UNL     1      24.201   0.879  52.199  1.00  0.00     0.229 C 
HETATM   13  C14 UNL     1      23.859   2.289  51.927  1.00  0.00     0.015 C 
HETATM   14  C15 UNL     1      24.843   2.921  51.295  1.00  0.00     0.015 C 
HETATM   15  H17 UNL     1      24.282  -1.385  53.771  1.00  0.00     0.187 HD
ENDROOT
BRANCH   1  16
HETATM   16  N1  UNL     1      23.273   4.932  51.527  1.00  0.00    -0.241 NA
HETATM   17  C6  UNL     1      22.362   5.387  50.761  1.00  0.00     0.119 C 
BRANCH  17  18
HETATM   18  C5  UNL     1      22.142   5.484  49.323  1.00  0.00     0.019 C 
HETATM   19  C4  UNL     1      21.633   4.481  48.637  1.00  0.00     0.001 C 
BRANCH  19  20
HETATM   20  C3  UNL     1      21.278   3.256  49.307  1.00  0.00    -0.004 C 
HETATM   21  C2  UNL     1      21.734   2.069  48.895  1.00  0.00    -0.031 C 
HETATM   22  C1  UNL     1      21.376   0.795  49.579  1.00  0.00     0.036 C 
ENDBRANCH  19  20
ENDBRANCH  17  18
ENDBRANCH   1  16
TORSDOF 3
ENDMDL
