MODEL 1
REMARK VINA RESULT:      -7.3      0.000      0.000
REMARK  6 active torsions:
REMARK  status: ('A' for Active; 'I' for Inactive)
REMARK    1  A    between atoms: C2_2  and  C3_3 
REMARK    2  A    between atoms: C3_3  and  N1_4 
REMARK    3  A    between atoms: C6_7  and  C7_9 
REMARK    4  A    between atoms: C7_9  and  C8_10 
REMARK    5  A    between atoms: C8_10  and  O2_11 
REMARK    6  A    between atoms: C8_10  and  C9_12 
ROOT
HETATM    1  C8  UNL     1      24.711   2.241  52.860  1.00  0.00     0.178 C 
ENDROOT
BRANCH   1   2
HETATM    2  C7  UNL     1      24.263   2.214  51.410  1.00  0.00     0.083 C 
BRANCH   2   3
HETATM    3  C6  UNL     1      22.904   1.580  51.425  1.00  0.00     0.110 A 
HETATM    4  C2  UNL     1      22.132   0.475  51.950  1.00  0.00    -0.013 A 
HETATM    5  C1  UNL     1      21.427   1.282  51.163  1.00  0.00     0.218 A 
HETATM    6  O1  UNL     1      22.016   2.174  50.742  1.00  0.00    -0.368 OA
BRANCH   4   7
HETATM    7  C3  UNL     1      22.390  -0.667  52.852  1.00  0.00     0.306 C 
BRANCH   7   8
HETATM    8  N1  UNL     1      22.294  -0.392  54.245  1.00  0.00     0.083 N 
HETATM    9  C4  UNL     1      20.959  -0.013  54.646  1.00  0.00     0.309 C 
HETATM   10  C5  UNL     1      22.911  -1.324  55.129  1.00  0.00     0.309 C 
ENDBRANCH   7   8
ENDBRANCH   4   7
ENDBRANCH   2   3
ENDBRANCH   1   2
BRANCH   1  11
HETATM   11  O2  UNL     1      24.733   3.565  53.271  1.00  0.00    -0.389 OA
HETATM   12  H14 UNL     1      25.428   4.110  52.862  1.00  0.00     0.210 HD
ENDBRANCH   1  11
BRANCH   1  13
HETATM   13  C9  UNL     1      25.991   1.531  53.068  1.00  0.00     0.076 A 
HETATM   14  C10 UNL     1      26.072   0.226  52.852  1.00  0.00     0.047 A 
HETATM   15  C11 UNL     1      27.282  -0.588  53.024  1.00  0.00    -0.025 A 
HETATM   16  C12 UNL     1      27.249  -1.932  52.759  1.00  0.00     0.012 A 
HETATM   17  C16 UNL     1      28.370   0.144  53.447  1.00  0.00    -0.024 A 
HETATM   18  C13 UNL     1      28.447  -2.601  52.942  1.00  0.00     0.001 A 
HETATM   19  C14 UNL     1      29.592  -1.914  53.372  1.00  0.00     0.001 A 
HETATM   20  C15 UNL     1      29.569  -0.548  53.626  1.00  0.00     0.010 A 
HETATM   21  C17 UNL     1      28.384   1.592  53.733  1.00  0.00     0.214 A 
HETATM   22  O3  UNL     1      27.126   2.180  53.483  1.00  0.00    -0.348 OA
ENDBRANCH   1  13
TORSDOF 6
ENDMDL
MODEL 2
REMARK VINA RESULT:      -7.2      3.484      6.016
REMARK  6 active torsions:
REMARK  status: ('A' for Active; 'I' for Inactive)
REMARK    1  A    between atoms: C2_2  and  C3_3 
REMARK    2  A    between atoms: C3_3  and  N1_4 
REMARK    3  A    between atoms: C6_7  and  C7_9 
REMARK    4  A    between atoms: C7_9  and  C8_10 
REMARK    5  A    between atoms: C8_10  and  O2_11 
REMARK    6  A    between atoms: C8_10  and  C9_12 
ROOT
HETATM    1  C8  UNL     1      26.227   2.964  51.349  1.00  0.00     0.178 C 
ENDROOT
BRANCH   1   2
HETATM    2  C7  UNL     1      26.121   2.833  49.840  1.00  0.00     0.083 C 
BRANCH   2   3
HETATM    3  C6  UNL     1      26.536   4.167  49.296  1.00  0.00     0.110 A 
HETATM    4  C2  UNL     1      26.084   5.515  49.026  1.00  0.00    -0.013 A 
HETATM    5  C1  UNL     1      27.349   5.304  48.675  1.00  0.00     0.218 A 
HETATM    6  O1  UNL     1      27.735   4.244  48.890  1.00  0.00    -0.368 OA
BRANCH   4   7
HETATM    7  C3  UNL     1      24.831   6.274  49.223  1.00  0.00     0.306 C 
BRANCH   7   8
HETATM    8  N1  UNL     1      24.544   6.662  50.561  1.00  0.00     0.083 N 
HETATM    9  C4  UNL     1      24.052   8.017  50.654  1.00  0.00     0.309 C 
HETATM   10  C5  UNL     1      23.810   5.734  51.357  1.00  0.00     0.309 C 
ENDBRANCH   7   8
ENDBRANCH   4   7
ENDBRANCH   2   3
ENDBRANCH   1   2
BRANCH   1  11
HETATM   11  O2  UNL     1      27.573   2.947  51.681  1.00  0.00    -0.389 OA
HETATM   12  H14 UNL     1      27.829   2.257  52.319  1.00  0.00     0.210 HD
ENDBRANCH   1  11
BRANCH   1  13
HETATM   13  C9  UNL     1      25.425   1.946  52.060  1.00  0.00     0.076 A 
HETATM   14  C10 UNL     1      24.107   2.071  52.139  1.00  0.00     0.047 A 
HETATM   15  C11 UNL     1      23.206   1.131  52.817  1.00  0.00    -0.025 A 
HETATM   16  C12 UNL     1      21.855   1.360  52.824  1.00  0.00     0.012 A 
HETATM   17  C16 UNL     1      23.866   0.066  53.389  1.00  0.00    -0.024 A 
HETATM   18  C13 UNL     1      21.097   0.405  53.481  1.00  0.00     0.001 A 
HETATM   19  C14 UNL     1      21.708  -0.703  54.084  1.00  0.00     0.001 A 
HETATM   20  C15 UNL     1      23.086  -0.886  54.046  1.00  0.00     0.010 A 
HETATM   21  C17 UNL     1      25.325  -0.159  53.375  1.00  0.00     0.214 A 
HETATM   22  O3  UNL     1      25.997   0.851  52.655  1.00  0.00    -0.348 OA
ENDBRANCH   1  13
TORSDOF 6
ENDMDL
MODEL 3
REMARK VINA RESULT:      -7.1      4.136      6.711
REMARK  6 active torsions:
REMARK  status: ('A' for Active; 'I' for Inactive)
REMARK    1  A    between atoms: C2_2  and  C3_3 
REMARK    2  A    between atoms: C3_3  and  N1_4 
REMARK    3  A    between atoms: C6_7  and  C7_9 
REMARK    4  A    between atoms: C7_9  and  C8_10 
REMARK    5  A    between atoms: C8_10  and  O2_11 
REMARK    6  A    between atoms: C8_10  and  C9_12 
ROOT
HETATM    1  C8  UNL     1      26.145   3.379  50.713  1.00  0.00     0.178 C 
ENDROOT
BRANCH   1   2
HETATM    2  C7  UNL     1      26.440   3.293  49.227  1.00  0.00     0.083 C 
BRANCH   2   3
HETATM    3  C6  UNL     1      27.088   4.598  48.874  1.00  0.00     0.110 A 
HETATM    4  C2  UNL     1      26.853   6.016  48.703  1.00  0.00    -0.013 A 
HETATM    5  C1  UNL     1      28.112   5.659  48.467  1.00  0.00     0.218 A 
HETATM    6  O1  UNL     1      28.327   4.540  48.607  1.00  0.00    -0.368 OA
BRANCH   4   7
HETATM    7  C3  UNL     1      25.697   6.925  48.846  1.00  0.00     0.306 C 
BRANCH   7   8
HETATM    8  N1  UNL     1      25.624   7.648  50.069  1.00  0.00     0.083 N 
HETATM    9  C4  UNL     1      26.621   8.691  50.159  1.00  0.00     0.309 C 
HETATM   10  C5  UNL     1      24.329   8.062  50.497  1.00  0.00     0.309 C 
ENDBRANCH   7   8
ENDBRANCH   4   7
ENDBRANCH   2   3
ENDBRANCH   1   2
BRANCH   1  11
HETATM   11  O2  UNL     1      27.319   3.097  51.395  1.00  0.00    -0.389 OA
HETATM   12  H14 UNL     1      28.048   3.720  51.231  1.00  0.00     0.210 HD
ENDBRANCH   1  11
BRANCH   1  13
HETATM   13  C9  UNL     1      25.005   2.527  51.112  1.00  0.00     0.076 A 
HETATM   14  C10 UNL     1      25.128   1.683  52.127  1.00  0.00     0.047 A 
HETATM   15  C11 UNL     1      24.073   0.786  52.615  1.00  0.00    -0.025 A 
HETATM   16  C12 UNL     1      24.313  -0.038  53.684  1.00  0.00     0.012 A 
HETATM   17  C16 UNL     1      22.898   0.896  51.905  1.00  0.00    -0.024 A 
HETATM   18  C13 UNL     1      23.246  -0.833  54.069  1.00  0.00     0.001 A 
HETATM   19  C14 UNL     1      22.023  -0.769  53.387  1.00  0.00     0.001 A 
HETATM   20  C15 UNL     1      21.834   0.087  52.308  1.00  0.00     0.010 A 
HETATM   21  C17 UNL     1      22.661   1.787  50.752  1.00  0.00     0.214 A 
HETATM   22  O3  UNL     1      23.797   2.573  50.465  1.00  0.00    -0.348 OA
ENDBRANCH   1  13
TORSDOF 6
ENDMDL
MODEL 4
REMARK VINA RESULT:      -7.0      2.023      3.259
REMARK  6 active torsions:
REMARK  status: ('A' for Active; 'I' for Inactive)
REMARK    1  A    between atoms: C2_2  and  C3_3 
REMARK    2  A    between atoms: C3_3  and  N1_4 
REMARK    3  A    between atoms: C6_7  and  C7_9 
REMARK    4  A    between atoms: C7_9  and  C8_10 
REMARK    5  A    between atoms: C8_10  and  O2_11 
REMARK    6  A    between atoms: C8_10  and  C9_12 
ROOT
HETATM    1  C8  UNL     1      23.446  -0.237  53.121  1.00  0.00     0.178 C 
ENDROOT
BRANCH   1   2
HETATM    2  C7  UNL     1      22.552   0.983  52.997  1.00  0.00     0.083 C 
BRANCH   2   3
HETATM    3  C6  UNL     1      22.221   1.087  51.539  1.00  0.00     0.110 A 
HETATM    4  C2  UNL     1      22.570   1.751  50.301  1.00  0.00    -0.013 A 
HETATM    5  C1  UNL     1      21.571   0.884  50.169  1.00  0.00     0.218 A 
HETATM    6  O1  UNL     1      21.282   0.335  51.135  1.00  0.00    -0.368 OA
BRANCH   4   7
HETATM    7  C3  UNL     1      23.572   2.752  49.880  1.00  0.00     0.306 C 
BRANCH   7   8
HETATM    8  N1  UNL     1      24.386   3.290  50.915  1.00  0.00     0.083 N 
HETATM    9  C4  UNL     1      25.757   3.484  50.501  1.00  0.00     0.309 C 
HETATM   10  C5  UNL     1      23.851   4.390  51.648  1.00  0.00     0.309 C 
ENDBRANCH   7   8
ENDBRANCH   4   7
ENDBRANCH   2   3
ENDBRANCH   1   2
BRANCH   1  11
HETATM   11  O2  UNL     1      22.948  -1.023  54.150  1.00  0.00    -0.389 OA
HETATM   12  H14 UNL     1      21.982  -1.140  54.146  1.00  0.00     0.210 HD
ENDBRANCH   1  11
BRANCH   1  13
HETATM   13  C9  UNL     1      24.871   0.122  53.282  1.00  0.00     0.076 A 
HETATM   14  C10 UNL     1      25.809  -0.807  53.166  1.00  0.00     0.047 A 
HETATM   15  C11 UNL     1      27.253  -0.575  53.306  1.00  0.00    -0.025 A 
HETATM   16  C12 UNL     1      28.132  -1.615  53.154  1.00  0.00     0.012 A 
HETATM   17  C16 UNL     1      27.566   0.738  53.579  1.00  0.00    -0.024 A 
HETATM   18  C13 UNL     1      29.469  -1.284  53.294  1.00  0.00     0.001 A 
HETATM   19  C14 UNL     1      29.855   0.035  53.573  1.00  0.00     0.001 A 
HETATM   20  C15 UNL     1      28.919   1.053  53.717  1.00  0.00     0.010 A 
HETATM   21  C17 UNL     1      26.601   1.843  53.746  1.00  0.00     0.214 A 
HETATM   22  O3  UNL     1      25.275   1.405  53.551  1.00  0.00    -0.348 OA
ENDBRANCH   1  13
TORSDOF 6
ENDMDL
MODEL 5
REMARK VINA RESULT:      -6.9      2.761      4.233
REMARK  6 active torsions:
REMARK  status: ('A' for Active; 'I' for Inactive)
REMARK    1  A    between atoms: C2_2  and  C3_3 
REMARK    2  A    between atoms: C3_3  and  N1_4 
REMARK    3  A    between atoms: C6_7  and  C7_9 
REMARK    4  A    between atoms: C7_9  and  C8_10 
REMARK    5  A    between atoms: C8_10  and  O2_11 
REMARK    6  A    between atoms: C8_10  and  C9_12 
ROOT
HETATM    1  C8  UNL     1      24.566   2.228  53.116  1.00  0.00     0.178 C 
ENDROOT
BRANCH   1   2
HETATM    2  C7  UNL     1      23.937   1.850  51.788  1.00  0.00     0.083 C 
BRANCH   2   3
HETATM    3  C6  UNL     1      23.977   3.099  50.960  1.00  0.00     0.110 A 
HETATM    4  C2  UNL     1      24.847   3.982  50.211  1.00  0.00    -0.013 A 
HETATM    5  C1  UNL     1      23.575   4.371  50.210  1.00  0.00     0.218 A 
HETATM    6  O1  UNL     1      22.863   3.680  50.788  1.00  0.00    -0.368 OA
BRANCH   4   7
HETATM    7  C3  UNL     1      26.285   4.023  49.877  1.00  0.00     0.306 C 
BRANCH   7   8
HETATM    8  N1  UNL     1      26.675   5.012  48.932  1.00  0.00     0.083 N 
HETATM    9  C4  UNL     1      26.200   6.331  49.279  1.00  0.00     0.309 C 
HETATM   10  C5  UNL     1      28.034   4.991  48.502  1.00  0.00     0.309 C 
ENDBRANCH   7   8
ENDBRANCH   4   7
ENDBRANCH   2   3
ENDBRANCH   1   2
BRANCH   1  11
HETATM   11  O2  UNL     1      24.515   3.609  53.231  1.00  0.00    -0.389 OA
HETATM   12  H14 UNL     1      25.181   4.089  52.708  1.00  0.00     0.210 HD
ENDBRANCH   1  11
BRANCH   1  13
HETATM   13  C9  UNL     1      25.924   1.667  53.277  1.00  0.00     0.076 A 
HETATM   14  C10 UNL     1      26.144   0.379  53.050  1.00  0.00     0.047 A 
HETATM   15  C11 UNL     1      27.443  -0.293  53.177  1.00  0.00    -0.025 A 
HETATM   16  C12 UNL     1      27.553  -1.632  52.905  1.00  0.00     0.012 A 
HETATM   17  C16 UNL     1      28.456   0.556  53.567  1.00  0.00    -0.024 A 
HETATM   18  C13 UNL     1      28.824  -2.161  53.044  1.00  0.00     0.001 A 
HETATM   19  C14 UNL     1      29.898  -1.351  53.438  1.00  0.00     0.001 A 
HETATM   20  C15 UNL     1      29.731   0.004  53.701  1.00  0.00     0.010 A 
HETATM   21  C17 UNL     1      28.316   1.996  53.861  1.00  0.00     0.214 A 
HETATM   22  O3  UNL     1      26.992   2.438  53.657  1.00  0.00    -0.348 OA
ENDBRANCH   1  13
TORSDOF 6
ENDMDL
MODEL 6
REMARK VINA RESULT:      -6.9      3.035      5.434
REMARK  6 active torsions:
REMARK  status: ('A' for Active; 'I' for Inactive)
REMARK    1  A    between atoms: C2_2  and  C3_3 
REMARK    2  A    between atoms: C3_3  and  N1_4 
REMARK    3  A    between atoms: C6_7  and  C7_9 
REMARK    4  A    between atoms: C7_9  and  C8_10 
REMARK    5  A    between atoms: C8_10  and  O2_11 
REMARK    6  A    between atoms: C8_10  and  C9_12 
ROOT
HETATM    1  C8  UNL     1      23.305   2.610  52.295  1.00  0.00     0.178 C 
ENDROOT
BRANCH   1   2
HETATM    2  C7  UNL     1      23.530   1.235  51.693  1.00  0.00     0.083 C 
BRANCH   2   3
HETATM    3  C6  UNL     1      23.268   0.266  52.806  1.00  0.00     0.110 A 
HETATM    4  C2  UNL     1      23.886  -0.482  53.879  1.00  0.00    -0.013 A 
HETATM    5  C1  UNL     1      22.577  -0.690  53.780  1.00  0.00     0.218 A 
HETATM    6  O1  UNL     1      22.060  -0.099  52.941  1.00  0.00    -0.368 OA
BRANCH   4   7
HETATM    7  C3  UNL     1      25.250  -0.613  54.434  1.00  0.00     0.306 C 
BRANCH   7   8
HETATM    8  N1  UNL     1      26.316  -0.387  53.520  1.00  0.00     0.083 N 
HETATM    9  C4  UNL     1      27.454   0.253  54.139  1.00  0.00     0.309 C 
HETATM   10  C5  UNL     1      26.670  -1.470  52.663  1.00  0.00     0.309 C 
ENDBRANCH   7   8
ENDBRANCH   4   7
ENDBRANCH   2   3
ENDBRANCH   1   2
BRANCH   1  11
HETATM   11  O2  UNL     1      21.937   2.803  52.407  1.00  0.00    -0.389 OA
HETATM   12  H14 UNL     1      21.460   2.863  51.561  1.00  0.00     0.210 HD
ENDBRANCH   1  11
BRANCH   1  13
HETATM   13  C9  UNL     1      23.997   3.676  51.540  1.00  0.00     0.076 A 
HETATM   14  C10 UNL     1      25.068   3.391  50.813  1.00  0.00     0.047 A 
HETATM   15  C11 UNL     1      25.839   4.360  50.024  1.00  0.00    -0.025 A 
HETATM   16  C12 UNL     1      26.928   3.945  49.302  1.00  0.00     0.012 A 
HETATM   17  C16 UNL     1      25.339   5.641  50.102  1.00  0.00    -0.024 A 
HETATM   18  C13 UNL     1      27.574   4.937  48.584  1.00  0.00     0.001 A 
HETATM   19  C14 UNL     1      27.116   6.262  48.621  1.00  0.00     0.001 A 
HETATM   20  C15 UNL     1      26.004   6.628  49.372  1.00  0.00     0.010 A 
HETATM   21  C17 UNL     1      24.168   6.069  50.892  1.00  0.00     0.214 A 
HETATM   22  O3  UNL     1      23.567   4.978  51.555  1.00  0.00    -0.348 OA
ENDBRANCH   1  13
TORSDOF 6
ENDMDL
MODEL 7
REMARK VINA RESULT:      -6.9      2.782      4.372
REMARK  6 active torsions:
REMARK  status: ('A' for Active; 'I' for Inactive)
REMARK    1  A    between atoms: C2_2  and  C3_3 
REMARK    2  A    between atoms: C3_3  and  N1_4 
REMARK    3  A    between atoms: C6_7  and  C7_9 
REMARK    4  A    between atoms: C7_9  and  C8_10 
REMARK    5  A    between atoms: C8_10  and  O2_11 
REMARK    6  A    between atoms: C8_10  and  C9_12 
ROOT
HETATM    1  C8  UNL     1      21.555  -1.075  54.008  1.00  0.00     0.178 C 
ENDROOT
BRANCH   1   2
HETATM    2  C7  UNL     1      20.643   0.138  54.037  1.00  0.00     0.083 C 
BRANCH   2   3
HETATM    3  C6  UNL     1      19.568  -0.148  53.032  1.00  0.00     0.110 A 
HETATM    4  C2  UNL     1      19.071   0.196  51.716  1.00  0.00    -0.013 A 
HETATM    5  C1  UNL     1      18.334  -0.723  52.334  1.00  0.00     0.218 A 
HETATM    6  O1  UNL     1      18.714  -1.020  53.376  1.00  0.00    -0.368 OA
BRANCH   4   7
HETATM    7  C3  UNL     1      19.490   1.101  50.627  1.00  0.00     0.306 C 
BRANCH   7   8
HETATM    8  N1  UNL     1      20.893   1.278  50.471  1.00  0.00     0.083 N 
HETATM    9  C4  UNL     1      21.371   0.831  49.182  1.00  0.00     0.309 C 
HETATM   10  C5  UNL     1      21.432   2.535  50.872  1.00  0.00     0.309 C 
ENDBRANCH   7   8
ENDBRANCH   4   7
ENDBRANCH   2   3
ENDBRANCH   1   2
BRANCH   1  11
HETATM   11  O2  UNL     1      21.212  -1.886  55.080  1.00  0.00    -0.389 OA
HETATM   12  H14 UNL     1      20.498  -1.540  55.644  1.00  0.00     0.210 HD
ENDBRANCH   1  11
BRANCH   1  13
HETATM   13  C9  UNL     1      22.985  -0.705  53.975  1.00  0.00     0.076 A 
HETATM   14  C10 UNL     1      23.449   0.077  53.010  1.00  0.00     0.047 A 
HETATM   15  C11 UNL     1      24.845   0.511  52.869  1.00  0.00    -0.025 A 
HETATM   16  C12 UNL     1      25.206   1.331  51.832  1.00  0.00     0.012 A 
HETATM   17  C16 UNL     1      25.666   0.021  53.859  1.00  0.00    -0.024 A 
HETATM   18  C13 UNL     1      26.543   1.690  51.801  1.00  0.00     0.001 A 
HETATM   19  C14 UNL     1      27.433   1.224  52.779  1.00  0.00     0.001 A 
HETATM   20  C15 UNL     1      27.011   0.393  53.811  1.00  0.00     0.010 A 
HETATM   21  C17 UNL     1      25.258  -0.867  54.966  1.00  0.00     0.214 A 
HETATM   22  O3  UNL     1      23.875  -1.143  54.922  1.00  0.00    -0.348 OA
ENDBRANCH   1  13
TORSDOF 6
ENDMDL
MODEL 8
REMARK VINA RESULT:      -6.7      3.444      4.580
REMARK  6 active torsions:
REMARK  status: ('A' for Active; 'I' for Inactive)
REMARK    1  A    between atoms: C2_2  and  C3_3 
REMARK    2  A    between atoms: C3_3  and  N1_4 
REMARK    3  A    between atoms: C6_7  and  C7_9 
REMARK    4  A    between atoms: C7_9  and  C8_10 
REMARK    5  A    between atoms: C8_10  and  O2_11 
REMARK    6  A    between atoms: C8_10  and  C9_12 
ROOT
HETATM    1  C8  UNL     1      21.396  -0.969  53.957  1.00  0.00     0.178 C 
ENDROOT
BRANCH   1   2
HETATM    2  C7  UNL     1      20.600   0.322  53.897  1.00  0.00     0.083 C 
BRANCH   2   3
HETATM    3  C6  UNL     1      19.677   0.166  52.726  1.00  0.00     0.110 A 
HETATM    4  C2  UNL     1      18.460  -0.469  52.269  1.00  0.00    -0.013 A 
HETATM    5  C1  UNL     1      19.043   0.280  51.338  1.00  0.00     0.218 A 
HETATM    6  O1  UNL     1      20.006   0.804  51.680  1.00  0.00    -0.368 OA
BRANCH   4   7
HETATM    7  C3  UNL     1      17.438  -1.357  52.862  1.00  0.00     0.306 C 
BRANCH   7   8
HETATM    8  N1  UNL     1      16.130  -1.252  52.313  1.00  0.00     0.083 N 
HETATM    9  C4  UNL     1      15.411  -2.505  52.347  1.00  0.00     0.309 C 
HETATM   10  C5  UNL     1      15.346  -0.135  52.726  1.00  0.00     0.309 C 
ENDBRANCH   7   8
ENDBRANCH   4   7
ENDBRANCH   2   3
ENDBRANCH   1   2
BRANCH   1  11
HETATM   11  O2  UNL     1      20.891  -1.728  55.002  1.00  0.00    -0.389 OA
HETATM   12  H14 UNL     1      21.489  -1.826  55.764  1.00  0.00     0.210 HD
ENDBRANCH   1  11
BRANCH   1  13
HETATM   13  C9  UNL     1      22.852  -0.730  54.044  1.00  0.00     0.076 A 
HETATM   14  C10 UNL     1      23.477  -0.062  53.085  1.00  0.00     0.047 A 
HETATM   15  C11 UNL     1      24.914   0.236  53.058  1.00  0.00    -0.025 A 
HETATM   16  C12 UNL     1      25.448   0.947  52.014  1.00  0.00     0.012 A 
HETATM   17  C16 UNL     1      25.589  -0.254  54.154  1.00  0.00    -0.024 A 
HETATM   18  C13 UNL     1      26.810   1.183  52.095  1.00  0.00     0.001 A 
HETATM   19  C14 UNL     1      27.555   0.710  53.184  1.00  0.00     0.001 A 
HETATM   20  C15 UNL     1      26.961  -0.007  54.218  1.00  0.00     0.010 A 
HETATM   21  C17 UNL     1      24.996  -1.024  55.265  1.00  0.00     0.214 A 
HETATM   22  O3  UNL     1      23.603  -1.178  55.101  1.00  0.00    -0.348 OA
ENDBRANCH   1  13
TORSDOF 6
ENDMDL
MODEL 9
REMARK VINA RESULT:      -6.7      2.961      7.324
REMARK  6 active torsions:
REMARK  status: ('A' for Active; 'I' for Inactive)
REMARK    1  A    between atoms: C2_2  and  C3_3 
REMARK    2  A    between atoms: C3_3  and  N1_4 
REMARK    3  A    between atoms: C6_7  and  C7_9 
REMARK    4  A    between atoms: C7_9  and  C8_10 
REMARK    5  A    between atoms: C8_10  and  O2_11 
REMARK    6  A    between atoms: C8_10  and  C9_12 
ROOT
HETATM    1  C8  UNL     1      22.750  -0.491  54.339  1.00  0.00     0.178 C 
ENDROOT
BRANCH   1   2
HETATM    2  C7  UNL     1      23.942  -0.864  53.478  1.00  0.00     0.083 C 
BRANCH   2   3
HETATM    3  C6  UNL     1      25.134  -0.279  54.174  1.00  0.00     0.110 A 
HETATM    4  C2  UNL     1      26.010   0.872  54.233  1.00  0.00    -0.013 A 
HETATM    5  C1  UNL     1      26.331  -0.079  55.105  1.00  0.00     0.218 A 
HETATM    6  O1  UNL     1      25.644  -0.999  55.086  1.00  0.00    -0.368 OA
BRANCH   4   7
HETATM    7  C3  UNL     1      26.102   2.172  53.537  1.00  0.00     0.306 C 
BRANCH   7   8
HETATM    8  N1  UNL     1      25.238   2.341  52.420  1.00  0.00     0.083 N 
HETATM    9  C4  UNL     1      24.025   3.051  52.758  1.00  0.00     0.309 C 
HETATM   10  C5  UNL     1      25.836   2.783  51.204  1.00  0.00     0.309 C 
ENDBRANCH   7   8
ENDBRANCH   4   7
ENDBRANCH   2   3
ENDBRANCH   1   2
BRANCH   1  11
HETATM   11  O2  UNL     1      22.636  -1.445  55.339  1.00  0.00    -0.389 OA
HETATM   12  H14 UNL     1      22.355  -2.326  55.035  1.00  0.00     0.210 HD
ENDBRANCH   1  11
BRANCH   1  13
HETATM   13  C9  UNL     1      21.516  -0.310  53.546  1.00  0.00     0.076 A 
HETATM   14  C10 UNL     1      20.431  -1.017  53.830  1.00  0.00     0.047 A 
HETATM   15  C11 UNL     1      19.151  -0.928  53.116  1.00  0.00    -0.025 A 
HETATM   16  C12 UNL     1      18.092  -1.705  53.507  1.00  0.00     0.012 A 
HETATM   17  C16 UNL     1      19.169  -0.013  52.087  1.00  0.00    -0.024 A 
HETATM   18  C13 UNL     1      16.930  -1.532  52.774  1.00  0.00     0.001 A 
HETATM   19  C14 UNL     1      16.882  -0.617  51.713  1.00  0.00     0.001 A 
HETATM   20  C15 UNL     1      17.988   0.147  51.359  1.00  0.00     0.010 A 
HETATM   21  C17 UNL     1      20.323   0.811  51.677  1.00  0.00     0.214 A 
HETATM   22  O3  UNL     1      21.441   0.582  52.507  1.00  0.00    -0.348 OA
ENDBRANCH   1  13
TORSDOF 6
ENDMDL
