MODEL 1
REMARK VINA RESULT:      -9.3      0.000      0.000
REMARK  4 active torsions:
REMARK  status: ('A' for Active; 'I' for Inactive)
REMARK    1  A    between atoms: C2_2  and  O1_3 
REMARK    2  A    between atoms: O1_3  and  C3_4 
REMARK       I    between atoms: C3_4  and  N1_6 
REMARK    3  A    between atoms: C12_18  and  N5_19 
REMARK    4  A    between atoms: N5_19  and  C13_20 
ROOT
HETATM    1  C3  UNL     1      28.446   1.010  53.575  1.00  0.00     0.385 C 
HETATM    2  O2  UNL     1      29.056   1.740  52.712  1.00  0.00    -0.236 OA
HETATM    3  N1  UNL     1      27.057   1.232  53.505  1.00  0.00    -0.194 N 
HETATM    4  C4  UNL     1      26.116   0.590  54.408  1.00  0.00     0.178 C 
HETATM    5  C5  UNL     1      25.579  -0.721  53.914  1.00  0.00     0.139 C 
HETATM    6  N2  UNL     1      24.265  -0.979  54.578  1.00  0.00    -0.405 N 
HETATM    7  C6  UNL     1      23.235  -1.325  55.519  1.00  0.00     0.144 C 
HETATM    8  C7  UNL     1      23.914  -0.260  53.365  1.00  0.00     0.128 C 
HETATM    9  C8  UNL     1      23.596   0.734  52.639  1.00  0.00     0.003 C 
HETATM   10  C9  UNL     1      23.250   1.918  51.955  1.00  0.00     0.031 C 
HETATM   11  C10 UNL     1      22.999   3.134  52.287  1.00  0.00     0.073 A 
HETATM   12  N3  UNL     1      22.732   4.376  52.472  1.00  0.00    -0.241 NA
HETATM   13  C11 UNL     1      22.983   5.506  51.928  1.00  0.00     0.236 A 
HETATM   14  N4  UNL     1      23.714   5.767  50.841  1.00  0.00    -0.223 NA
HETATM   15  C12 UNL     1      24.264   4.622  50.247  1.00  0.00     0.143 A 
HETATM   16  C19 UNL     1      23.731   3.685  51.165  1.00  0.00     0.058 A 
HETATM   17  C20 UNL     1      24.963   2.942  51.005  1.00  0.00     0.160 C 
HETATM   18  N6  UNL     1      25.845   1.833  51.504  1.00  0.00    -0.143 NA
HETATM   19  N7  UNL     1      26.251   1.998  52.716  1.00  0.00    -0.062 NA
ENDROOT
BRANCH  15  20
HETATM   20  N5  UNL     1      25.049   4.449  49.096  1.00  0.00    -0.340 N 
HETATM   21  H15 UNL     1      24.959   3.691  48.393  1.00  0.00     0.167 HD
BRANCH  20  22
HETATM   22  C13 UNL     1      26.071   5.461  48.904  1.00  0.00     0.035 A 
HETATM   23  C14 UNL     1      27.368   5.002  48.634  1.00  0.00     0.029 A 
HETATM   24  C15 UNL     1      28.288   6.005  48.466  1.00  0.00     0.004 A 
HETATM   25  C16 UNL     1      28.058   7.334  48.537  1.00  0.00     0.024 A 
HETATM   26  C17 UNL     1      26.762   7.779  48.807  1.00  0.00     0.036 A 
HETATM   27 CL1  UNL     1      26.128   9.406  48.965  1.00  0.00    -0.084 Cl
HETATM   28  C18 UNL     1      25.755   6.828  48.994  1.00  0.00     0.053 A 
ENDBRANCH  20  22
ENDBRANCH  15  20
BRANCH   1  29
HETATM   29  O1  UNL     1      28.901   0.090  54.508  1.00  0.00    -0.295 OA
BRANCH  29  30
HETATM   30  C2  UNL     1      29.817  -0.852  54.149  1.00  0.00     0.163 C 
HETATM   31  C1  UNL     1      29.210  -1.720  53.326  1.00  0.00     0.038 C 
ENDBRANCH  29  30
ENDBRANCH   1  29
TORSDOF 4
ENDMDL
MODEL 2
REMARK VINA RESULT:      -9.2      1.066      1.388
REMARK  4 active torsions:
REMARK  status: ('A' for Active; 'I' for Inactive)
REMARK    1  A    between atoms: C2_2  and  O1_3 
REMARK    2  A    between atoms: O1_3  and  C3_4 
REMARK       I    between atoms: C3_4  and  N1_6 
REMARK    3  A    between atoms: C12_18  and  N5_19 
REMARK    4  A    between atoms: N5_19  and  C13_20 
ROOT
HETATM    1  C3  UNL     1      28.129   1.498  53.515  1.00  0.00     0.385 C 
HETATM    2  O2  UNL     1      28.652   2.281  52.642  1.00  0.00    -0.236 OA
HETATM    3  N1  UNL     1      26.723   1.562  53.445  1.00  0.00    -0.194 N 
HETATM    4  C4  UNL     1      25.861   0.829  54.358  1.00  0.00     0.178 C 
HETATM    5  C5  UNL     1      25.475  -0.540  53.882  1.00  0.00     0.139 C 
HETATM    6  N2  UNL     1      24.199  -0.935  54.551  1.00  0.00    -0.405 N 
HETATM    7  C6  UNL     1      23.214  -1.383  55.499  1.00  0.00     0.144 C 
HETATM    8  C7  UNL     1      23.769  -0.277  53.329  1.00  0.00     0.128 C 
HETATM    9  C8  UNL     1      23.341   0.666  52.591  1.00  0.00     0.003 C 
HETATM   10  C9  UNL     1      22.863   1.794  51.892  1.00  0.00     0.031 C 
HETATM   11  C10 UNL     1      22.477   2.979  52.209  1.00  0.00     0.073 A 
HETATM   12  N3  UNL     1      22.072   4.185  52.378  1.00  0.00    -0.241 NA
HETATM   13  C11 UNL     1      22.194   5.329  51.819  1.00  0.00     0.236 A 
HETATM   14  N4  UNL     1      22.890   5.657  50.728  1.00  0.00    -0.223 NA
HETATM   15  C12 UNL     1      23.566   4.572  50.148  1.00  0.00     0.143 A 
HETATM   16  C19 UNL     1      23.141   3.594  51.079  1.00  0.00     0.058 A 
HETATM   17  C20 UNL     1      24.450   2.993  50.926  1.00  0.00     0.160 C 
HETATM   18  N6  UNL     1      25.451   1.996  51.438  1.00  0.00    -0.143 NA
HETATM   19  N7  UNL     1      25.836   2.221  52.647  1.00  0.00    -0.062 NA
ENDROOT
BRANCH  15  20
HETATM   20  N5  UNL     1      24.365   4.474  48.998  1.00  0.00    -0.340 N 
HETATM   21  H15 UNL     1      24.321   3.731  48.275  1.00  0.00     0.167 HD
BRANCH  20  22
HETATM   22  C13 UNL     1      25.331   5.546  48.840  1.00  0.00     0.035 A 
HETATM   23  C14 UNL     1      24.824   6.852  48.812  1.00  0.00     0.029 A 
HETATM   24  C15 UNL     1      25.785   7.818  48.658  1.00  0.00     0.004 A 
HETATM   25  C16 UNL     1      27.116   7.622  48.535  1.00  0.00     0.024 A 
HETATM   26  C17 UNL     1      27.610   6.315  48.563  1.00  0.00     0.036 A 
HETATM   27 CL1  UNL     1      29.253   5.717  48.434  1.00  0.00    -0.084 Cl
HETATM   28  C18 UNL     1      26.703   5.263  48.717  1.00  0.00     0.053 A 
ENDBRANCH  20  22
ENDBRANCH  15  20
BRANCH   1  29
HETATM   29  O1  UNL     1      28.685   0.648  54.459  1.00  0.00    -0.295 OA
BRANCH  29  30
HETATM   30  C2  UNL     1      29.673  -0.218  54.102  1.00  0.00     0.163 C 
HETATM   31  C1  UNL     1      29.112  -1.207  53.390  1.00  0.00     0.038 C 
ENDBRANCH  29  30
ENDBRANCH   1  29
TORSDOF 4
ENDMDL
MODEL 3
REMARK VINA RESULT:      -8.7      3.892      8.489
REMARK  4 active torsions:
REMARK  status: ('A' for Active; 'I' for Inactive)
REMARK    1  A    between atoms: C2_2  and  O1_3 
REMARK    2  A    between atoms: O1_3  and  C3_4 
REMARK       I    between atoms: C3_4  and  N1_6 
REMARK    3  A    between atoms: C12_18  and  N5_19 
REMARK    4  A    between atoms: N5_19  and  C13_20 
ROOT
HETATM    1  C3  UNL     1      23.372   7.429  50.406  1.00  0.00     0.385 C 
HETATM    2  O2  UNL     1      22.303   6.901  50.882  1.00  0.00    -0.236 OA
HETATM    3  N1  UNL     1      24.432   6.502  50.446  1.00  0.00    -0.194 N 
HETATM    4  C4  UNL     1      25.783   6.842  50.030  1.00  0.00     0.178 C 
HETATM    5  C5  UNL     1      26.069   6.580  48.581  1.00  0.00     0.139 C 
HETATM    6  N2  UNL     1      27.544   6.401  48.411  1.00  0.00    -0.405 N 
HETATM    7  C6  UNL     1      28.958   6.623  48.276  1.00  0.00     0.144 C 
HETATM    8  C7  UNL     1      27.050   5.058  48.662  1.00  0.00     0.128 C 
HETATM    9  C8  UNL     1      26.782   4.011  49.332  1.00  0.00     0.003 C 
HETATM   10  C9  UNL     1      26.542   2.918  50.191  1.00  0.00     0.031 C 
HETATM   11  C10 UNL     1      26.809   2.633  51.416  1.00  0.00     0.073 A 
HETATM   12  N3  UNL     1      27.001   2.219  52.615  1.00  0.00    -0.241 NA
HETATM   13  C11 UNL     1      26.364   1.594  53.532  1.00  0.00     0.236 A 
HETATM   14  N4  UNL     1      25.117   1.117  53.508  1.00  0.00    -0.223 NA
HETATM   15  C12 UNL     1      24.449   1.357  52.297  1.00  0.00     0.143 A 
HETATM   16  C19 UNL     1      25.511   2.037  51.653  1.00  0.00     0.058 A 
HETATM   17  C20 UNL     1      24.499   2.868  51.033  1.00  0.00     0.160 C 
HETATM   18  N6  UNL     1      24.191   4.108  50.243  1.00  0.00    -0.143 NA
HETATM   19  N7  UNL     1      24.547   5.199  50.828  1.00  0.00    -0.062 NA
ENDROOT
BRANCH  15  20
HETATM   20  N5  UNL     1      23.167   1.002  51.850  1.00  0.00    -0.340 N 
HETATM   21  H15 UNL     1      22.721   1.287  50.957  1.00  0.00     0.167 HD
BRANCH  20  22
HETATM   22  C13 UNL     1      22.427   0.143  52.756  1.00  0.00     0.035 A 
HETATM   23  C14 UNL     1      23.176  -0.564  53.706  1.00  0.00     0.029 A 
HETATM   24  C15 UNL     1      22.421  -1.359  54.530  1.00  0.00     0.004 A 
HETATM   25  C16 UNL     1      21.079  -1.510  54.500  1.00  0.00     0.024 A 
HETATM   26  C17 UNL     1      20.343  -0.802  53.548  1.00  0.00     0.036 A 
HETATM   27 CL1  UNL     1      18.617  -0.768  53.239  1.00  0.00    -0.084 Cl
HETATM   28  C18 UNL     1      21.028   0.036  52.663  1.00  0.00     0.053 A 
ENDBRANCH  20  22
ENDBRANCH  15  20
BRANCH   1  29
HETATM   29  O1  UNL     1      23.640   8.687  49.888  1.00  0.00    -0.295 OA
BRANCH  29  30
HETATM   30  C2  UNL     1      23.170   9.034  48.658  1.00  0.00     0.163 C 
HETATM   31  C1  UNL     1      24.100   9.797  48.064  1.00  0.00     0.038 C 
ENDBRANCH  29  30
ENDBRANCH   1  29
TORSDOF 4
ENDMDL
MODEL 4
REMARK VINA RESULT:      -8.4      4.606      8.177
REMARK  4 active torsions:
REMARK  status: ('A' for Active; 'I' for Inactive)
REMARK    1  A    between atoms: C2_2  and  O1_3 
REMARK    2  A    between atoms: O1_3  and  C3_4 
REMARK       I    between atoms: C3_4  and  N1_6 
REMARK    3  A    between atoms: C12_18  and  N5_19 
REMARK    4  A    between atoms: N5_19  and  C13_20 
ROOT
HETATM    1  C3  UNL     1      25.374   3.931  50.221  1.00  0.00     0.385 C 
HETATM    2  O2  UNL     1      26.171   2.925  50.267  1.00  0.00    -0.236 OA
HETATM    3  N1  UNL     1      26.055   5.070  49.749  1.00  0.00    -0.194 N 
HETATM    4  C4  UNL     1      25.421   6.375  49.651  1.00  0.00     0.178 C 
HETATM    5  C5  UNL     1      24.766   6.648  48.330  1.00  0.00     0.139 C 
HETATM    6  N2  UNL     1      24.684   8.128  48.135  1.00  0.00    -0.405 N 
HETATM    7  C6  UNL     1      24.304   9.513  48.199  1.00  0.00     0.144 C 
HETATM    8  C7  UNL     1      25.960   7.763  47.543  1.00  0.00     0.128 C 
HETATM    9  C8  UNL     1      27.220   7.606  47.471  1.00  0.00     0.003 C 
HETATM   10  C9  UNL     1      28.625   7.486  47.529  1.00  0.00     0.031 C 
HETATM   11  C10 UNL     1      29.544   7.807  48.368  1.00  0.00     0.073 A 
HETATM   12  N3  UNL     1      30.559   8.065  49.110  1.00  0.00    -0.241 NA
HETATM   13  C11 UNL     1      31.652   7.509  49.473  1.00  0.00     0.236 A 
HETATM   14  N4  UNL     1      32.132   6.309  49.136  1.00  0.00    -0.223 NA
HETATM   15  C12 UNL     1      31.293   5.593  48.269  1.00  0.00     0.143 A 
HETATM   16  C19 UNL     1      30.276   6.573  48.174  1.00  0.00     0.058 A 
HETATM   17  C20 UNL     1      29.332   5.477  48.119  1.00  0.00     0.160 C 
HETATM   18  N6  UNL     1      27.896   5.040  48.186  1.00  0.00    -0.143 NA
HETATM   19  N7  UNL     1      27.322   5.311  49.307  1.00  0.00    -0.062 NA
ENDROOT
BRANCH  15  20
HETATM   20  N5  UNL     1      31.432   4.337  47.658  1.00  0.00    -0.340 N 
HETATM   21  H15 UNL     1      30.746   3.559  47.677  1.00  0.00     0.167 HD
BRANCH  20  22
HETATM   22  C13 UNL     1      32.675   4.153  46.931  1.00  0.00     0.035 A 
HETATM   23  C14 UNL     1      33.695   3.457  47.593  1.00  0.00     0.029 A 
HETATM   24  C15 UNL     1      34.843   3.318  46.856  1.00  0.00     0.004 A 
HETATM   25  C16 UNL     1      35.060   3.777  45.605  1.00  0.00     0.024 A 
HETATM   26  C17 UNL     1      34.037   4.471  44.955  1.00  0.00     0.036 A 
HETATM   27 CL1  UNL     1      33.986   5.189  43.356  1.00  0.00    -0.084 Cl
HETATM   28  C18 UNL     1      32.827   4.661  45.629  1.00  0.00     0.053 A 
ENDBRANCH  20  22
ENDBRANCH  15  20
BRANCH   1  29
HETATM   29  O1  UNL     1      24.032   4.073  50.537  1.00  0.00    -0.295 OA
BRANCH  29  30
HETATM   30  C2  UNL     1      23.500   3.385  51.586  1.00  0.00     0.163 C 
HETATM   31  C1  UNL     1      23.662   4.131  52.689  1.00  0.00     0.038 C 
ENDBRANCH  29  30
ENDBRANCH   1  29
TORSDOF 4
ENDMDL
MODEL 5
REMARK VINA RESULT:      -8.3      2.708      3.226
REMARK  4 active torsions:
REMARK  status: ('A' for Active; 'I' for Inactive)
REMARK    1  A    between atoms: C2_2  and  O1_3 
REMARK    2  A    between atoms: O1_3  and  C3_4 
REMARK       I    between atoms: C3_4  and  N1_6 
REMARK    3  A    between atoms: C12_18  and  N5_19 
REMARK    4  A    between atoms: N5_19  and  C13_20 
ROOT
HETATM    1  C3  UNL     1      27.377   1.702  52.936  1.00  0.00     0.385 C 
HETATM    2  O2  UNL     1      27.855   2.493  52.046  1.00  0.00    -0.236 OA
HETATM    3  N1  UNL     1      25.969   1.738  52.913  1.00  0.00    -0.194 N 
HETATM    4  C4  UNL     1      25.152   0.990  53.855  1.00  0.00     0.178 C 
HETATM    5  C5  UNL     1      24.777  -0.387  53.393  1.00  0.00     0.139 C 
HETATM    6  N2  UNL     1      23.532  -0.806  54.105  1.00  0.00    -0.405 N 
HETATM    7  C6  UNL     1      22.588  -1.272  55.085  1.00  0.00     0.144 C 
HETATM    8  C7  UNL     1      23.048  -0.158  52.898  1.00  0.00     0.128 C 
HETATM    9  C8  UNL     1      22.578   0.775  52.173  1.00  0.00     0.003 C 
HETATM   10  C9  UNL     1      22.054   1.893  51.490  1.00  0.00     0.031 C 
HETATM   11  C10 UNL     1      21.657   3.070  51.819  1.00  0.00     0.073 A 
HETATM   12  N3  UNL     1      21.234   4.269  52.000  1.00  0.00    -0.241 NA
HETATM   13  C11 UNL     1      21.315   5.414  51.437  1.00  0.00     0.236 A 
HETATM   14  N4  UNL     1      21.968   5.753  50.323  1.00  0.00    -0.223 NA
HETATM   15  C12 UNL     1      22.645   4.681  49.721  1.00  0.00     0.143 A 
HETATM   16  C19 UNL     1      22.271   3.697  50.667  1.00  0.00     0.058 A 
HETATM   17  C20 UNL     1      23.585   3.120  50.471  1.00  0.00     0.160 C 
HETATM   18  N6  UNL     1      24.622   2.145  50.950  1.00  0.00    -0.143 NA
HETATM   19  N7  UNL     1      25.043   2.379  52.145  1.00  0.00    -0.062 NA
ENDROOT
BRANCH  15  20
HETATM   20  N5  UNL     1      23.406   4.597  48.545  1.00  0.00    -0.340 N 
HETATM   21  H15 UNL     1      24.428   4.429  48.479  1.00  0.00     0.167 HD
BRANCH  20  22
HETATM   22  C13 UNL     1      22.646   4.762  47.319  1.00  0.00     0.035 A 
HETATM   23  C14 UNL     1      22.042   3.612  46.794  1.00  0.00     0.029 A 
HETATM   24  C15 UNL     1      21.341   3.831  45.636  1.00  0.00     0.004 A 
HETATM   25  C16 UNL     1      21.194   5.009  44.991  1.00  0.00     0.024 A 
HETATM   26  C17 UNL     1      21.801   6.149  45.524  1.00  0.00     0.036 A 
HETATM   27 CL1  UNL     1      21.810   7.806  44.951  1.00  0.00    -0.084 Cl
HETATM   28  C18 UNL     1      22.538   6.022  46.705  1.00  0.00     0.053 A 
ENDBRANCH  20  22
ENDBRANCH  15  20
BRANCH   1  29
HETATM   29  O1  UNL     1      27.980   0.864  53.862  1.00  0.00    -0.295 OA
BRANCH  29  30
HETATM   30  C2  UNL     1      29.338   0.822  53.963  1.00  0.00     0.163 C 
HETATM   31  C1  UNL     1      29.737  -0.408  53.604  1.00  0.00     0.038 C 
ENDBRANCH  29  30
ENDBRANCH   1  29
TORSDOF 4
ENDMDL
MODEL 6
REMARK VINA RESULT:      -8.1      5.558      8.798
REMARK  4 active torsions:
REMARK  status: ('A' for Active; 'I' for Inactive)
REMARK    1  A    between atoms: C2_2  and  O1_3 
REMARK    2  A    between atoms: O1_3  and  C3_4 
REMARK       I    between atoms: C3_4  and  N1_6 
REMARK    3  A    between atoms: C12_18  and  N5_19 
REMARK    4  A    between atoms: N5_19  and  C13_20 
ROOT
HETATM    1  C3  UNL     1      24.804   0.378  52.734  1.00  0.00     0.385 C 
HETATM    2  O2  UNL     1      24.353  -0.757  53.128  1.00  0.00    -0.236 OA
HETATM    3  N1  UNL     1      23.747   1.189  52.276  1.00  0.00    -0.194 N 
HETATM    4  C4  UNL     1      23.965   2.510  51.709  1.00  0.00     0.178 C 
HETATM    5  C5  UNL     1      23.926   3.628  52.708  1.00  0.00     0.139 C 
HETATM    6  N2  UNL     1      23.577   4.894  51.995  1.00  0.00    -0.405 N 
HETATM    7  C6  UNL     1      23.621   6.092  51.200  1.00  0.00     0.144 C 
HETATM    8  C7  UNL     1      22.292   4.350  52.399  1.00  0.00     0.128 C 
HETATM    9  C8  UNL     1      21.190   3.726  52.280  1.00  0.00     0.003 C 
HETATM   10  C9  UNL     1      20.007   3.007  52.008  1.00  0.00     0.031 C 
HETATM   11  C10 UNL     1      19.476   2.463  50.972  1.00  0.00     0.073 A 
HETATM   12  N3  UNL     1      18.835   1.876  50.028  1.00  0.00    -0.241 NA
HETATM   13  C11 UNL     1      18.153   0.810  49.846  1.00  0.00     0.236 A 
HETATM   14  N4  UNL     1      17.865  -0.158  50.719  1.00  0.00    -0.223 NA
HETATM   15  C12 UNL     1      18.404   0.060  51.996  1.00  0.00     0.143 A 
HETATM   16  C19 UNL     1      19.034   1.294  51.702  1.00  0.00     0.058 A 
HETATM   17  C20 UNL     1      20.092   0.879  52.598  1.00  0.00     0.160 C 
HETATM   18  N6  UNL     1      21.483   1.123  53.113  1.00  0.00    -0.143 NA
HETATM   19  N7  UNL     1      22.394   1.043  52.205  1.00  0.00    -0.062 NA
ENDROOT
BRANCH  15  20
HETATM   20  N5  UNL     1      18.314  -0.675  53.188  1.00  0.00    -0.340 N 
HETATM   21  H15 UNL     1      18.804  -0.472  54.080  1.00  0.00     0.167 HD
BRANCH  20  22
HETATM   22  C13 UNL     1      17.430  -1.825  53.124  1.00  0.00     0.035 A 
HETATM   23  C14 UNL     1      17.896  -3.010  53.709  1.00  0.00     0.029 A 
HETATM   24  C15 UNL     1      17.018  -4.059  53.614  1.00  0.00     0.004 A 
HETATM   25  C16 UNL     1      15.800  -4.044  53.029  1.00  0.00     0.024 A 
HETATM   26  C17 UNL     1      15.347  -2.857  52.449  1.00  0.00     0.036 A 
HETATM   27 CL1  UNL     1      13.843  -2.496  51.623  1.00  0.00    -0.084 Cl
HETATM   28  C18 UNL     1      16.176  -1.732  52.497  1.00  0.00     0.053 A 
ENDBRANCH  20  22
ENDBRANCH  15  20
BRANCH   1  29
HETATM   29  O1  UNL     1      26.084   0.910  52.690  1.00  0.00    -0.295 OA
BRANCH  29  30
HETATM   30  C2  UNL     1      26.737   1.220  53.844  1.00  0.00     0.163 C 
HETATM   31  C1  UNL     1      27.652   2.158  53.558  1.00  0.00     0.038 C 
ENDBRANCH  29  30
ENDBRANCH   1  29
TORSDOF 4
ENDMDL
MODEL 7
REMARK VINA RESULT:      -8.0      2.775      4.224
REMARK  4 active torsions:
REMARK  status: ('A' for Active; 'I' for Inactive)
REMARK    1  A    between atoms: C2_2  and  O1_3 
REMARK    2  A    between atoms: O1_3  and  C3_4 
REMARK       I    between atoms: C3_4  and  N1_6 
REMARK    3  A    between atoms: C12_18  and  N5_19 
REMARK    4  A    between atoms: N5_19  and  C13_20 
ROOT
HETATM    1  C3  UNL     1      24.032   0.493  52.550  1.00  0.00     0.385 C 
HETATM    2  O2  UNL     1      25.286   0.717  52.719  1.00  0.00    -0.236 OA
HETATM    3  N1  UNL     1      23.450   1.534  51.802  1.00  0.00    -0.194 N 
HETATM    4  C4  UNL     1      22.026   1.584  51.508  1.00  0.00     0.178 C 
HETATM    5  C5  UNL     1      21.634   0.912  50.226  1.00  0.00     0.139 C 
HETATM    6  N2  UNL     1      20.345   1.503  49.752  1.00  0.00    -0.405 N 
HETATM    7  C6  UNL     1      18.958   1.839  49.578  1.00  0.00     0.144 C 
HETATM    8  C7  UNL     1      21.366   2.328  49.127  1.00  0.00     0.128 C 
HETATM    9  C8  UNL     1      22.133   3.329  48.969  1.00  0.00     0.003 C 
HETATM   10  C9  UNL     1      22.924   4.496  48.917  1.00  0.00     0.031 C 
HETATM   11  C10 UNL     1      22.997   5.591  49.586  1.00  0.00     0.073 A 
HETATM   12  N3  UNL     1      23.185   6.722  50.164  1.00  0.00    -0.241 NA
HETATM   13  C11 UNL     1      24.158   7.469  50.525  1.00  0.00     0.236 A 
HETATM   14  N4  UNL     1      25.470   7.258  50.388  1.00  0.00    -0.223 NA
HETATM   15  C12 UNL     1      25.780   6.041  49.762  1.00  0.00     0.143 A 
HETATM   16  C19 UNL     1      24.445   5.608  49.571  1.00  0.00     0.058 A 
HETATM   17  C20 UNL     1      24.927   4.266  49.823  1.00  0.00     0.160 C 
HETATM   18  N6  UNL     1      24.584   2.831  50.109  1.00  0.00    -0.143 NA
HETATM   19  N7  UNL     1      23.926   2.663  51.204  1.00  0.00    -0.062 NA
ENDROOT
BRANCH  15  20
HETATM   20  N5  UNL     1      27.005   5.460  49.400  1.00  0.00    -0.340 N 
HETATM   21  H15 UNL     1      27.386   4.556  49.737  1.00  0.00     0.167 HD
BRANCH  20  22
HETATM   22  C13 UNL     1      27.783   6.234  48.449  1.00  0.00     0.035 A 
HETATM   23  C14 UNL     1      29.143   5.913  48.340  1.00  0.00     0.029 A 
HETATM   24  C15 UNL     1      29.823   6.680  47.429  1.00  0.00     0.004 A 
HETATM   25  C16 UNL     1      29.314   7.672  46.667  1.00  0.00     0.024 A 
HETATM   26  C17 UNL     1      27.958   7.983  46.785  1.00  0.00     0.036 A 
HETATM   27 CL1  UNL     1      26.992   9.192  45.959  1.00  0.00    -0.084 Cl
HETATM   28  C18 UNL     1      27.182   7.253  47.690  1.00  0.00     0.053 A 
ENDBRANCH  20  22
ENDBRANCH  15  20
BRANCH   1  29
HETATM   29  O1  UNL     1      23.206  -0.543  52.958  1.00  0.00    -0.295 OA
BRANCH  29  30
HETATM   30  C2  UNL     1      22.764  -0.600  54.245  1.00  0.00     0.163 C 
HETATM   31  C1  UNL     1      21.729  -1.452  54.285  1.00  0.00     0.038 C 
ENDBRANCH  29  30
ENDBRANCH   1  29
TORSDOF 4
ENDMDL
MODEL 8
REMARK VINA RESULT:      -7.9      3.804      8.218
REMARK  4 active torsions:
REMARK  status: ('A' for Active; 'I' for Inactive)
REMARK    1  A    between atoms: C2_2  and  O1_3 
REMARK    2  A    between atoms: O1_3  and  C3_4 
REMARK       I    between atoms: C3_4  and  N1_6 
REMARK    3  A    between atoms: C12_18  and  N5_19 
REMARK    4  A    between atoms: N5_19  and  C13_20 
ROOT
HETATM    1  C3  UNL     1      27.824   7.325  47.631  1.00  0.00     0.385 C 
HETATM    2  O2  UNL     1      28.527   6.379  48.140  1.00  0.00    -0.236 OA
HETATM    3  N1  UNL     1      26.468   7.162  47.975  1.00  0.00    -0.194 N 
HETATM    4  C4  UNL     1      25.425   8.050  47.486  1.00  0.00     0.178 C 
HETATM    5  C5  UNL     1      25.148   9.227  48.373  1.00  0.00     0.139 C 
HETATM    6  N2  UNL     1      23.755   9.703  48.112  1.00  0.00    -0.405 N 
HETATM    7  C6  UNL     1      22.586  10.318  47.543  1.00  0.00     0.144 C 
HETATM    8  C7  UNL     1      23.604   8.732  49.182  1.00  0.00     0.128 C 
HETATM    9  C8  UNL     1      23.350   7.609  49.722  1.00  0.00     0.003 C 
HETATM   10  C9  UNL     1      23.038   6.313  50.186  1.00  0.00     0.031 C 
HETATM   11  C10 UNL     1      22.596   5.227  49.659  1.00  0.00     0.073 A 
HETATM   12  N3  UNL     1      22.167   4.081  49.270  1.00  0.00    -0.241 NA
HETATM   13  C11 UNL     1      22.412   2.843  49.473  1.00  0.00     0.236 A 
HETATM   14  N4  UNL     1      23.330   2.291  50.270  1.00  0.00    -0.223 NA
HETATM   15  C12 UNL     1      24.113   3.230  50.958  1.00  0.00     0.143 A 
HETATM   16  C19 UNL     1      23.493   4.386  50.424  1.00  0.00     0.058 A 
HETATM   17  C20 UNL     1      24.801   5.006  50.451  1.00  0.00     0.160 C 
HETATM   18  N6  UNL     1      25.664   6.157  50.019  1.00  0.00    -0.143 NA
HETATM   19  N7  UNL     1      25.777   6.270  48.740  1.00  0.00    -0.062 NA
ENDROOT
BRANCH  15  20
HETATM   20  N5  UNL     1      25.142   3.080  51.900  1.00  0.00    -0.340 N 
HETATM   21  H15 UNL     1      25.703   3.839  52.332  1.00  0.00     0.167 HD
BRANCH  20  22
HETATM   22  C13 UNL     1      25.413   1.708  52.287  1.00  0.00     0.035 A 
HETATM   23  C14 UNL     1      26.547   1.107  51.726  1.00  0.00     0.029 A 
HETATM   24  C15 UNL     1      26.747  -0.189  52.127  1.00  0.00     0.004 A 
HETATM   25  C16 UNL     1      25.975  -0.899  52.978  1.00  0.00     0.024 A 
HETATM   26  C17 UNL     1      24.846  -0.291  53.530  1.00  0.00     0.036 A 
HETATM   27 CL1  UNL     1      23.649  -0.916  54.649  1.00  0.00    -0.084 Cl
HETATM   28  C18 UNL     1      24.561   1.032  53.178  1.00  0.00     0.053 A 
ENDBRANCH  20  22
ENDBRANCH  15  20
BRANCH   1  29
HETATM   29  O1  UNL     1      28.158   8.418  46.846  1.00  0.00    -0.295 OA
BRANCH  29  30
HETATM   30  C2  UNL     1      28.753   8.235  45.635  1.00  0.00     0.163 C 
HETATM   31  C1  UNL     1      27.884   8.625  44.690  1.00  0.00     0.038 C 
ENDBRANCH  29  30
ENDBRANCH   1  29
TORSDOF 4
ENDMDL
MODEL 9
REMARK VINA RESULT:      -7.9      3.961      8.187
REMARK  4 active torsions:
REMARK  status: ('A' for Active; 'I' for Inactive)
REMARK    1  A    between atoms: C2_2  and  O1_3 
REMARK    2  A    between atoms: O1_3  and  C3_4 
REMARK       I    between atoms: C3_4  and  N1_6 
REMARK    3  A    between atoms: C12_18  and  N5_19 
REMARK    4  A    between atoms: N5_19  and  C13_20 
ROOT
HETATM    1  C3  UNL     1      26.161   6.471  48.769  1.00  0.00     0.385 C 
HETATM    2  O2  UNL     1      26.832   5.408  49.030  1.00  0.00    -0.236 OA
HETATM    3  N1  UNL     1      24.784   6.232  48.944  1.00  0.00    -0.194 N 
HETATM    4  C4  UNL     1      23.773   7.238  48.659  1.00  0.00     0.178 C 
HETATM    5  C5  UNL     1      23.417   8.107  49.829  1.00  0.00     0.139 C 
HETATM    6  N2  UNL     1      22.044   8.657  49.613  1.00  0.00    -0.405 N 
HETATM    7  C6  UNL     1      20.916   9.427  49.161  1.00  0.00     0.144 C 
HETATM    8  C7  UNL     1      21.819   7.416  50.335  1.00  0.00     0.128 C 
HETATM    9  C8  UNL     1      21.536   6.187  50.500  1.00  0.00     0.003 C 
HETATM   10  C9  UNL     1      21.202   4.817  50.538  1.00  0.00     0.031 C 
HETATM   11  C10 UNL     1      20.813   3.939  49.683  1.00  0.00     0.073 A 
HETATM   12  N3  UNL     1      20.427   2.964  48.943  1.00  0.00    -0.241 NA
HETATM   13  C11 UNL     1      20.668   1.718  48.790  1.00  0.00     0.236 A 
HETATM   14  N4  UNL     1      21.527   0.944  49.458  1.00  0.00    -0.223 NA
HETATM   15  C12 UNL     1      22.245   1.629  50.450  1.00  0.00     0.143 A 
HETATM   16  C19 UNL     1      21.656   2.899  50.234  1.00  0.00     0.058 A 
HETATM   17  C20 UNL     1      22.952   3.466  50.542  1.00  0.00     0.160 C 
HETATM   18  N6  UNL     1      23.835   4.682  50.535  1.00  0.00    -0.143 NA
HETATM   19  N7  UNL     1      24.045   5.164  49.359  1.00  0.00    -0.062 NA
ENDROOT
BRANCH  15  20
HETATM   20  N5  UNL     1      23.199   1.196  51.383  1.00  0.00    -0.340 N 
HETATM   21  H15 UNL     1      24.219   1.387  51.361  1.00  0.00     0.167 HD
BRANCH  20  22
HETATM   22  C13 UNL     1      22.661   0.408  52.477  1.00  0.00     0.035 A 
HETATM   23  C14 UNL     1      21.276   0.200  52.481  1.00  0.00     0.029 A 
HETATM   24  C15 UNL     1      20.829  -0.549  53.539  1.00  0.00     0.004 A 
HETATM   25  C16 UNL     1      21.579  -1.075  54.531  1.00  0.00     0.024 A 
HETATM   26  C17 UNL     1      22.959  -0.860  54.518  1.00  0.00     0.036 A 
HETATM   27 CL1  UNL     1      24.205  -1.392  55.632  1.00  0.00    -0.084 Cl
HETATM   28  C18 UNL     1      23.507  -0.107  53.475  1.00  0.00     0.053 A 
ENDBRANCH  20  22
ENDBRANCH  15  20
BRANCH   1  29
HETATM   29  O1  UNL     1      26.544   7.742  48.369  1.00  0.00    -0.295 OA
BRANCH  29  30
HETATM   30  C2  UNL     1      27.568   8.379  49.002  1.00  0.00     0.163 C 
HETATM   31  C1  UNL     1      27.070   8.956  50.106  1.00  0.00     0.038 C 
ENDBRANCH  29  30
ENDBRANCH   1  29
TORSDOF 4
ENDMDL
