MODEL 1
REMARK VINA RESULT:      -8.0      0.000      0.000
REMARK  8 active torsions:
REMARK  status: ('A' for Active; 'I' for Inactive)
REMARK    1  A    between atoms: O1_2  and  C2_3 
REMARK    2  A    between atoms: C2_3  and  C3_4 
REMARK    3  A    between atoms: C3_4  and  C4_5 
REMARK    4  A    between atoms: C9_13  and  C10_14 
REMARK    5  A    between atoms: C10_14  and  C11_15 
REMARK    6  A    between atoms: C12_16  and  C13_17 
REMARK    7  A    between atoms: C13_17  and  C14_18 
REMARK    8  A    between atoms: C16_20  and  C17_21 
ROOT
HETATM    1  C4  UNL     1      22.873   0.070  52.958  1.00  0.00    -0.035 C 
HETATM    2  C5  UNL     1      23.255  -0.815  53.832  1.00  0.00     0.141 C 
HETATM    3  O2  UNL     1      24.534  -0.585  54.025  1.00  0.00    -0.358 OA
HETATM    4  C6  UNL     1      25.304  -0.530  55.250  1.00  0.00     0.229 C 
HETATM    5  C7  UNL     1      26.626  -0.061  54.961  1.00  0.00     0.265 C 
HETATM    6  N1  UNL     1      26.716   1.311  54.538  1.00  0.00    -0.260 NA
HETATM    7  C8  UNL     1      26.797   2.087  53.637  1.00  0.00     0.354 A 
HETATM    8  N2  UNL     1      26.844   1.450  52.194  1.00  0.00    -0.000 N 
HETATM    9  C9  UNL     1      26.637   2.482  51.372  1.00  0.00     0.214 A 
HETATM   10  C18 UNL     1      26.377   1.275  52.165  1.00  0.00     0.226 A 
HETATM   11  C19 UNL     1      27.634   0.890  52.573  1.00  0.00     0.263 A 
HETATM   12  C20 UNL     1      28.235  -0.263  53.418  1.00  0.00     0.207 C 
HETATM   13  O3  UNL     1      26.985  -0.862  53.742  1.00  0.00    -0.361 OA
HETATM   14  C21 UNL     1      24.903   1.097  52.203  1.00  0.00     0.019 C 
HETATM   15  C22 UNL     1      23.609   1.039  52.149  1.00  0.00     0.007 C 
ENDROOT
BRANCH   9  16
HETATM   16  C10 UNL     1      26.496   2.973  49.992  1.00  0.00     0.072 C 
BRANCH  16  17
HETATM   17  C11 UNL     1      25.632   4.214  49.990  1.00  0.00    -0.024 C 
HETATM   18  C12 UNL     1      24.565   4.243  50.763  1.00  0.00    -0.007 C 
BRANCH  18  19
HETATM   19  C13 UNL     1      23.354   4.743  51.395  1.00  0.00    -0.008 C 
BRANCH  19  20
HETATM   20  C14 UNL     1      22.422   4.790  52.327  1.00  0.00     0.032 A 
HETATM   21  C15 UNL     1      21.753   4.313  52.234  1.00  0.00    -0.053 A 
HETATM   22  C16 UNL     1      21.313   3.991  52.162  1.00  0.00    -0.053 A 
HETATM   23  C17 UNL     1      20.711   3.542  52.048  1.00  0.00     0.085 A 
ENDBRANCH  19  20
ENDBRANCH  18  19
ENDBRANCH  16  17
ENDBRANCH   9  16
BRANCH   1  24
HETATM   24  C3  UNL     1      21.433  -0.010  52.604  1.00  0.00     0.066 C 
BRANCH  24  25
HETATM   25  C2  UNL     1      20.585  -0.576  53.689  1.00  0.00     0.171 C 
BRANCH  25  26
HETATM   26  O1  UNL     1      19.286  -0.754  53.287  1.00  0.00    -0.396 OA
HETATM   27  C1  UNL     1      18.890  -0.096  52.154  1.00  0.00     0.201 C 
ENDBRANCH  25  26
ENDBRANCH  24  25
ENDBRANCH   1  24
TORSDOF 8
ENDMDL
MODEL 2
REMARK VINA RESULT:      -8.0      1.732      1.915
REMARK  8 active torsions:
REMARK  status: ('A' for Active; 'I' for Inactive)
REMARK    1  A    between atoms: O1_2  and  C2_3 
REMARK    2  A    between atoms: C2_3  and  C3_4 
REMARK    3  A    between atoms: C3_4  and  C4_5 
REMARK    4  A    between atoms: C9_13  and  C10_14 
REMARK    5  A    between atoms: C10_14  and  C11_15 
REMARK    6  A    between atoms: C12_16  and  C13_17 
REMARK    7  A    between atoms: C13_17  and  C14_18 
REMARK    8  A    between atoms: C16_20  and  C17_21 
ROOT
HETATM    1  C4  UNL     1      22.849   0.166  52.779  1.00  0.00    -0.035 C 
HETATM    2  C5  UNL     1      23.178  -0.771  53.620  1.00  0.00     0.141 C 
HETATM    3  O2  UNL     1      24.453  -0.582  53.874  1.00  0.00    -0.358 OA
HETATM    4  C6  UNL     1      25.175  -0.609  55.128  1.00  0.00     0.229 C 
HETATM    5  C7  UNL     1      26.517  -0.157  54.915  1.00  0.00     0.265 C 
HETATM    6  N1  UNL     1      26.653   1.232  54.568  1.00  0.00    -0.260 NA
HETATM    7  C8  UNL     1      26.786   2.052  53.713  1.00  0.00     0.354 A 
HETATM    8  N2  UNL     1      26.877   1.489  52.242  1.00  0.00    -0.000 N 
HETATM    9  C9  UNL     1      26.725   2.566  51.467  1.00  0.00     0.214 A 
HETATM   10  C18 UNL     1      26.407   1.327  52.186  1.00  0.00     0.226 A 
HETATM   11  C19 UNL     1      27.639   0.891  52.621  1.00  0.00     0.263 A 
HETATM   12  C20 UNL     1      28.181  -0.318  53.427  1.00  0.00     0.207 C 
HETATM   13  O3  UNL     1      26.907  -0.902  53.671  1.00  0.00    -0.361 OA
HETATM   14  C21 UNL     1      24.930   1.182  52.157  1.00  0.00     0.019 C 
HETATM   15  C22 UNL     1      23.638   1.157  52.051  1.00  0.00     0.007 C 
ENDROOT
BRANCH   9  16
HETATM   16  C10 UNL     1      26.649   3.131  50.110  1.00  0.00     0.072 C 
BRANCH  16  17
HETATM   17  C11 UNL     1      25.379   3.940  49.977  1.00  0.00    -0.024 C 
HETATM   18  C12 UNL     1      24.353   3.407  49.345  1.00  0.00    -0.007 C 
BRANCH  18  19
HETATM   19  C13 UNL     1      23.022   3.281  48.771  1.00  0.00    -0.008 C 
BRANCH  19  20
HETATM   20  C14 UNL     1      21.747   2.945  48.768  1.00  0.00     0.032 A 
HETATM   21  C15 UNL     1      21.554   2.142  48.792  1.00  0.00    -0.053 A 
HETATM   22  C16 UNL     1      21.438   1.604  48.807  1.00  0.00    -0.053 A 
HETATM   23  C17 UNL     1      21.294   0.859  48.829  1.00  0.00     0.085 A 
ENDBRANCH  19  20
ENDBRANCH  18  19
ENDBRANCH  16  17
ENDBRANCH   9  16
BRANCH   1  24
HETATM   24  C3  UNL     1      21.423   0.139  52.366  1.00  0.00     0.066 C 
BRANCH  24  25
HETATM   25  C2  UNL     1      20.527   0.899  53.279  1.00  0.00     0.171 C 
BRANCH  25  26
HETATM   26  O1  UNL     1      20.314   2.182  52.841  1.00  0.00    -0.396 OA
HETATM   27  C1  UNL     1      19.382   2.355  51.854  1.00  0.00     0.201 C 
ENDBRANCH  25  26
ENDBRANCH  24  25
ENDBRANCH   1  24
TORSDOF 8
ENDMDL
MODEL 3
REMARK VINA RESULT:      -7.7      2.150      4.019
REMARK  8 active torsions:
REMARK  status: ('A' for Active; 'I' for Inactive)
REMARK    1  A    between atoms: O1_2  and  C2_3 
REMARK    2  A    between atoms: C2_3  and  C3_4 
REMARK    3  A    between atoms: C3_4  and  C4_5 
REMARK    4  A    between atoms: C9_13  and  C10_14 
REMARK    5  A    between atoms: C10_14  and  C11_15 
REMARK    6  A    between atoms: C12_16  and  C13_17 
REMARK    7  A    between atoms: C13_17  and  C14_18 
REMARK    8  A    between atoms: C16_20  and  C17_21 
ROOT
HETATM    1  C4  UNL     1      22.758  -0.012  52.985  1.00  0.00    -0.035 C 
HETATM    2  C5  UNL     1      23.145  -0.849  53.903  1.00  0.00     0.141 C 
HETATM    3  O2  UNL     1      24.424  -0.609  54.079  1.00  0.00    -0.358 OA
HETATM    4  C6  UNL     1      25.198  -0.489  55.297  1.00  0.00     0.229 C 
HETATM    5  C7  UNL     1      26.519  -0.036  54.979  1.00  0.00     0.265 C 
HETATM    6  N1  UNL     1      26.606   1.312  54.483  1.00  0.00    -0.260 NA
HETATM    7  C8  UNL     1      26.684   2.039  53.542  1.00  0.00     0.354 A 
HETATM    8  N2  UNL     1      26.726   1.327  52.135  1.00  0.00    -0.000 N 
HETATM    9  C9  UNL     1      26.516   2.313  51.260  1.00  0.00     0.214 A 
HETATM   10  C18 UNL     1      26.259   1.150  52.117  1.00  0.00     0.226 A 
HETATM   11  C19 UNL     1      27.518   0.788  52.540  1.00  0.00     0.263 A 
HETATM   12  C20 UNL     1      28.122  -0.319  53.443  1.00  0.00     0.207 C 
HETATM   13  O3  UNL     1      26.874  -0.900  53.802  1.00  0.00    -0.361 OA
HETATM   14  C21 UNL     1      24.785   0.974  52.169  1.00  0.00     0.019 C 
HETATM   15  C22 UNL     1      23.491   0.913  52.123  1.00  0.00     0.007 C 
ENDROOT
BRANCH   9  16
HETATM   16  C10 UNL     1      26.369   2.731  49.856  1.00  0.00     0.072 C 
BRANCH  16  17
HETATM   17  C11 UNL     1      26.490   4.235  49.768  1.00  0.00    -0.024 C 
HETATM   18  C12 UNL     1      27.352   4.752  48.914  1.00  0.00    -0.007 C 
BRANCH  18  19
HETATM   19  C13 UNL     1      28.110   5.755  48.181  1.00  0.00    -0.008 C 
BRANCH  19  20
HETATM   20  C14 UNL     1      29.187   6.446  47.865  1.00  0.00     0.032 A 
HETATM   21  C15 UNL     1      29.917   6.060  47.880  1.00  0.00    -0.053 A 
HETATM   22  C16 UNL     1      30.398   5.793  47.894  1.00  0.00    -0.053 A 
HETATM   23  C17 UNL     1      31.053   5.410  47.918  1.00  0.00     0.085 A 
ENDBRANCH  19  20
ENDBRANCH  18  19
ENDBRANCH  16  17
ENDBRANCH   9  16
BRANCH   1  24
HETATM   24  C3  UNL     1      21.317  -0.111  52.641  1.00  0.00     0.066 C 
BRANCH  24  25
HETATM   25  C2  UNL     1      20.435  -0.295  53.825  1.00  0.00     0.171 C 
BRANCH  25  26
HETATM   26  O1  UNL     1      19.341  -1.071  53.537  1.00  0.00    -0.396 OA
HETATM   27  C1  UNL     1      18.452  -0.576  52.622  1.00  0.00     0.201 C 
ENDBRANCH  25  26
ENDBRANCH  24  25
ENDBRANCH   1  24
TORSDOF 8
ENDMDL
MODEL 4
REMARK VINA RESULT:      -7.7      2.327      5.929
REMARK  8 active torsions:
REMARK  status: ('A' for Active; 'I' for Inactive)
REMARK    1  A    between atoms: O1_2  and  C2_3 
REMARK    2  A    between atoms: C2_3  and  C3_4 
REMARK    3  A    between atoms: C3_4  and  C4_5 
REMARK    4  A    between atoms: C9_13  and  C10_14 
REMARK    5  A    between atoms: C10_14  and  C11_15 
REMARK    6  A    between atoms: C12_16  and  C13_17 
REMARK    7  A    between atoms: C13_17  and  C14_18 
REMARK    8  A    between atoms: C16_20  and  C17_21 
ROOT
HETATM    1  C4  UNL     1      25.475   0.868  52.701  1.00  0.00    -0.035 C 
HETATM    2  C5  UNL     1      26.336   1.084  51.750  1.00  0.00     0.141 C 
HETATM    3  O2  UNL     1      25.849   2.090  51.059  1.00  0.00    -0.358 OA
HETATM    4  C6  UNL     1      26.501   3.270  50.533  1.00  0.00     0.229 C 
HETATM    5  C7  UNL     1      25.513   4.167  50.012  1.00  0.00     0.265 C 
HETATM    6  N1  UNL     1      24.645   4.766  50.991  1.00  0.00    -0.260 NA
HETATM    7  C8  UNL     1      23.594   4.750  51.553  1.00  0.00     0.354 A 
HETATM    8  N2  UNL     1      22.604   3.604  51.110  1.00  0.00    -0.000 N 
HETATM    9  C9  UNL     1      21.656   3.606  52.051  1.00  0.00     0.214 A 
HETATM   10  C18 UNL     1      22.848   3.208  51.293  1.00  0.00     0.226 A 
HETATM   11  C19 UNL     1      22.763   3.971  50.150  1.00  0.00     0.263 A 
HETATM   12  C20 UNL     1      23.598   4.148  48.855  1.00  0.00     0.207 C 
HETATM   13  O3  UNL     1      24.627   3.241  49.230  1.00  0.00    -0.361 OA
HETATM   14  C21 UNL     1      23.594   2.245  52.142  1.00  0.00     0.019 C 
HETATM   15  C22 UNL     1      24.142   1.406  52.964  1.00  0.00     0.007 C 
ENDROOT
BRANCH   9  16
HETATM   16  C10 UNL     1      20.407   3.026  52.570  1.00  0.00     0.072 C 
BRANCH  16  17
HETATM   17  C11 UNL     1      20.316   1.578  52.147  1.00  0.00    -0.024 C 
HETATM   18  C12 UNL     1      20.486   0.641  53.059  1.00  0.00    -0.007 C 
BRANCH  18  19
HETATM   19  C13 UNL     1      20.594  -0.687  53.645  1.00  0.00    -0.008 C 
BRANCH  19  20
HETATM   20  C14 UNL     1      21.219  -1.689  54.229  1.00  0.00     0.032 A 
HETATM   21  C15 UNL     1      21.894  -1.522  54.676  1.00  0.00    -0.053 A 
HETATM   22  C16 UNL     1      22.342  -1.399  54.971  1.00  0.00    -0.053 A 
HETATM   23  C17 UNL     1      22.958  -1.212  55.373  1.00  0.00     0.085 A 
ENDBRANCH  19  20
ENDBRANCH  18  19
ENDBRANCH  16  17
ENDBRANCH   9  16
BRANCH   1  24
HETATM   24  C3  UNL     1      25.847  -0.239  53.617  1.00  0.00     0.066 C 
BRANCH  24  25
HETATM   25  C2  UNL     1      26.485   0.224  54.880  1.00  0.00     0.171 C 
BRANCH  25  26
HETATM   26  O1  UNL     1      27.692  -0.388  55.103  1.00  0.00    -0.396 OA
HETATM   27  C1  UNL     1      28.786   0.151  54.482  1.00  0.00     0.201 C 
ENDBRANCH  25  26
ENDBRANCH  24  25
ENDBRANCH   1  24
TORSDOF 8
ENDMDL
MODEL 5
REMARK VINA RESULT:      -7.6      2.400      5.831
REMARK  8 active torsions:
REMARK  status: ('A' for Active; 'I' for Inactive)
REMARK    1  A    between atoms: O1_2  and  C2_3 
REMARK    2  A    between atoms: C2_3  and  C3_4 
REMARK    3  A    between atoms: C3_4  and  C4_5 
REMARK    4  A    between atoms: C9_13  and  C10_14 
REMARK    5  A    between atoms: C10_14  and  C11_15 
REMARK    6  A    between atoms: C12_16  and  C13_17 
REMARK    7  A    between atoms: C13_17  and  C14_18 
REMARK    8  A    between atoms: C16_20  and  C17_21 
ROOT
HETATM    1  C4  UNL     1      25.487   0.109  53.057  1.00  0.00    -0.035 C 
HETATM    2  C5  UNL     1      24.813  -0.605  53.910  1.00  0.00     0.141 C 
HETATM    3  O2  UNL     1      23.548  -0.369  53.642  1.00  0.00    -0.358 OA
HETATM    4  C6  UNL     1      22.424  -1.275  53.538  1.00  0.00     0.229 C 
HETATM    5  C7  UNL     1      21.284  -0.565  53.042  1.00  0.00     0.265 C 
HETATM    6  N1  UNL     1      21.382  -0.115  51.678  1.00  0.00    -0.260 NA
HETATM    7  C8  UNL     1      21.623   0.774  50.923  1.00  0.00     0.354 A 
HETATM    8  N2  UNL     1      22.027   2.144  51.593  1.00  0.00    -0.000 N 
HETATM    9  C9  UNL     1      22.523   2.870  50.588  1.00  0.00     0.214 A 
HETATM   10  C18 UNL     1      22.472   2.017  51.781  1.00  0.00     0.226 A 
HETATM   11  C19 UNL     1      21.138   2.035  52.123  1.00  0.00     0.263 A 
HETATM   12  C20 UNL     1      20.259   1.415  53.239  1.00  0.00     0.207 C 
HETATM   13  O3  UNL     1      21.315   0.693  53.862  1.00  0.00    -0.361 OA
HETATM   14  C21 UNL     1      23.847   1.499  51.997  1.00  0.00     0.019 C 
HETATM   15  C22 UNL     1      25.085   1.128  52.090  1.00  0.00     0.007 C 
ENDROOT
BRANCH   9  16
HETATM   16  C10 UNL     1      23.121   4.136  50.134  1.00  0.00     0.072 C 
BRANCH  16  17
HETATM   17  C11 UNL     1      24.253   3.838  49.178  1.00  0.00    -0.024 C 
HETATM   18  C12 UNL     1      25.433   4.380  49.407  1.00  0.00    -0.007 C 
BRANCH  18  19
HETATM   19  C13 UNL     1      26.838   4.713  49.226  1.00  0.00    -0.008 C 
BRANCH  19  20
HETATM   20  C14 UNL     1      27.978   4.773  48.566  1.00  0.00     0.032 A 
HETATM   21  C15 UNL     1      28.258   5.516  48.336  1.00  0.00    -0.053 A 
HETATM   22  C16 UNL     1      28.434   6.015  48.188  1.00  0.00    -0.053 A 
HETATM   23  C17 UNL     1      28.663   6.711  47.990  1.00  0.00     0.085 A 
ENDBRANCH  19  20
ENDBRANCH  18  19
ENDBRANCH  16  17
ENDBRANCH   9  16
BRANCH   1  24
HETATM   24  C3  UNL     1      26.960  -0.026  53.183  1.00  0.00     0.066 C 
BRANCH  24  25
HETATM   25  C2  UNL     1      27.454   0.134  54.578  1.00  0.00     0.171 C 
BRANCH  25  26
HETATM   26  O1  UNL     1      28.690  -0.434  54.756  1.00  0.00    -0.396 OA
HETATM   27  C1  UNL     1      29.427  -0.682  53.630  1.00  0.00     0.201 C 
ENDBRANCH  25  26
ENDBRANCH  24  25
ENDBRANCH   1  24
TORSDOF 8
ENDMDL
MODEL 6
REMARK VINA RESULT:      -7.6      2.692      5.694
REMARK  8 active torsions:
REMARK  status: ('A' for Active; 'I' for Inactive)
REMARK    1  A    between atoms: O1_2  and  C2_3 
REMARK    2  A    between atoms: C2_3  and  C3_4 
REMARK    3  A    between atoms: C3_4  and  C4_5 
REMARK    4  A    between atoms: C9_13  and  C10_14 
REMARK    5  A    between atoms: C10_14  and  C11_15 
REMARK    6  A    between atoms: C12_16  and  C13_17 
REMARK    7  A    between atoms: C13_17  and  C14_18 
REMARK    8  A    between atoms: C16_20  and  C17_21 
ROOT
HETATM    1  C4  UNL     1      22.414   0.557  52.577  1.00  0.00    -0.035 C 
HETATM    2  C5  UNL     1      21.124   0.440  52.465  1.00  0.00     0.141 C 
HETATM    3  O2  UNL     1      20.805   1.104  51.378  1.00  0.00    -0.358 OA
HETATM    4  C6  UNL     1      19.911   0.757  50.293  1.00  0.00     0.229 C 
HETATM    5  C7  UNL     1      20.039   1.722  49.243  1.00  0.00     0.265 C 
HETATM    6  N1  UNL     1      21.300   1.716  48.550  1.00  0.00    -0.260 NA
HETATM    7  C8  UNL     1      22.385   2.193  48.424  1.00  0.00     0.354 A 
HETATM    8  N2  UNL     1      22.718   3.392  49.394  1.00  0.00    -0.000 N 
HETATM    9  C9  UNL     1      24.038   3.554  49.278  1.00  0.00     0.214 A 
HETATM   10  C18 UNL     1      22.741   3.144  49.828  1.00  0.00     0.226 A 
HETATM   11  C19 UNL     1      21.837   3.806  49.027  1.00  0.00     0.263 A 
HETATM   12  C20 UNL     1      20.294   3.924  48.939  1.00  0.00     0.207 C 
HETATM   13  O3  UNL     1      20.025   3.018  50.002  1.00  0.00    -0.361 OA
HETATM   14  C21 UNL     1      23.024   2.175  50.917  1.00  0.00     0.019 C 
HETATM   15  C22 UNL     1      23.397   1.360  51.853  1.00  0.00     0.007 C 
ENDROOT
BRANCH   9  16
HETATM   16  C10 UNL     1      25.249   4.288  49.678  1.00  0.00     0.072 C 
BRANCH  16  17
HETATM   17  C11 UNL     1      26.418   3.330  49.733  1.00  0.00    -0.024 C 
HETATM   18  C12 UNL     1      26.466   2.446  50.710  1.00  0.00    -0.007 C 
BRANCH  18  19
HETATM   19  C13 UNL     1      26.957   1.354  51.536  1.00  0.00    -0.008 C 
BRANCH  19  20
HETATM   20  C14 UNL     1      27.043   0.629  52.634  1.00  0.00     0.032 A 
HETATM   21  C15 UNL     1      26.840  -0.171  52.591  1.00  0.00    -0.053 A 
HETATM   22  C16 UNL     1      26.702  -0.702  52.550  1.00  0.00    -0.053 A 
HETATM   23  C17 UNL     1      26.508  -1.432  52.478  1.00  0.00     0.085 A 
ENDBRANCH  19  20
ENDBRANCH  18  19
ENDBRANCH  16  17
ENDBRANCH   9  16
BRANCH   1  24
HETATM   24  C3  UNL     1      22.988  -0.143  53.755  1.00  0.00     0.066 C 
BRANCH  24  25
HETATM   25  C2  UNL     1      21.998  -0.974  54.492  1.00  0.00     0.171 C 
BRANCH  25  26
HETATM   26  O1  UNL     1      22.571  -1.653  55.537  1.00  0.00    -0.396 OA
HETATM   27  C1  UNL     1      23.902  -1.432  55.765  1.00  0.00     0.201 C 
ENDBRANCH  25  26
ENDBRANCH  24  25
ENDBRANCH   1  24
TORSDOF 8
ENDMDL
MODEL 7
REMARK VINA RESULT:      -7.6      2.058      4.700
REMARK  8 active torsions:
REMARK  status: ('A' for Active; 'I' for Inactive)
REMARK    1  A    between atoms: O1_2  and  C2_3 
REMARK    2  A    between atoms: C2_3  and  C3_4 
REMARK    3  A    between atoms: C3_4  and  C4_5 
REMARK    4  A    between atoms: C9_13  and  C10_14 
REMARK    5  A    between atoms: C10_14  and  C11_15 
REMARK    6  A    between atoms: C12_16  and  C13_17 
REMARK    7  A    between atoms: C13_17  and  C14_18 
REMARK    8  A    between atoms: C16_20  and  C17_21 
ROOT
HETATM    1  C4  UNL     1      23.502   2.683  51.490  1.00  0.00    -0.035 C 
HETATM    2  C5  UNL     1      24.664   3.239  51.305  1.00  0.00     0.141 C 
HETATM    3  O2  UNL     1      25.528   2.454  51.908  1.00  0.00    -0.358 OA
HETATM    4  C6  UNL     1      26.822   1.972  51.474  1.00  0.00     0.229 C 
HETATM    5  C7  UNL     1      27.300   0.991  52.401  1.00  0.00     0.265 C 
HETATM    6  N1  UNL     1      26.562  -0.243  52.429  1.00  0.00    -0.260 NA
HETATM    7  C8  UNL     1      25.720  -0.905  52.953  1.00  0.00     0.354 A 
HETATM    8  N2  UNL     1      25.020  -0.247  54.205  1.00  0.00    -0.000 N 
HETATM    9  C9  UNL     1      23.951  -1.016  54.427  1.00  0.00     0.214 A 
HETATM   10  C18 UNL     1      24.767   0.118  53.976  1.00  0.00     0.226 A 
HETATM   11  C19 UNL     1      25.991  -0.124  54.560  1.00  0.00     0.263 A 
HETATM   12  C20 UNL     1      27.372   0.578  54.599  1.00  0.00     0.207 C 
HETATM   13  O3  UNL     1      27.012   1.640  53.724  1.00  0.00    -0.361 OA
HETATM   14  C21 UNL     1      23.914   0.925  53.068  1.00  0.00     0.019 C 
HETATM   15  C22 UNL     1      23.070   1.553  52.310  1.00  0.00     0.007 C 
ENDROOT
BRANCH   9  16
HETATM   16  C10 UNL     1      22.752  -1.288  55.235  1.00  0.00     0.072 C 
BRANCH  16  17
HETATM   17  C11 UNL     1      21.639  -1.769  54.331  1.00  0.00    -0.024 C 
HETATM   18  C12 UNL     1      20.817  -0.880  53.811  1.00  0.00    -0.007 C 
BRANCH  18  19
HETATM   19  C13 UNL     1      19.711  -0.334  53.039  1.00  0.00    -0.008 C 
BRANCH  19  20
HETATM   20  C14 UNL     1      19.141   0.495  52.188  1.00  0.00     0.032 A 
HETATM   21  C15 UNL     1      19.486   0.590  51.443  1.00  0.00    -0.053 A 
HETATM   22  C16 UNL     1      19.725   0.645  50.951  1.00  0.00    -0.053 A 
HETATM   23  C17 UNL     1      20.067   0.710  50.276  1.00  0.00     0.085 A 
ENDBRANCH  19  20
ENDBRANCH  18  19
ENDBRANCH  16  17
ENDBRANCH   9  16
BRANCH   1  24
HETATM   24  C3  UNL     1      22.372   3.417  50.868  1.00  0.00     0.066 C 
BRANCH  24  25
HETATM   25  C2  UNL     1      21.492   4.100  51.856  1.00  0.00     0.171 C 
BRANCH  25  26
HETATM   26  O1  UNL     1      21.232   5.400  51.501  1.00  0.00    -0.396 OA
HETATM   27  C1  UNL     1      22.144   6.017  50.688  1.00  0.00     0.201 C 
ENDBRANCH  25  26
ENDBRANCH  24  25
ENDBRANCH   1  24
TORSDOF 8
ENDMDL
MODEL 8
REMARK VINA RESULT:      -7.4      2.699      6.228
REMARK  8 active torsions:
REMARK  status: ('A' for Active; 'I' for Inactive)
REMARK    1  A    between atoms: O1_2  and  C2_3 
REMARK    2  A    between atoms: C2_3  and  C3_4 
REMARK    3  A    between atoms: C3_4  and  C4_5 
REMARK    4  A    between atoms: C9_13  and  C10_14 
REMARK    5  A    between atoms: C10_14  and  C11_15 
REMARK    6  A    between atoms: C12_16  and  C13_17 
REMARK    7  A    between atoms: C13_17  and  C14_18 
REMARK    8  A    between atoms: C16_20  and  C17_21 
ROOT
HETATM    1  C4  UNL     1      24.684   1.170  52.199  1.00  0.00    -0.035 C 
HETATM    2  C5  UNL     1      25.581   1.993  51.739  1.00  0.00     0.141 C 
HETATM    3  O2  UNL     1      24.921   2.845  50.988  1.00  0.00    -0.358 OA
HETATM    4  C6  UNL     1      25.019   4.286  50.895  1.00  0.00     0.229 C 
HETATM    5  C7  UNL     1      23.959   4.783  50.069  1.00  0.00     0.265 C 
HETATM    6  N1  UNL     1      22.635   4.648  50.615  1.00  0.00    -0.260 NA
HETATM    7  C8  UNL     1      21.619   4.027  50.659  1.00  0.00     0.354 A 
HETATM    8  N2  UNL     1      21.566   2.746  49.739  1.00  0.00    -0.000 N 
HETATM    9  C9  UNL     1      20.493   2.076  50.168  1.00  0.00     0.214 A 
HETATM   10  C18 UNL     1      21.897   2.458  49.978  1.00  0.00     0.226 A 
HETATM   11  C19 UNL     1      21.833   3.402  48.976  1.00  0.00     0.263 A 
HETATM   12  C20 UNL     1      22.845   4.278  48.195  1.00  0.00     0.207 C 
HETATM   13  O3  UNL     1      23.993   3.831  48.907  1.00  0.00    -0.361 OA
HETATM   14  C21 UNL     1      22.687   1.708  50.987  1.00  0.00     0.019 C 
HETATM   15  C22 UNL     1      23.266   0.989  51.897  1.00  0.00     0.007 C 
ENDROOT
BRANCH   9  16
HETATM   16  C10 UNL     1      19.621   0.897  50.043  1.00  0.00     0.072 C 
BRANCH  16  17
HETATM   17  C11 UNL     1      19.008   0.584  51.389  1.00  0.00    -0.024 C 
HETATM   18  C12 UNL     1      19.809   0.304  52.398  1.00  0.00    -0.007 C 
BRANCH  18  19
HETATM   19  C13 UNL     1      20.231  -0.050  53.745  1.00  0.00    -0.008 C 
BRANCH  19  20
HETATM   20  C14 UNL     1      21.010   0.001  54.807  1.00  0.00     0.032 A 
HETATM   21  C15 UNL     1      21.613  -0.560  54.877  1.00  0.00    -0.053 A 
HETATM   22  C16 UNL     1      22.010  -0.939  54.913  1.00  0.00    -0.053 A 
HETATM   23  C17 UNL     1      22.553  -1.468  54.948  1.00  0.00     0.085 A 
ENDBRANCH  19  20
ENDBRANCH  18  19
ENDBRANCH  16  17
ENDBRANCH   9  16
BRANCH   1  24
HETATM   24  C3  UNL     1      25.227   0.118  53.094  1.00  0.00     0.066 C 
BRANCH  24  25
HETATM   25  C2  UNL     1      26.695  -0.085  52.950  1.00  0.00     0.171 C 
BRANCH  25  26
HETATM   26  O1  UNL     1      27.260  -0.591  54.092  1.00  0.00    -0.396 OA
HETATM   27  C1  UNL     1      28.233   0.163  54.691  1.00  0.00     0.201 C 
ENDBRANCH  25  26
ENDBRANCH  24  25
ENDBRANCH   1  24
TORSDOF 8
ENDMDL
MODEL 9
REMARK VINA RESULT:      -7.0      1.813      2.805
REMARK  8 active torsions:
REMARK  status: ('A' for Active; 'I' for Inactive)
REMARK    1  A    between atoms: O1_2  and  C2_3 
REMARK    2  A    between atoms: C2_3  and  C3_4 
REMARK    3  A    between atoms: C3_4  and  C4_5 
REMARK    4  A    between atoms: C9_13  and  C10_14 
REMARK    5  A    between atoms: C10_14  and  C11_15 
REMARK    6  A    between atoms: C12_16  and  C13_17 
REMARK    7  A    between atoms: C13_17  and  C14_18 
REMARK    8  A    between atoms: C16_20  and  C17_21 
ROOT
HETATM    1  C4  UNL     1      22.827   0.092  52.982  1.00  0.00    -0.035 C 
HETATM    2  C5  UNL     1      23.220  -0.792  53.852  1.00  0.00     0.141 C 
HETATM    3  O2  UNL     1      24.501  -0.563  54.031  1.00  0.00    -0.358 OA
HETATM    4  C6  UNL     1      25.285  -0.508  55.247  1.00  0.00     0.229 C 
HETATM    5  C7  UNL     1      26.603  -0.040  54.943  1.00  0.00     0.265 C 
HETATM    6  N1  UNL     1      26.689   1.332  54.517  1.00  0.00    -0.260 NA
HETATM    7  C8  UNL     1      26.760   2.107  53.615  1.00  0.00     0.354 A 
HETATM    8  N2  UNL     1      26.790   1.469  52.172  1.00  0.00    -0.000 N 
HETATM    9  C9  UNL     1      26.575   2.500  51.351  1.00  0.00     0.214 A 
HETATM   10  C18 UNL     1      26.323   1.294  52.149  1.00  0.00     0.226 A 
HETATM   11  C19 UNL     1      27.585   0.909  52.543  1.00  0.00     0.263 A 
HETATM   12  C20 UNL     1      28.194  -0.244  53.382  1.00  0.00     0.207 C 
HETATM   13  O3  UNL     1      26.948  -0.841  53.720  1.00  0.00    -0.361 OA
HETATM   14  C21 UNL     1      24.850   1.117  52.203  1.00  0.00     0.019 C 
HETATM   15  C22 UNL     1      23.555   1.060  52.164  1.00  0.00     0.007 C 
ENDROOT
BRANCH   9  16
HETATM   16  C10 UNL     1      26.419   2.990  49.972  1.00  0.00     0.072 C 
BRANCH  16  17
HETATM   17  C11 UNL     1      25.226   3.917  49.905  1.00  0.00    -0.024 C 
HETATM   18  C12 UNL     1      25.402   5.195  50.179  1.00  0.00    -0.007 C 
BRANCH  18  19
HETATM   19  C13 UNL     1      25.087   6.601  50.382  1.00  0.00    -0.008 C 
BRANCH  19  20
HETATM   20  C14 UNL     1      25.207   7.897  50.171  1.00  0.00     0.032 A 
HETATM   21  C15 UNL     1      25.967   8.208  50.077  1.00  0.00    -0.053 A 
HETATM   22  C16 UNL     1      26.477   8.404  50.017  1.00  0.00    -0.053 A 
HETATM   23  C17 UNL     1      27.188   8.659  49.935  1.00  0.00     0.085 A 
ENDBRANCH  19  20
ENDBRANCH  18  19
ENDBRANCH  16  17
ENDBRANCH   9  16
BRANCH   1  24
HETATM   24  C3  UNL     1      21.384   0.013  52.644  1.00  0.00     0.066 C 
BRANCH  24  25
HETATM   25  C2  UNL     1      20.592   1.168  53.149  1.00  0.00     0.171 C 
BRANCH  25  26
HETATM   26  O1  UNL     1      19.698   1.627  52.216  1.00  0.00    -0.396 OA
HETATM   27  C1  UNL     1      20.142   2.592  51.353  1.00  0.00     0.201 C 
ENDBRANCH  25  26
ENDBRANCH  24  25
ENDBRANCH   1  24
TORSDOF 8
ENDMDL
