MODEL 1
REMARK VINA RESULT:      -9.1      0.000      0.000
REMARK  3 active torsions:
REMARK  status: ('A' for Active; 'I' for Inactive)
REMARK    1  A    between atoms: C2_2  and  N1_3 
REMARK    2  A    between atoms: C2_2  and  C16_21 
REMARK    3  A    between atoms: N1_3  and  C3_4 
ROOT
HETATM    1  C3  UNL     1      24.103  -0.528  53.664  1.00  0.00     0.139 A 
HETATM    2  N2  UNL     1      24.011  -1.062  54.894  1.00  0.00    -0.224 NA
HETATM    3  C4  UNL     1      22.795  -1.263  55.423  1.00  0.00     0.237 A 
HETATM    4  N3  UNL     1      21.658  -0.953  54.774  1.00  0.00    -0.223 NA
HETATM    5  C5  UNL     1      21.685  -0.410  53.522  1.00  0.00     0.146 A 
HETATM    6  C6  UNL     1      22.927  -0.202  52.977  1.00  0.00     0.058 A 
HETATM    7  C7  UNL     1      22.794   0.350  51.716  1.00  0.00     0.044 A 
HETATM    8  C8  UNL     1      21.425   0.449  51.566  1.00  0.00     0.018 A 
HETATM    9  N4  UNL     1      20.748   0.006  52.622  1.00  0.00    -0.330 N 
HETATM   10  C9  UNL     1      19.383  -0.133  53.015  1.00  0.00     0.092 C 
HETATM   11  C10 UNL     1      19.064  -1.566  53.337  1.00  0.00     0.033 C 
HETATM   12  C11 UNL     1      18.410   0.341  51.958  1.00  0.00     0.075 C 
HETATM   13  C12 UNL     1      18.762   1.677  51.405  1.00  0.00     0.021 C 
HETATM   14  C13 UNL     1      17.817   2.742  51.711  1.00  0.00     0.095 C 
HETATM   15  N5  UNL     1      17.074   3.607  51.958  1.00  0.00    -0.192 NA
HETATM   16  C14 UNL     1      19.797   2.061  50.676  1.00  0.00    -0.003 C 
HETATM   17  C15 UNL     1      20.799   1.000  50.334  1.00  0.00     0.085 C 
ENDROOT
BRANCH   1  18
HETATM   18  N1  UNL     1      25.355  -0.292  53.049  1.00  0.00    -0.366 N 
HETATM   19  H5  UNL     1      25.491   0.492  52.408  1.00  0.00     0.161 HD
BRANCH  18  20
HETATM   20  C2  UNL     1      26.457  -1.185  53.345  1.00  0.00     0.108 C 
HETATM   21  C1  UNL     1      26.727  -2.174  52.225  1.00  0.00     0.037 C 
BRANCH  20  22
HETATM   22  C16 UNL     1      27.717  -0.461  53.594  1.00  0.00    -0.051 A 
HETATM   23  C17 UNL     1      28.961  -0.895  53.458  1.00  0.00     0.008 A 
HETATM   24  C18 UNL     1      29.868   0.199  53.827  1.00  0.00     0.038 A 
HETATM   25  C19 UNL     1      29.140   1.251  54.171  1.00  0.00     0.098 A 
HETATM   26  F1  UNL     1      29.560   2.483  54.583  1.00  0.00    -0.211 F 
HETATM   27  C20 UNL     1      27.690   0.967  54.067  1.00  0.00     0.106 A 
ENDBRANCH  20  22
ENDBRANCH  18  20
ENDBRANCH   1  18
TORSDOF 3
ENDMDL
MODEL 2
REMARK VINA RESULT:      -8.9      4.115      6.957
REMARK  3 active torsions:
REMARK  status: ('A' for Active; 'I' for Inactive)
REMARK    1  A    between atoms: C2_2  and  N1_3 
REMARK    2  A    between atoms: C2_2  and  C16_21 
REMARK    3  A    between atoms: N1_3  and  C3_4 
ROOT
HETATM    1  C3  UNL     1      22.053   4.177  51.985  1.00  0.00     0.139 A 
HETATM    2  N2  UNL     1      20.816   3.789  51.630  1.00  0.00    -0.224 NA
HETATM    3  C4  UNL     1      20.471   2.502  51.787  1.00  0.00     0.237 A 
HETATM    4  N3  UNL     1      21.312   1.579  52.287  1.00  0.00    -0.223 NA
HETATM    5  C5  UNL     1      22.581   1.910  52.665  1.00  0.00     0.146 A 
HETATM    6  C6  UNL     1      22.938   3.225  52.506  1.00  0.00     0.058 A 
HETATM    7  C7  UNL     1      24.242   3.407  52.930  1.00  0.00     0.044 A 
HETATM    8  C8  UNL     1      24.612   2.140  53.335  1.00  0.00     0.018 A 
HETATM    9  N4  UNL     1      23.646   1.238  53.188  1.00  0.00    -0.330 N 
HETATM   10  C9  UNL     1      23.462  -0.158  53.426  1.00  0.00     0.092 C 
HETATM   11  C10 UNL     1      22.307  -0.392  54.358  1.00  0.00     0.033 C 
HETATM   12  C11 UNL     1      24.687  -0.825  54.015  1.00  0.00     0.075 C 
HETATM   13  C12 UNL     1      25.939  -0.481  53.288  1.00  0.00     0.021 C 
HETATM   14  C13 UNL     1      26.572  -1.588  52.586  1.00  0.00     0.095 C 
HETATM   15  N5  UNL     1      27.084  -2.464  52.010  1.00  0.00    -0.192 NA
HETATM   16  C14 UNL     1      26.579   0.673  53.174  1.00  0.00    -0.003 C 
HETATM   17  C15 UNL     1      25.965   1.845  53.880  1.00  0.00     0.085 C 
ENDROOT
BRANCH   1  18
HETATM   18  N1  UNL     1      22.478   5.519  51.846  1.00  0.00    -0.366 N 
HETATM   19  H5  UNL     1      22.686   6.096  52.663  1.00  0.00     0.161 HD
BRANCH  18  20
HETATM   20  C2  UNL     1      22.618   6.073  50.514  1.00  0.00     0.108 C 
HETATM   21  C1  UNL     1      22.074   7.486  50.407  1.00  0.00     0.037 C 
BRANCH  20  22
HETATM   22  C16 UNL     1      24.022   6.116  50.067  1.00  0.00    -0.051 A 
HETATM   23  C17 UNL     1      24.895   7.105  50.179  1.00  0.00     0.008 A 
HETATM   24  C18 UNL     1      26.163   6.664  49.581  1.00  0.00     0.038 A 
HETATM   25  C19 UNL     1      26.008   5.427  49.133  1.00  0.00     0.098 A 
HETATM   26  F1  UNL     1      26.918   4.625  48.507  1.00  0.00    -0.211 F 
HETATM   27  C20 UNL     1      24.637   4.925  49.382  1.00  0.00     0.106 A 
ENDBRANCH  20  22
ENDBRANCH  18  20
ENDBRANCH   1  18
TORSDOF 3
ENDMDL
MODEL 3
REMARK VINA RESULT:      -8.8      3.447      8.253
REMARK  3 active torsions:
REMARK  status: ('A' for Active; 'I' for Inactive)
REMARK    1  A    between atoms: C2_2  and  N1_3 
REMARK    2  A    between atoms: C2_2  and  C16_21 
REMARK    3  A    between atoms: N1_3  and  C3_4 
ROOT
HETATM    1  C3  UNL     1      21.225   2.273  52.558  1.00  0.00     0.139 A 
HETATM    2  N2  UNL     1      21.005   3.555  52.220  1.00  0.00    -0.224 NA
HETATM    3  C4  UNL     1      22.051   4.322  51.878  1.00  0.00     0.237 A 
HETATM    4  N3  UNL     1      23.316   3.864  51.859  1.00  0.00    -0.223 NA
HETATM    5  C5  UNL     1      23.603   2.572  52.191  1.00  0.00     0.146 A 
HETATM    6  C6  UNL     1      22.536   1.783  52.542  1.00  0.00     0.058 A 
HETATM    7  C7  UNL     1      22.982   0.510  52.851  1.00  0.00     0.044 A 
HETATM    8  C8  UNL     1      24.346   0.608  52.662  1.00  0.00     0.018 A 
HETATM    9  N4  UNL     1      24.737   1.818  52.272  1.00  0.00    -0.330 N 
HETATM   10  C9  UNL     1      25.961   2.473  51.941  1.00  0.00     0.092 C 
HETATM   11  C10 UNL     1      25.910   3.023  50.544  1.00  0.00     0.033 C 
HETATM   12  C11 UNL     1      27.167   1.565  52.047  1.00  0.00     0.075 C 
HETATM   13  C12 UNL     1      27.202   0.796  53.321  1.00  0.00     0.021 C 
HETATM   14  C13 UNL     1      28.293   1.140  54.221  1.00  0.00     0.095 C 
HETATM   15  N5  UNL     1      29.157   1.412  54.958  1.00  0.00    -0.192 NA
HETATM   16  C14 UNL     1      26.402  -0.155  53.774  1.00  0.00    -0.003 C 
HETATM   17  C15 UNL     1      25.262  -0.544  52.881  1.00  0.00     0.085 C 
ENDROOT
BRANCH   1  18
HETATM   18  N1  UNL     1      20.165   1.412  52.927  1.00  0.00    -0.366 N 
HETATM   19  H5  UNL     1      20.062   1.081  53.889  1.00  0.00     0.161 HD
BRANCH  18  20
HETATM   20  C2  UNL     1      19.214   1.000  51.915  1.00  0.00     0.108 C 
HETATM   21  C1  UNL     1      19.882   0.608  50.609  1.00  0.00     0.037 C 
BRANCH  20  22
HETATM   22  C16 UNL     1      18.396  -0.148  52.343  1.00  0.00    -0.051 A 
HETATM   23  C17 UNL     1      17.175  -0.483  51.956  1.00  0.00     0.008 A 
HETATM   24  C18 UNL     1      16.791  -1.710  52.669  1.00  0.00     0.038 A 
HETATM   25  C19 UNL     1      17.793  -2.067  53.458  1.00  0.00     0.098 A 
HETATM   26  F1  UNL     1      17.877  -3.139  54.299  1.00  0.00    -0.211 F 
HETATM   27  C20 UNL     1      18.933  -1.127  53.352  1.00  0.00     0.106 A 
ENDBRANCH  20  22
ENDBRANCH  18  20
ENDBRANCH   1  18
TORSDOF 3
ENDMDL
MODEL 4
REMARK VINA RESULT:      -8.8      5.264      6.818
REMARK  3 active torsions:
REMARK  status: ('A' for Active; 'I' for Inactive)
REMARK    1  A    between atoms: C2_2  and  N1_3 
REMARK    2  A    between atoms: C2_2  and  C16_21 
REMARK    3  A    between atoms: N1_3  and  C3_4 
ROOT
HETATM    1  C3  UNL     1      24.687   2.199  51.637  1.00  0.00     0.139 A 
HETATM    2  N2  UNL     1      23.473   2.448  52.158  1.00  0.00    -0.224 NA
HETATM    3  C4  UNL     1      22.843   3.582  51.816  1.00  0.00     0.237 A 
HETATM    4  N3  UNL     1      23.375   4.484  50.971  1.00  0.00    -0.223 NA
HETATM    5  C5  UNL     1      24.603   4.287  50.409  1.00  0.00     0.146 A 
HETATM    6  C6  UNL     1      25.251   3.129  50.756  1.00  0.00     0.058 A 
HETATM    7  C7  UNL     1      26.474   3.071  50.113  1.00  0.00     0.044 A 
HETATM    8  C8  UNL     1      26.496   4.244  49.386  1.00  0.00     0.018 A 
HETATM    9  N4  UNL     1      25.399   4.981  49.546  1.00  0.00    -0.330 N 
HETATM   10  C9  UNL     1      24.888   6.226  49.069  1.00  0.00     0.092 C 
HETATM   11  C10 UNL     1      23.570   6.030  48.375  1.00  0.00     0.033 C 
HETATM   12  C11 UNL     1      25.828   6.925  48.111  1.00  0.00     0.075 C 
HETATM   13  C12 UNL     1      27.228   6.982  48.611  1.00  0.00     0.021 C 
HETATM   14  C13 UNL     1      27.721   8.316  48.920  1.00  0.00     0.095 C 
HETATM   15  N5  UNL     1      28.126   9.379  49.182  1.00  0.00    -0.192 NA
HETATM   16  C14 UNL     1      28.106   6.015  48.823  1.00  0.00    -0.003 C 
HETATM   17  C15 UNL     1      27.645   4.621  48.519  1.00  0.00     0.085 C 
ENDROOT
BRANCH   1  18
HETATM   18  N1  UNL     1      25.403   1.021  51.957  1.00  0.00    -0.366 N 
HETATM   19  H5  UNL     1      25.647   0.338  51.236  1.00  0.00     0.161 HD
BRANCH  18  20
HETATM   20  C2  UNL     1      25.792   0.792  53.333  1.00  0.00     0.108 C 
HETATM   21  C1  UNL     1      25.179  -0.470  53.914  1.00  0.00     0.037 C 
BRANCH  20  22
HETATM   22  C16 UNL     1      27.253   0.675  53.494  1.00  0.00    -0.051 A 
HETATM   23  C17 UNL     1      28.144   1.637  53.676  1.00  0.00     0.008 A 
HETATM   24  C18 UNL     1      29.471   1.014  53.780  1.00  0.00     0.038 A 
HETATM   25  C19 UNL     1      29.331  -0.297  53.658  1.00  0.00     0.098 A 
HETATM   26  F1  UNL     1      30.292  -1.266  53.692  1.00  0.00    -0.211 F 
HETATM   27  C20 UNL     1      27.913  -0.677  53.462  1.00  0.00     0.106 A 
ENDBRANCH  20  22
ENDBRANCH  18  20
ENDBRANCH   1  18
TORSDOF 3
ENDMDL
MODEL 5
REMARK VINA RESULT:      -8.6      6.224      8.356
REMARK  3 active torsions:
REMARK  status: ('A' for Active; 'I' for Inactive)
REMARK    1  A    between atoms: C2_2  and  N1_3 
REMARK    2  A    between atoms: C2_2  and  C16_21 
REMARK    3  A    between atoms: N1_3  and  C3_4 
ROOT
HETATM    1  C3  UNL     1      24.647   3.754  50.624  1.00  0.00     0.139 A 
HETATM    2  N2  UNL     1      23.519   4.402  50.960  1.00  0.00    -0.224 NA
HETATM    3  C4  UNL     1      23.365   5.677  50.572  1.00  0.00     0.237 A 
HETATM    4  N3  UNL     1      24.294   6.338  49.859  1.00  0.00    -0.223 NA
HETATM    5  C5  UNL     1      25.460   5.734  49.487  1.00  0.00     0.146 A 
HETATM    6  C6  UNL     1      25.622   4.431  49.881  1.00  0.00     0.058 A 
HETATM    7  C7  UNL     1      26.843   3.958  49.434  1.00  0.00     0.044 A 
HETATM    8  C8  UNL     1      27.369   5.048  48.770  1.00  0.00     0.018 A 
HETATM    9  N4  UNL     1      26.570   6.110  48.788  1.00  0.00    -0.330 N 
HETATM   10  C9  UNL     1      26.585   7.449  48.291  1.00  0.00     0.092 C 
HETATM   11  C10 UNL     1      25.406   7.698  47.393  1.00  0.00     0.033 C 
HETATM   12  C11 UNL     1      27.845   7.781  47.521  1.00  0.00     0.075 C 
HETATM   13  C12 UNL     1      29.085   7.372  48.234  1.00  0.00     0.021 C 
HETATM   14  C13 UNL     1      29.937   8.467  48.672  1.00  0.00     0.095 C 
HETATM   15  N5  UNL     1      30.625   9.336  49.038  1.00  0.00    -0.192 NA
HETATM   16  C14 UNL     1      29.545   6.169  48.538  1.00  0.00    -0.003 C 
HETATM   17  C15 UNL     1      28.701   5.006  48.108  1.00  0.00     0.085 C 
ENDROOT
BRANCH   1  18
HETATM   18  N1  UNL     1      24.869   2.408  51.000  1.00  0.00    -0.366 N 
HETATM   19  H5  UNL     1      24.931   1.666  50.300  1.00  0.00     0.161 HD
BRANCH  18  20
HETATM   20  C2  UNL     1      25.012   2.091  52.407  1.00  0.00     0.108 C 
HETATM   21  C1  UNL     1      23.801   1.369  52.970  1.00  0.00     0.037 C 
BRANCH  20  22
HETATM   22  C16 UNL     1      26.185   1.240  52.676  1.00  0.00    -0.051 A 
HETATM   23  C17 UNL     1      26.385  -0.024  52.336  1.00  0.00     0.008 A 
HETATM   24  C18 UNL     1      27.709  -0.425  52.832  1.00  0.00     0.038 A 
HETATM   25  C19 UNL     1      28.257   0.610  53.450  1.00  0.00     0.098 A 
HETATM   26  F1  UNL     1      29.475   0.692  54.061  1.00  0.00    -0.211 F 
HETATM   27  C20 UNL     1      27.365   1.792  53.430  1.00  0.00     0.106 A 
ENDBRANCH  20  22
ENDBRANCH  18  20
ENDBRANCH   1  18
TORSDOF 3
ENDMDL
MODEL 6
REMARK VINA RESULT:      -8.4      5.665      7.298
REMARK  3 active torsions:
REMARK  status: ('A' for Active; 'I' for Inactive)
REMARK    1  A    between atoms: C2_2  and  N1_3 
REMARK    2  A    between atoms: C2_2  and  C16_21 
REMARK    3  A    between atoms: N1_3  and  C3_4 
ROOT
HETATM    1  C3  UNL     1      24.591   2.898  52.223  1.00  0.00     0.139 A 
HETATM    2  N2  UNL     1      23.354   3.148  52.683  1.00  0.00    -0.224 NA
HETATM    3  C4  UNL     1      22.630   4.115  52.101  1.00  0.00     0.237 A 
HETATM    4  N3  UNL     1      23.089   4.849  51.071  1.00  0.00    -0.223 NA
HETATM    5  C5  UNL     1      24.337   4.642  50.559  1.00  0.00     0.146 A 
HETATM    6  C6  UNL     1      25.081   3.654  51.152  1.00  0.00     0.058 A 
HETATM    7  C7  UNL     1      26.313   3.563  50.529  1.00  0.00     0.044 A 
HETATM    8  C8  UNL     1      26.239   4.542  49.558  1.00  0.00     0.018 A 
HETATM    9  N4  UNL     1      25.080   5.194  49.556  1.00  0.00    -0.330 N 
HETATM   10  C9  UNL     1      24.466   6.250  48.817  1.00  0.00     0.092 C 
HETATM   11  C10 UNL     1      23.180   5.786  48.194  1.00  0.00     0.033 C 
HETATM   12  C11 UNL     1      25.352   6.798  47.719  1.00  0.00     0.075 C 
HETATM   13  C12 UNL     1      26.735   7.090  48.184  1.00  0.00     0.021 C 
HETATM   14  C13 UNL     1      27.104   8.499  48.182  1.00  0.00     0.095 C 
HETATM   15  N5  UNL     1      27.409   9.625  48.196  1.00  0.00    -0.192 NA
HETATM   16  C14 UNL     1      27.693   6.278  48.600  1.00  0.00    -0.003 C 
HETATM   17  C15 UNL     1      27.362   4.816  48.620  1.00  0.00     0.085 C 
ENDROOT
BRANCH   1  18
HETATM   18  N1  UNL     1      25.405   1.891  52.793  1.00  0.00    -0.366 N 
HETATM   19  H5  UNL     1      26.167   2.125  53.433  1.00  0.00     0.161 HD
BRANCH  18  20
HETATM   20  C2  UNL     1      25.141   0.506  52.457  1.00  0.00     0.108 C 
HETATM   21  C1  UNL     1      26.410  -0.293  52.224  1.00  0.00     0.037 C 
BRANCH  20  22
HETATM   22  C16 UNL     1      24.378  -0.193  53.508  1.00  0.00    -0.051 A 
HETATM   23  C17 UNL     1      24.828  -0.760  54.617  1.00  0.00     0.008 A 
HETATM   24  C18 UNL     1      23.679  -1.324  55.338  1.00  0.00     0.038 A 
HETATM   25  C19 UNL     1      22.581  -1.076  54.639  1.00  0.00     0.098 A 
HETATM   26  F1  UNL     1      21.291  -1.414  54.927  1.00  0.00    -0.211 F 
HETATM   27  C20 UNL     1      22.884  -0.331  53.396  1.00  0.00     0.106 A 
ENDBRANCH  20  22
ENDBRANCH  18  20
ENDBRANCH   1  18
TORSDOF 3
ENDMDL
MODEL 7
REMARK VINA RESULT:      -8.1      2.852      3.608
REMARK  3 active torsions:
REMARK  status: ('A' for Active; 'I' for Inactive)
REMARK    1  A    between atoms: C2_2  and  N1_3 
REMARK    2  A    between atoms: C2_2  and  C16_21 
REMARK    3  A    between atoms: N1_3  and  C3_4 
ROOT
HETATM    1  C3  UNL     1      22.463   0.359  52.552  1.00  0.00     0.139 A 
HETATM    2  N2  UNL     1      22.899  -0.078  53.746  1.00  0.00    -0.224 NA
HETATM    3  C4  UNL     1      22.021  -0.643  54.588  1.00  0.00     0.237 A 
HETATM    4  N3  UNL     1      20.718  -0.793  54.289  1.00  0.00    -0.223 NA
HETATM    5  C5  UNL     1      20.215  -0.370  53.093  1.00  0.00     0.146 A 
HETATM    6  C6  UNL     1      21.109   0.209  52.229  1.00  0.00     0.058 A 
HETATM    7  C7  UNL     1      20.457   0.583  51.067  1.00  0.00     0.044 A 
HETATM    8  C8  UNL     1      19.155   0.194  51.308  1.00  0.00     0.018 A 
HETATM    9  N4  UNL     1      18.987  -0.372  52.499  1.00  0.00    -0.330 N 
HETATM   10  C9  UNL     1      17.917  -0.941  53.255  1.00  0.00     0.092 C 
HETATM   11  C10 UNL     1      18.220  -2.367  53.619  1.00  0.00     0.033 C 
HETATM   12  C11 UNL     1      16.593  -0.912  52.521  1.00  0.00     0.075 C 
HETATM   13  C12 UNL     1      16.291   0.417  51.925  1.00  0.00     0.021 C 
HETATM   14  C13 UNL     1      15.153   1.113  52.507  1.00  0.00     0.095 C 
HETATM   15  N5  UNL     1      14.249   1.687  52.971  1.00  0.00    -0.192 NA
HETATM   16  C14 UNL     1      16.889   1.076  50.945  1.00  0.00    -0.003 C 
HETATM   17  C15 UNL     1      18.068   0.400  50.312  1.00  0.00     0.085 C 
ENDROOT
BRANCH   1  18
HETATM   18  N1  UNL     1      23.338   0.963  51.619  1.00  0.00    -0.366 N 
HETATM   19  H5  UNL     1      23.135   0.950  50.617  1.00  0.00     0.161 HD
BRANCH  18  20
HETATM   20  C2  UNL     1      24.540   1.610  52.106  1.00  0.00     0.108 C 
HETATM   21  C1  UNL     1      25.703   0.646  52.260  1.00  0.00     0.037 C 
BRANCH  20  22
HETATM   22  C16 UNL     1      24.994   2.695  51.218  1.00  0.00    -0.051 A 
HETATM   23  C17 UNL     1      24.392   3.842  50.940  1.00  0.00     0.008 A 
HETATM   24  C18 UNL     1      25.244   4.588  50.002  1.00  0.00     0.038 A 
HETATM   25  C19 UNL     1      26.324   3.865  49.751  1.00  0.00     0.098 A 
HETATM   26  F1  UNL     1      27.381   4.162  48.940  1.00  0.00    -0.211 F 
HETATM   27  C20 UNL     1      26.304   2.579  50.486  1.00  0.00     0.106 A 
ENDBRANCH  20  22
ENDBRANCH  18  20
ENDBRANCH   1  18
TORSDOF 3
ENDMDL
MODEL 8
REMARK VINA RESULT:      -8.1      3.305      4.661
REMARK  3 active torsions:
REMARK  status: ('A' for Active; 'I' for Inactive)
REMARK    1  A    between atoms: C2_2  and  N1_3 
REMARK    2  A    between atoms: C2_2  and  C16_21 
REMARK    3  A    between atoms: N1_3  and  C3_4 
ROOT
HETATM    1  C3  UNL     1      25.927   2.735  52.065  1.00  0.00     0.139 A 
HETATM    2  N2  UNL     1      26.863   2.587  51.112  1.00  0.00    -0.224 NA
HETATM    3  C4  UNL     1      26.557   2.915  49.848  1.00  0.00     0.237 A 
HETATM    4  N3  UNL     1      25.349   3.388  49.490  1.00  0.00    -0.223 NA
HETATM    5  C5  UNL     1      24.357   3.560  50.412  1.00  0.00     0.146 A 
HETATM    6  C6  UNL     1      24.665   3.225  51.706  1.00  0.00     0.058 A 
HETATM    7  C7  UNL     1      23.569   3.453  52.518  1.00  0.00     0.044 A 
HETATM    8  C8  UNL     1      22.623   3.929  51.632  1.00  0.00     0.018 A 
HETATM    9  N4  UNL     1      23.067   4.001  50.380  1.00  0.00    -0.330 N 
HETATM   10  C9  UNL     1      22.562   4.399  49.105  1.00  0.00     0.092 C 
HETATM   11  C10 UNL     1      23.405   5.494  48.516  1.00  0.00     0.033 C 
HETATM   12  C11 UNL     1      21.129   4.883  49.159  1.00  0.00     0.075 C 
HETATM   13  C12 UNL     1      20.237   3.966  49.919  1.00  0.00     0.021 C 
HETATM   14  C13 UNL     1      19.214   3.299  49.127  1.00  0.00     0.095 C 
HETATM   15  N5  UNL     1      18.395   2.750  48.502  1.00  0.00    -0.192 NA
HETATM   16  C14 UNL     1      20.218   3.654  51.205  1.00  0.00    -0.003 C 
HETATM   17  C15 UNL     1      21.253   4.316  52.064  1.00  0.00     0.085 C 
ENDROOT
BRANCH   1  18
HETATM   18  N1  UNL     1      26.186   2.408  53.417  1.00  0.00    -0.366 N 
HETATM   19  H5  UNL     1      26.405   3.133  54.104  1.00  0.00     0.161 HD
BRANCH  18  20
HETATM   20  C2  UNL     1      26.136   1.018  53.822  1.00  0.00     0.108 C 
HETATM   21  C1  UNL     1      25.158   0.202  52.995  1.00  0.00     0.037 C 
BRANCH  20  22
HETATM   22  C16 UNL     1      27.447   0.353  53.719  1.00  0.00    -0.051 A 
HETATM   23  C17 UNL     1      28.645   0.839  54.007  1.00  0.00     0.008 A 
HETATM   24  C18 UNL     1      29.639  -0.210  53.739  1.00  0.00     0.038 A 
HETATM   25  C19 UNL     1      29.005  -1.287  53.302  1.00  0.00     0.098 A 
HETATM   26  F1  UNL     1      29.525  -2.494  52.933  1.00  0.00    -0.211 F 
HETATM   27  C20 UNL     1      27.541  -1.068  53.234  1.00  0.00     0.106 A 
ENDBRANCH  20  22
ENDBRANCH  18  20
ENDBRANCH   1  18
TORSDOF 3
ENDMDL
MODEL 9
REMARK VINA RESULT:      -8.1      1.841      2.294
REMARK  3 active torsions:
REMARK  status: ('A' for Active; 'I' for Inactive)
REMARK    1  A    between atoms: C2_2  and  N1_3 
REMARK    2  A    between atoms: C2_2  and  C16_21 
REMARK    3  A    between atoms: N1_3  and  C3_4 
ROOT
HETATM    1  C3  UNL     1      23.731   1.124  53.063  1.00  0.00     0.139 A 
HETATM    2  N2  UNL     1      23.668   0.031  53.842  1.00  0.00    -0.224 NA
HETATM    3  C4  UNL     1      22.487  -0.586  53.995  1.00  0.00     0.237 A 
HETATM    4  N3  UNL     1      21.358  -0.158  53.401  1.00  0.00    -0.223 NA
HETATM    5  C5  UNL     1      21.359   0.945  52.598  1.00  0.00     0.146 A 
HETATM    6  C6  UNL     1      22.564   1.580  52.439  1.00  0.00     0.058 A 
HETATM    7  C7  UNL     1      22.407   2.673  51.605  1.00  0.00     0.044 A 
HETATM    8  C8  UNL     1      21.061   2.633  51.297  1.00  0.00     0.018 A 
HETATM    9  N4  UNL     1      20.420   1.620  51.873  1.00  0.00    -0.330 N 
HETATM   10  C9  UNL     1      19.090   1.103  51.916  1.00  0.00     0.092 C 
HETATM   11  C10 UNL     1      19.057  -0.322  51.441  1.00  0.00     0.033 C 
HETATM   12  C11 UNL     1      18.116   1.903  51.080  1.00  0.00     0.075 C 
HETATM   13  C12 UNL     1      18.217   3.369  51.316  1.00  0.00     0.021 C 
HETATM   14  C13 UNL     1      17.052   3.977  51.941  1.00  0.00     0.095 C 
HETATM   15  N5  UNL     1      16.128   4.476  52.451  1.00  0.00    -0.192 NA
HETATM   16  C14 UNL     1      19.197   4.217  51.051  1.00  0.00    -0.003 C 
HETATM   17  C15 UNL     1      20.421   3.638  50.406  1.00  0.00     0.085 C 
ENDROOT
BRANCH   1  18
HETATM   18  N1  UNL     1      24.946   1.820  52.860  1.00  0.00    -0.366 N 
HETATM   19  H5  UNL     1      25.152   2.685  53.365  1.00  0.00     0.161 HD
BRANCH  18  20
HETATM   20  C2  UNL     1      25.908   1.286  51.917  1.00  0.00     0.108 C 
HETATM   21  C1  UNL     1      26.356   2.313  50.892  1.00  0.00     0.037 C 
BRANCH  20  22
HETATM   22  C16 UNL     1      27.123   0.778  52.579  1.00  0.00    -0.051 A 
HETATM   23  C17 UNL     1      28.099   1.463  53.155  1.00  0.00     0.008 A 
HETATM   24  C18 UNL     1      29.085   0.505  53.671  1.00  0.00     0.038 A 
HETATM   25  C19 UNL     1      28.669  -0.720  53.388  1.00  0.00     0.098 A 
HETATM   26  F1  UNL     1      29.266  -1.913  53.677  1.00  0.00    -0.211 F 
HETATM   27  C20 UNL     1      27.377  -0.703  52.663  1.00  0.00     0.106 A 
ENDBRANCH  20  22
ENDBRANCH  18  20
ENDBRANCH   1  18
TORSDOF 3
ENDMDL
