MODEL 1
REMARK VINA RESULT:      -7.8      0.000      0.000
REMARK  3 active torsions:
REMARK  status: ('A' for Active; 'I' for Inactive)
REMARK    1  A    between atoms: C3_3  and  C4_4 
REMARK    2  A    between atoms: C11_12  and  O1_13 
REMARK    3  A    between atoms: O1_13  and  C12_14 
ROOT
HETATM    1  C4  UNL     1      27.829  -0.149  54.785  1.00  0.00     0.026 C 
HETATM    2  C5  UNL     1      26.598   0.299  54.485  1.00  0.00     0.028 C 
HETATM    3  C6  UNL     1      26.686   1.608  53.807  1.00  0.00     0.178 C 
HETATM    4  N1  UNL     1      25.410   2.167  53.432  1.00  0.00    -0.369 N 
HETATM    5  C7  UNL     1      24.249   1.489  53.004  1.00  0.00     0.129 C 
HETATM    6  C8  UNL     1      23.498   2.063  52.090  1.00  0.00    -0.007 C 
HETATM    7  C9  UNL     1      23.614   3.343  51.366  1.00  0.00     0.070 C 
HETATM    8  C10 UNL     1      22.431   4.179  51.271  1.00  0.00     0.012 C 
HETATM    9  C11 UNL     1      21.858   4.338  50.069  1.00  0.00     0.066 C 
HETATM   10  C14 UNL     1      21.572   4.217  48.634  1.00  0.00     0.231 C 
HETATM   11  O2  UNL     1      22.360   3.384  47.889  1.00  0.00    -0.383 OA
HETATM   12  C15 UNL     1      21.931   2.049  47.817  1.00  0.00     0.194 C 
HETATM   13  C16 UNL     1      21.554   1.595  49.193  1.00  0.00     0.194 C 
HETATM   14  O3  UNL     1      22.652   1.724  49.990  1.00  0.00    -0.385 OA
HETATM   15  C17 UNL     1      22.297   1.651  51.347  1.00  0.00     0.206 C 
HETATM   16  N2  UNL     1      23.737   0.219  53.429  1.00  0.00    -0.226 NA
HETATM   17  C18 UNL     1      24.278  -0.657  54.224  1.00  0.00     0.209 C 
HETATM   18  N3  UNL     1      25.536  -0.562  54.877  1.00  0.00    -0.353 N 
HETATM   19  H9  UNL     1      25.318   3.186  53.475  1.00  0.00     0.161 HD
HETATM   20  H27 UNL     1      25.709  -1.166  55.710  1.00  0.00     0.166 HD
ENDROOT
BRANCH   1  21
HETATM   21  C3  UNL     1      29.020   0.591  54.461  1.00  0.00    -0.002 C 
HETATM   22  C2  UNL     1      30.005   0.045  53.748  1.00  0.00    -0.031 C 
HETATM   23  C1  UNL     1      29.810  -1.354  53.308  1.00  0.00     0.036 C 
ENDBRANCH   1  21
BRANCH   9  24
HETATM   24  O1  UNL     1      20.805   5.208  50.477  1.00  0.00    -0.354 OA
BRANCH  24  25
HETATM   25  C12 UNL     1      20.583   6.399  49.765  1.00  0.00     0.171 C 
HETATM   26  C13 UNL     1      21.224   7.583  50.451  1.00  0.00     0.034 C 
ENDBRANCH  24  25
ENDBRANCH   9  24
TORSDOF 3
ENDMDL
MODEL 2
REMARK VINA RESULT:      -7.1      1.389      1.631
REMARK  3 active torsions:
REMARK  status: ('A' for Active; 'I' for Inactive)
REMARK    1  A    between atoms: C3_3  and  C4_4 
REMARK    2  A    between atoms: C11_12  and  O1_13 
REMARK    3  A    between atoms: O1_13  and  C12_14 
ROOT
HETATM    1  C4  UNL     1      27.252  -0.180  53.876  1.00  0.00     0.026 C 
HETATM    2  C5  UNL     1      26.168   0.581  53.654  1.00  0.00     0.028 C 
HETATM    3  C6  UNL     1      26.577   1.930  53.213  1.00  0.00     0.178 C 
HETATM    4  N1  UNL     1      25.477   2.821  52.936  1.00  0.00    -0.369 N 
HETATM    5  C7  UNL     1      24.211   2.509  52.395  1.00  0.00     0.129 C 
HETATM    6  C8  UNL     1      23.648   3.384  51.591  1.00  0.00    -0.007 C 
HETATM    7  C9  UNL     1      24.080   4.705  51.099  1.00  0.00     0.070 C 
HETATM    8  C10 UNL     1      23.121   5.794  51.147  1.00  0.00     0.012 C 
HETATM    9  C11 UNL     1      22.649   6.278  49.988  1.00  0.00     0.066 C 
HETATM   10  C14 UNL     1      22.404   6.468  48.554  1.00  0.00     0.231 C 
HETATM   11  O2  UNL     1      23.014   5.613  47.678  1.00  0.00    -0.383 OA
HETATM   12  C15 UNL     1      22.298   4.442  47.377  1.00  0.00     0.194 C 
HETATM   13  C16 UNL     1      21.771   3.864  48.652  1.00  0.00     0.194 C 
HETATM   14  O3  UNL     1      22.836   3.603  49.463  1.00  0.00    -0.385 OA
HETATM   15  C17 UNL     1      22.417   3.388  50.786  1.00  0.00     0.206 C 
HETATM   16  N2  UNL     1      23.409   1.337  52.594  1.00  0.00    -0.226 NA
HETATM   17  C18 UNL     1      23.705   0.240  53.227  1.00  0.00     0.209 C 
HETATM   18  N3  UNL     1      24.925  -0.067  53.890  1.00  0.00    -0.353 N 
HETATM   19  H9  UNL     1      25.615   3.812  53.154  1.00  0.00     0.161 HD
HETATM   20  H27 UNL     1      24.921  -0.825  54.607  1.00  0.00     0.166 HD
ENDROOT
BRANCH   1  21
HETATM   21  C3  UNL     1      28.593   0.310  53.687  1.00  0.00    -0.002 C 
HETATM   22  C2  UNL     1      29.594  -0.509  53.367  1.00  0.00    -0.031 C 
HETATM   23  C1  UNL     1      29.257  -1.942  53.216  1.00  0.00     0.036 C 
ENDBRANCH   1  21
BRANCH   9  24
HETATM   24  O1  UNL     1      21.803   7.286  50.538  1.00  0.00    -0.354 OA
BRANCH  24  25
HETATM   25  C12 UNL     1      20.495   7.427  50.047  1.00  0.00     0.171 C 
HETATM   26  C13 UNL     1      20.089   8.880  49.960  1.00  0.00     0.034 C 
ENDBRANCH  24  25
ENDBRANCH   9  24
TORSDOF 3
ENDMDL
MODEL 3
REMARK VINA RESULT:      -6.8      3.118      5.021
REMARK  3 active torsions:
REMARK  status: ('A' for Active; 'I' for Inactive)
REMARK    1  A    between atoms: C3_3  and  C4_4 
REMARK    2  A    between atoms: C11_12  and  O1_13 
REMARK    3  A    between atoms: O1_13  and  C12_14 
ROOT
HETATM    1  C4  UNL     1      23.981  -0.181  53.432  1.00  0.00     0.026 C 
HETATM    2  C5  UNL     1      24.386   0.598  52.415  1.00  0.00     0.028 C 
HETATM    3  C6  UNL     1      23.239   1.346  51.862  1.00  0.00     0.178 C 
HETATM    4  N1  UNL     1      23.577   2.224  50.769  1.00  0.00    -0.369 N 
HETATM    5  C7  UNL     1      24.764   2.963  50.573  1.00  0.00     0.129 C 
HETATM    6  C8  UNL     1      24.670   4.149  50.013  1.00  0.00    -0.007 C 
HETATM    7  C9  UNL     1      23.520   4.926  49.515  1.00  0.00     0.070 C 
HETATM    8  C10 UNL     1      23.634   5.544  48.206  1.00  0.00     0.012 C 
HETATM    9  C11 UNL     1      23.693   6.882  48.136  1.00  0.00     0.066 C 
HETATM   10  C14 UNL     1      23.742   8.297  48.523  1.00  0.00     0.231 C 
HETATM   11  O2  UNL     1      23.747   8.600  49.856  1.00  0.00    -0.383 OA
HETATM   12  C15 UNL     1      25.014   8.665  50.458  1.00  0.00     0.194 C 
HETATM   13  C16 UNL     1      25.813   7.478  50.016  1.00  0.00     0.194 C 
HETATM   14  O3  UNL     1      25.137   6.357  50.396  1.00  0.00    -0.385 OA
HETATM   15  C17 UNL     1      25.632   5.225  49.729  1.00  0.00     0.206 C 
HETATM   16  N2  UNL     1      26.113   2.607  50.902  1.00  0.00    -0.226 NA
HETATM   17  C18 UNL     1      26.550   1.572  51.559  1.00  0.00     0.209 C 
HETATM   18  N3  UNL     1      25.774   0.521  52.119  1.00  0.00    -0.353 N 
HETATM   19  H9  UNL     1      22.877   2.338  50.030  1.00  0.00     0.161 HD
HETATM   20  H27 UNL     1      26.249  -0.382  52.336  1.00  0.00     0.166 HD
ENDROOT
BRANCH   1  21
HETATM   21  C3  UNL     1      22.611  -0.229  53.871  1.00  0.00    -0.002 C 
HETATM   22  C2  UNL     1      22.253  -0.914  54.957  1.00  0.00    -0.031 C 
HETATM   23  C1  UNL     1      23.331  -1.617  55.684  1.00  0.00     0.036 C 
ENDBRANCH   1  21
BRANCH   9  24
HETATM   24  O1  UNL     1      23.777   6.992  46.716  1.00  0.00    -0.354 OA
BRANCH  24  25
HETATM   25  C12 UNL     1      22.671   6.622  45.933  1.00  0.00     0.171 C 
HETATM   26  C13 UNL     1      22.878   6.980  44.479  1.00  0.00     0.034 C 
ENDBRANCH  24  25
ENDBRANCH   9  24
TORSDOF 3
ENDMDL
MODEL 4
REMARK VINA RESULT:      -6.8      3.231      7.936
REMARK  3 active torsions:
REMARK  status: ('A' for Active; 'I' for Inactive)
REMARK    1  A    between atoms: C3_3  and  C4_4 
REMARK    2  A    between atoms: C11_12  and  O1_13 
REMARK    3  A    between atoms: O1_13  and  C12_14 
ROOT
HETATM    1  C4  UNL     1      22.322   6.642  47.489  1.00  0.00     0.026 C 
HETATM    2  C5  UNL     1      22.368   6.012  48.674  1.00  0.00     0.028 C 
HETATM    3  C6  UNL     1      22.360   4.549  48.472  1.00  0.00     0.178 C 
HETATM    4  N1  UNL     1      22.421   3.783  49.692  1.00  0.00    -0.369 N 
HETATM    5  C7  UNL     1      23.103   4.093  50.889  1.00  0.00     0.129 C 
HETATM    6  C8  UNL     1      23.639   3.104  51.570  1.00  0.00    -0.007 C 
HETATM    7  C9  UNL     1      23.688   1.648  51.340  1.00  0.00     0.070 C 
HETATM    8  C10 UNL     1      23.372   0.775  52.455  1.00  0.00     0.012 C 
HETATM    9  C11 UNL     1      24.357   0.032  52.982  1.00  0.00     0.066 C 
HETATM   10  C14 UNL     1      25.681  -0.548  53.237  1.00  0.00     0.231 C 
HETATM   11  O2  UNL     1      26.735  -0.098  52.492  1.00  0.00    -0.383 OA
HETATM   12  C15 UNL     1      27.415   1.014  53.015  1.00  0.00     0.194 C 
HETATM   13  C16 UNL     1      26.404   2.024  53.462  1.00  0.00     0.194 C 
HETATM   14  O3  UNL     1      25.648   2.364  52.380  1.00  0.00    -0.385 OA
HETATM   15  C17 UNL     1      24.477   3.030  52.777  1.00  0.00     0.206 C 
HETATM   16  N2  UNL     1      23.312   5.371  51.504  1.00  0.00    -0.226 NA
HETATM   17  C18 UNL     1      23.020   6.555  51.050  1.00  0.00     0.209 C 
HETATM   18  N3  UNL     1      22.410   6.872  49.806  1.00  0.00    -0.353 N 
HETATM   19  H9  UNL     1      21.909   2.897  49.711  1.00  0.00     0.161 HD
HETATM   20  H27 UNL     1      21.954   7.805  49.702  1.00  0.00     0.166 HD
ENDROOT
BRANCH   1  21
HETATM   21  C3  UNL     1      22.276   5.932  46.238  1.00  0.00    -0.002 C 
HETATM   22  C2  UNL     1      22.635   6.515  45.094  1.00  0.00    -0.031 C 
HETATM   23  C1  UNL     1      23.080   7.922  45.177  1.00  0.00     0.036 C 
ENDBRANCH   1  21
BRANCH   9  24
HETATM   24  O1  UNL     1      23.581  -0.629  53.980  1.00  0.00    -0.354 OA
BRANCH  24  25
HETATM   25  C12 UNL     1      22.224  -0.295  54.126  1.00  0.00     0.171 C 
HETATM   26  C13 UNL     1      21.425  -1.454  54.675  1.00  0.00     0.034 C 
ENDBRANCH  24  25
ENDBRANCH   9  24
TORSDOF 3
ENDMDL
MODEL 5
REMARK VINA RESULT:      -6.6      6.038      7.550
REMARK  3 active torsions:
REMARK  status: ('A' for Active; 'I' for Inactive)
REMARK    1  A    between atoms: C3_3  and  C4_4 
REMARK    2  A    between atoms: C11_12  and  O1_13 
REMARK    3  A    between atoms: O1_13  and  C12_14 
ROOT
HETATM    1  C4  UNL     1      31.323   7.935  48.252  1.00  0.00     0.026 C 
HETATM    2  C5  UNL     1      30.078   7.469  48.063  1.00  0.00     0.028 C 
HETATM    3  C6  UNL     1      29.952   6.112  48.631  1.00  0.00     0.178 C 
HETATM    4  N1  UNL     1      28.640   5.529  48.488  1.00  0.00    -0.369 N 
HETATM    5  C7  UNL     1      27.386   6.176  48.524  1.00  0.00     0.129 C 
HETATM    6  C8  UNL     1      26.374   5.536  49.069  1.00  0.00    -0.007 C 
HETATM    7  C9  UNL     1      26.258   4.205  49.693  1.00  0.00     0.070 C 
HETATM    8  C10 UNL     1      25.140   3.367  49.301  1.00  0.00     0.012 C 
HETATM    9  C11 UNL     1      24.182   3.119  50.207  1.00  0.00     0.066 C 
HETATM   10  C14 UNL     1      23.404   3.130  51.452  1.00  0.00     0.231 C 
HETATM   11  O2  UNL     1      23.857   3.902  52.486  1.00  0.00    -0.383 OA
HETATM   12  C15 UNL     1      23.398   5.229  52.497  1.00  0.00     0.194 C 
HETATM   13  C16 UNL     1      23.520   5.788  51.114  1.00  0.00     0.194 C 
HETATM   14  O3  UNL     1      24.833   5.717  50.751  1.00  0.00    -0.385 OA
HETATM   15  C17 UNL     1      24.979   5.894  49.366  1.00  0.00     0.206 C 
HETATM   16  N2  UNL     1      27.027   7.476  48.038  1.00  0.00    -0.226 NA
HETATM   17  C18 UNL     1      27.792   8.409  47.553  1.00  0.00     0.209 C 
HETATM   18  N3  UNL     1      29.203   8.360  47.383  1.00  0.00    -0.353 N 
HETATM   19  H9  UNL     1      28.594   4.517  48.342  1.00  0.00     0.161 HD
HETATM   20  H27 UNL     1      29.644   9.026  46.712  1.00  0.00     0.166 HD
ENDROOT
BRANCH   1  21
HETATM   21  C3  UNL     1      32.341   7.169  48.923  1.00  0.00    -0.002 C 
HETATM   22  C2  UNL     1      33.634   7.339  48.647  1.00  0.00    -0.031 C 
HETATM   23  C1  UNL     1      33.966   8.352  47.621  1.00  0.00     0.036 C 
ENDBRANCH   1  21
BRANCH   9  24
HETATM   24  O1  UNL     1      23.363   2.285  49.390  1.00  0.00    -0.354 OA
BRANCH  24  25
HETATM   25  C12 UNL     1      21.977   2.251  49.615  1.00  0.00     0.171 C 
HETATM   26  C13 UNL     1      21.349   1.010  49.023  1.00  0.00     0.034 C 
ENDBRANCH  24  25
ENDBRANCH   9  24
TORSDOF 3
ENDMDL
MODEL 6
REMARK VINA RESULT:      -6.6      3.657      7.989
REMARK  3 active torsions:
REMARK  status: ('A' for Active; 'I' for Inactive)
REMARK    1  A    between atoms: C3_3  and  C4_4 
REMARK    2  A    between atoms: C11_12  and  O1_13 
REMARK    3  A    between atoms: O1_13  and  C12_14 
ROOT
HETATM    1  C4  UNL     1      17.183   1.128  50.322  1.00  0.00     0.026 C 
HETATM    2  C5  UNL     1      18.228   1.610  51.015  1.00  0.00     0.028 C 
HETATM    3  C6  UNL     1      19.268   0.571  51.153  1.00  0.00     0.178 C 
HETATM    4  N1  UNL     1      20.442   1.001  51.873  1.00  0.00    -0.369 N 
HETATM    5  C7  UNL     1      21.042   2.278  51.888  1.00  0.00     0.129 C 
HETATM    6  C8  UNL     1      22.353   2.345  51.964  1.00  0.00    -0.007 C 
HETATM    7  C9  UNL     1      23.400   1.310  52.040  1.00  0.00     0.070 C 
HETATM    8  C10 UNL     1      24.444   1.471  53.036  1.00  0.00     0.012 C 
HETATM    9  C11 UNL     1      25.692   1.729  52.615  1.00  0.00     0.066 C 
HETATM   10  C14 UNL     1      26.839   2.004  51.743  1.00  0.00     0.231 C 
HETATM   11  O2  UNL     1      26.616   2.099  50.397  1.00  0.00    -0.383 OA
HETATM   12  C15 UNL     1      26.289   3.382  49.927  1.00  0.00     0.194 C 
HETATM   13  C16 UNL     1      25.263   3.977  50.841  1.00  0.00     0.194 C 
HETATM   14  O3  UNL     1      24.177   3.153  50.841  1.00  0.00    -0.385 OA
HETATM   15  C17 UNL     1      23.325   3.449  51.917  1.00  0.00     0.206 C 
HETATM   16  N2  UNL     1      20.420   3.569  51.831  1.00  0.00    -0.226 NA
HETATM   17  C18 UNL     1      19.168   3.866  51.641  1.00  0.00     0.209 C 
HETATM   18  N3  UNL     1      18.092   2.961  51.439  1.00  0.00    -0.353 N 
HETATM   19  H9  UNL     1      20.913   0.301  52.454  1.00  0.00     0.161 HD
HETATM   20  H27 UNL     1      17.120   3.301  51.610  1.00  0.00     0.166 HD
ENDROOT
BRANCH   1  21
HETATM   21  C3  UNL     1      17.148  -0.219  49.814  1.00  0.00    -0.002 C 
HETATM   22  C2  UNL     1      16.003  -0.893  49.710  1.00  0.00    -0.031 C 
HETATM   23  C1  UNL     1      14.776  -0.189  50.141  1.00  0.00     0.036 C 
ENDBRANCH   1  21
BRANCH   9  24
HETATM   24  O1  UNL     1      26.314   1.781  53.898  1.00  0.00    -0.354 OA
BRANCH  24  25
HETATM   25  C12 UNL     1      26.486   0.592  54.625  1.00  0.00     0.171 C 
HETATM   26  C13 UNL     1      27.947   0.228  54.755  1.00  0.00     0.034 C 
ENDBRANCH  24  25
ENDBRANCH   9  24
TORSDOF 3
ENDMDL
MODEL 7
REMARK VINA RESULT:      -6.5      6.285      8.181
REMARK  3 active torsions:
REMARK  status: ('A' for Active; 'I' for Inactive)
REMARK    1  A    between atoms: C3_3  and  C4_4 
REMARK    2  A    between atoms: C11_12  and  O1_13 
REMARK    3  A    between atoms: O1_13  and  C12_14 
ROOT
HETATM    1  C4  UNL     1      22.933   3.734  51.294  1.00  0.00     0.026 C 
HETATM    2  C5  UNL     1      23.888   4.662  51.115  1.00  0.00     0.028 C 
HETATM    3  C6  UNL     1      24.989   4.106  50.303  1.00  0.00     0.178 C 
HETATM    4  N1  UNL     1      26.061   5.036  50.044  1.00  0.00    -0.369 N 
HETATM    5  C7  UNL     1      25.982   6.431  49.844  1.00  0.00     0.129 C 
HETATM    6  C8  UNL     1      26.809   6.981  48.983  1.00  0.00    -0.007 C 
HETATM    7  C9  UNL     1      27.870   6.422  48.124  1.00  0.00     0.070 C 
HETATM    8  C10 UNL     1      29.153   7.099  48.102  1.00  0.00     0.012 C 
HETATM    9  C11 UNL     1      29.522   7.728  46.975  1.00  0.00     0.066 C 
HETATM   10  C14 UNL     1      29.504   8.268  45.611  1.00  0.00     0.231 C 
HETATM   11  O2  UNL     1      28.380   8.073  44.856  1.00  0.00    -0.383 OA
HETATM   12  C15 UNL     1      27.391   9.062  44.978  1.00  0.00     0.194 C 
HETATM   13  C16 UNL     1      27.202   9.372  46.429  1.00  0.00     0.194 C 
HETATM   14  O3  UNL     1      26.835   8.220  47.058  1.00  0.00    -0.385 OA
HETATM   15  C17 UNL     1      26.974   8.343  48.450  1.00  0.00     0.206 C 
HETATM   16  N2  UNL     1      25.103   7.383  50.459  1.00  0.00    -0.226 NA
HETATM   17  C18 UNL     1      24.100   7.172  51.260  1.00  0.00     0.209 C 
HETATM   18  N3  UNL     1      23.624   5.917  51.729  1.00  0.00    -0.353 N 
HETATM   19  H9  UNL     1      27.009   4.652  49.996  1.00  0.00     0.161 HD
HETATM   20  H27 UNL     1      23.033   5.902  52.589  1.00  0.00     0.166 HD
ENDROOT
BRANCH   1  21
HETATM   21  C3  UNL     1      23.032   2.408  50.743  1.00  0.00    -0.002 C 
HETATM   22  C2  UNL     1      23.191   1.341  51.526  1.00  0.00    -0.031 C 
HETATM   23  C1  UNL     1      23.259   1.589  52.982  1.00  0.00     0.036 C 
ENDBRANCH   1  21
BRANCH   9  24
HETATM   24  O1  UNL     1      30.792   8.194  47.429  1.00  0.00    -0.354 OA
BRANCH  24  25
HETATM   25  C12 UNL     1      31.708   7.275  47.966  1.00  0.00     0.171 C 
HETATM   26  C13 UNL     1      32.708   7.955  48.872  1.00  0.00     0.034 C 
ENDBRANCH  24  25
ENDBRANCH   9  24
TORSDOF 3
ENDMDL
MODEL 8
REMARK VINA RESULT:      -6.2      7.725      9.346
REMARK  3 active torsions:
REMARK  status: ('A' for Active; 'I' for Inactive)
REMARK    1  A    between atoms: C3_3  and  C4_4 
REMARK    2  A    between atoms: C11_12  and  O1_13 
REMARK    3  A    between atoms: O1_13  and  C12_14 
ROOT
HETATM    1  C4  UNL     1      23.906   3.985  49.396  1.00  0.00     0.026 C 
HETATM    2  C5  UNL     1      24.568   5.129  49.155  1.00  0.00     0.028 C 
HETATM    3  C6  UNL     1      25.944   5.041  49.681  1.00  0.00     0.178 C 
HETATM    4  N1  UNL     1      26.741   6.222  49.457  1.00  0.00    -0.369 N 
HETATM    5  C7  UNL     1      26.711   7.103  48.355  1.00  0.00     0.129 C 
HETATM    6  C8  UNL     1      27.845   7.636  47.956  1.00  0.00    -0.007 C 
HETATM    7  C9  UNL     1      29.232   7.502  48.439  1.00  0.00     0.070 C 
HETATM    8  C10 UNL     1      30.007   8.716  48.619  1.00  0.00     0.012 C 
HETATM    9  C11 UNL     1      31.043   8.938  47.795  1.00  0.00     0.066 C 
HETATM   10  C14 UNL     1      32.020   8.781  46.711  1.00  0.00     0.231 C 
HETATM   11  O2  UNL     1      31.892   7.702  45.881  1.00  0.00    -0.383 OA
HETATM   12  C15 UNL     1      31.072   7.896  44.758  1.00  0.00     0.194 C 
HETATM   13  C16 UNL     1      29.816   8.581  45.197  1.00  0.00     0.194 C 
HETATM   14  O3  UNL     1      29.211   7.788  46.125  1.00  0.00    -0.385 OA
HETATM   15  C17 UNL     1      28.228   8.501  46.830  1.00  0.00     0.206 C 
HETATM   16  N2  UNL     1      25.589   7.527  47.568  1.00  0.00    -0.226 NA
HETATM   17  C18 UNL     1      24.356   7.116  47.613  1.00  0.00     0.209 C 
HETATM   18  N3  UNL     1      23.813   6.124  48.474  1.00  0.00    -0.353 N 
HETATM   19  H9  UNL     1      27.422   6.468  50.181  1.00  0.00     0.161 HD
HETATM   20  H27 UNL     1      22.780   6.112  48.626  1.00  0.00     0.166 HD
ENDROOT
BRANCH   1  21
HETATM   21  C3  UNL     1      24.515   2.870  50.074  1.00  0.00    -0.002 C 
HETATM   22  C2  UNL     1      23.858   2.183  51.008  1.00  0.00    -0.031 C 
HETATM   23  C1  UNL     1      22.479   2.624  51.311  1.00  0.00     0.036 C 
ENDBRANCH   1  21
BRANCH   9  24
HETATM   24  O1  UNL     1      31.467  10.178  48.358  1.00  0.00    -0.354 OA
BRANCH  24  25
HETATM   25  C12 UNL     1      30.583  10.897  49.179  1.00  0.00     0.171 C 
HETATM   26  C13 UNL     1      30.751  12.389  49.000  1.00  0.00     0.034 C 
ENDBRANCH  24  25
ENDBRANCH   9  24
TORSDOF 3
ENDMDL
MODEL 9
REMARK VINA RESULT:      -6.2      5.553      7.278
REMARK  3 active torsions:
REMARK  status: ('A' for Active; 'I' for Inactive)
REMARK    1  A    between atoms: C3_3  and  C4_4 
REMARK    2  A    between atoms: C11_12  and  O1_13 
REMARK    3  A    between atoms: O1_13  and  C12_14 
ROOT
HETATM    1  C4  UNL     1      29.490   8.945  48.895  1.00  0.00     0.026 C 
HETATM    2  C5  UNL     1      28.240   8.456  48.955  1.00  0.00     0.028 C 
HETATM    3  C6  UNL     1      28.222   7.053  48.492  1.00  0.00     0.178 C 
HETATM    4  N1  UNL     1      26.920   6.434  48.532  1.00  0.00    -0.369 N 
HETATM    5  C7  UNL     1      25.880   6.640  49.464  1.00  0.00     0.129 C 
HETATM    6  C8  UNL     1      25.135   5.609  49.799  1.00  0.00    -0.007 C 
HETATM    7  C9  UNL     1      25.151   4.193  49.387  1.00  0.00     0.070 C 
HETATM    8  C10 UNL     1      23.889   3.577  49.023  1.00  0.00     0.012 C 
HETATM    9  C11 UNL     1      23.389   2.626  49.826  1.00  0.00     0.066 C 
HETATM   10  C14 UNL     1      23.224   1.696  50.949  1.00  0.00     0.231 C 
HETATM   11  O2  UNL     1      24.156   1.723  51.950  1.00  0.00    -0.383 OA
HETATM   12  C15 UNL     1      23.893   2.620  52.998  1.00  0.00     0.194 C 
HETATM   13  C16 UNL     1      23.474   3.931  52.410  1.00  0.00     0.194 C 
HETATM   14  O3  UNL     1      24.488   4.375  51.615  1.00  0.00    -0.385 OA
HETATM   15  C17 UNL     1      24.048   5.405  50.768  1.00  0.00     0.206 C 
HETATM   16  N2  UNL     1      25.492   7.848  50.131  1.00  0.00    -0.226 NA
HETATM   17  C18 UNL     1      26.073   9.011  50.122  1.00  0.00     0.209 C 
HETATM   18  N3  UNL     1      27.262   9.372  49.430  1.00  0.00    -0.353 N 
HETATM   19  H9  UNL     1      26.705   5.754  47.797  1.00  0.00     0.161 HD
HETATM   20  H27 UNL     1      27.443  10.384  49.252  1.00  0.00     0.166 HD
ENDROOT
BRANCH   1  21
HETATM   21  C3  UNL     1      30.606   8.159  48.439  1.00  0.00    -0.002 C 
HETATM   22  C2  UNL     1      31.683   8.729  47.899  1.00  0.00    -0.031 C 
HETATM   23  C1  UNL     1      31.671  10.205  47.794  1.00  0.00     0.036 C 
ENDBRANCH   1  21
BRANCH   9  24
HETATM   24  O1  UNL     1      22.214   2.341  49.070  1.00  0.00    -0.354 OA
BRANCH  24  25
HETATM   25  C12 UNL     1      21.541   3.391  48.424  1.00  0.00     0.171 C 
HETATM   26  C13 UNL     1      20.244   2.923  47.807  1.00  0.00     0.034 C 
ENDBRANCH  24  25
ENDBRANCH   9  24
TORSDOF 3
ENDMDL
