MODEL 1
REMARK VINA RESULT:      -8.3      0.000      0.000
REMARK  3 active torsions:
REMARK  status: ('A' for Active; 'I' for Inactive)
REMARK       I    between atoms: N1_1  and  C1_2 
REMARK       I    between atoms: C1_2  and  N2_4 
REMARK    1  A    between atoms: N2_4  and  C2_5 
REMARK    2  A    between atoms: C7_12  and  N5_13 
REMARK    3  A    between atoms: N5_13  and  C8_14 
ROOT
HETATM    1  C2  UNL     1      24.880   3.184  51.262  1.00  0.00     0.037 A 
HETATM    2  C3  UNL     1      23.681   2.925  50.647  1.00  0.00     0.032 A 
HETATM    3  C4  UNL     1      22.905   1.863  51.052  1.00  0.00     0.035 A 
HETATM    4  C5  UNL     1      23.344   1.048  52.094  1.00  0.00     0.072 A 
HETATM    5  N3  UNL     1      22.561   0.020  52.465  1.00  0.00    -0.241 NA
HETATM    6  C6  UNL     1      22.967  -0.776  53.468  1.00  0.00     0.236 A 
HETATM    7  N4  UNL     1      24.146  -0.519  54.071  1.00  0.00    -0.224 NA
HETATM    8  C7  UNL     1      24.924   0.509  53.696  1.00  0.00     0.141 A 
HETATM    9  C13 UNL     1      24.562   1.360  52.676  1.00  0.00     0.041 A 
HETATM   10  C14 UNL     1      25.358   2.399  52.305  1.00  0.00     0.047 A 
ENDROOT
BRANCH   8  11
HETATM   11  N5  UNL     1      26.138   0.662  54.417  1.00  0.00    -0.341 N 
HETATM   12  H7  UNL     1      26.368   1.240  55.253  1.00  0.00     0.167 HD
BRANCH  11  13
HETATM   13  C8  UNL     1      27.303  -0.049  54.019  1.00  0.00     0.048 A 
HETATM   14  C9  UNL     1      28.470   0.259  54.565  1.00  0.00     0.028 A 
HETATM   15  C10 UNL     1      29.511  -0.597  54.004  1.00  0.00     0.001 A 
HETATM   16  C11 UNL     1      28.938  -1.406  53.128  1.00  0.00     0.016 A 
HETATM   17  C12 UNL     1      27.473  -1.157  53.029  1.00  0.00     0.242 A 
HETATM   18  F1  UNL     1      27.101  -0.674  51.802  1.00  0.00    -0.239 F 
ENDBRANCH  11  13
ENDBRANCH   8  11
BRANCH   1  19
HETATM   19  N2  UNL     1      25.678   4.300  50.825  1.00  0.00    -0.309 N 
HETATM   20  C1  UNL     1      26.654   3.971  49.849  1.00  0.00     0.318 C 
HETATM   21  N1  UNL     1      27.478   5.023  49.372  1.00  0.00    -0.352 N 
HETATM   22  O1  UNL     1      26.898   2.850  49.334  1.00  0.00    -0.247 OA
HETATM   23  H1  UNL     1      27.466   6.051  49.496  1.00  0.00     0.160 HD
HETATM   24  H2  UNL     1      28.313   4.930  48.759  1.00  0.00     0.160 HD
HETATM   25  H3  UNL     1      25.590   5.285  51.163  1.00  0.00     0.170 HD
ENDBRANCH   1  19
TORSDOF 3
ENDMDL
MODEL 2
REMARK VINA RESULT:      -8.1      2.025      4.256
REMARK  3 active torsions:
REMARK  status: ('A' for Active; 'I' for Inactive)
REMARK       I    between atoms: N1_1  and  C1_2 
REMARK       I    between atoms: C1_2  and  N2_4 
REMARK    1  A    between atoms: N2_4  and  C2_5 
REMARK    2  A    between atoms: C7_12  and  N5_13 
REMARK    3  A    between atoms: N5_13  and  C8_14 
ROOT
HETATM    1  C2  UNL     1      22.786   1.342  52.761  1.00  0.00     0.037 A 
HETATM    2  C3  UNL     1      22.254   1.755  51.565  1.00  0.00     0.032 A 
HETATM    3  C4  UNL     1      23.061   2.317  50.602  1.00  0.00     0.035 A 
HETATM    4  C5  UNL     1      24.425   2.465  50.848  1.00  0.00     0.072 A 
HETATM    5  N3  UNL     1      25.183   3.018  49.884  1.00  0.00    -0.241 NA
HETATM    6  C6  UNL     1      26.500   3.169  50.103  1.00  0.00     0.236 A 
HETATM    7  N4  UNL     1      27.020   2.762  51.280  1.00  0.00    -0.224 NA
HETATM    8  C7  UNL     1      26.257   2.211  52.238  1.00  0.00     0.141 A 
HETATM    9  C13 UNL     1      24.902   2.029  52.073  1.00  0.00     0.041 A 
HETATM   10  C14 UNL     1      24.139   1.469  53.051  1.00  0.00     0.047 A 
ENDROOT
BRANCH   8  11
HETATM   11  N5  UNL     1      26.935   1.828  53.425  1.00  0.00    -0.341 N 
HETATM   12  H7  UNL     1      26.924   2.241  54.381  1.00  0.00     0.167 HD
BRANCH  11  13
HETATM   13  C8  UNL     1      27.806   0.704  53.423  1.00  0.00     0.048 A 
HETATM   14  C9  UNL     1      29.098   0.882  53.657  1.00  0.00     0.028 A 
HETATM   15  C10 UNL     1      29.783  -0.406  53.604  1.00  0.00     0.001 A 
HETATM   16  C11 UNL     1      28.879  -1.334  53.338  1.00  0.00     0.016 A 
HETATM   17  C12 UNL     1      27.519  -0.746  53.190  1.00  0.00     0.242 A 
HETATM   18  F1  UNL     1      27.026  -0.868  51.917  1.00  0.00    -0.239 F 
ENDBRANCH  11  13
ENDBRANCH   8  11
BRANCH   1  19
HETATM   19  N2  UNL     1      21.927   0.755  53.757  1.00  0.00    -0.309 N 
HETATM   20  C1  UNL     1      21.856  -0.661  53.705  1.00  0.00     0.318 C 
HETATM   21  N1  UNL     1      21.027  -1.307  54.657  1.00  0.00    -0.352 N 
HETATM   22  O1  UNL     1      22.440  -1.444  52.913  1.00  0.00    -0.247 OA
HETATM   23  H1  UNL     1      20.515  -0.980  55.496  1.00  0.00     0.160 HD
HETATM   24  H2  UNL     1      20.770  -2.315  54.676  1.00  0.00     0.160 HD
HETATM   25  H3  UNL     1      21.380   1.278  54.478  1.00  0.00     0.170 HD
ENDBRANCH   1  19
TORSDOF 3
ENDMDL
MODEL 3
REMARK VINA RESULT:      -7.8      1.995      2.381
REMARK  3 active torsions:
REMARK  status: ('A' for Active; 'I' for Inactive)
REMARK       I    between atoms: N1_1  and  C1_2 
REMARK       I    between atoms: C1_2  and  N2_4 
REMARK    1  A    between atoms: N2_4  and  C2_5 
REMARK    2  A    between atoms: C7_12  and  N5_13 
REMARK    3  A    between atoms: N5_13  and  C8_14 
ROOT
HETATM    1  C2  UNL     1      23.269   1.309  51.697  1.00  0.00     0.037 A 
HETATM    2  C3  UNL     1      22.062   0.677  51.867  1.00  0.00     0.032 A 
HETATM    3  C4  UNL     1      21.884  -0.215  52.901  1.00  0.00     0.035 A 
HETATM    4  C5  UNL     1      22.937  -0.474  53.775  1.00  0.00     0.072 A 
HETATM    5  N3  UNL     1      22.727  -1.351  54.774  1.00  0.00    -0.241 NA
HETATM    6  C6  UNL     1      23.731  -1.614  55.627  1.00  0.00     0.236 A 
HETATM    7  N4  UNL     1      24.915  -0.991  55.457  1.00  0.00    -0.224 NA
HETATM    8  C7  UNL     1      25.119  -0.117  54.457  1.00  0.00     0.141 A 
HETATM    9  C13 UNL     1      24.130   0.194  53.551  1.00  0.00     0.041 A 
HETATM   10  C14 UNL     1      24.347   1.082  52.544  1.00  0.00     0.047 A 
ENDROOT
BRANCH   8  11
HETATM   11  N5  UNL     1      26.413   0.463  54.397  1.00  0.00    -0.341 N 
HETATM   12  H7  UNL     1      26.744   1.420  54.638  1.00  0.00     0.167 HD
BRANCH  11  13
HETATM   13  C8  UNL     1      27.522  -0.304  53.946  1.00  0.00     0.048 A 
HETATM   14  C9  UNL     1      28.743   0.024  54.344  1.00  0.00     0.028 A 
HETATM   15  C10 UNL     1      29.710  -0.899  53.756  1.00  0.00     0.001 A 
HETATM   16  C11 UNL     1      29.040  -1.765  53.014  1.00  0.00     0.016 A 
HETATM   17  C12 UNL     1      27.576  -1.494  53.042  1.00  0.00     0.242 A 
HETATM   18  F1  UNL     1      27.087  -1.107  51.822  1.00  0.00    -0.239 F 
ENDBRANCH  11  13
ENDBRANCH   8  11
BRANCH   1  19
HETATM   19  N2  UNL     1      23.437   2.239  50.611  1.00  0.00    -0.309 N 
HETATM   20  C1  UNL     1      23.166   3.589  50.953  1.00  0.00     0.318 C 
HETATM   21  N1  UNL     1      23.312   4.562  49.930  1.00  0.00    -0.352 N 
HETATM   22  O1  UNL     1      22.806   4.057  52.063  1.00  0.00    -0.247 OA
HETATM   23  H1  UNL     1      23.692   4.533  48.967  1.00  0.00     0.160 HD
HETATM   24  H2  UNL     1      23.035   5.563  49.980  1.00  0.00     0.160 HD
HETATM   25  H3  UNL     1      23.731   1.997  49.637  1.00  0.00     0.170 HD
ENDBRANCH   1  19
TORSDOF 3
ENDMDL
MODEL 4
REMARK VINA RESULT:      -7.8      2.098      5.217
REMARK  3 active torsions:
REMARK  status: ('A' for Active; 'I' for Inactive)
REMARK       I    between atoms: N1_1  and  C1_2 
REMARK       I    between atoms: C1_2  and  N2_4 
REMARK    1  A    between atoms: N2_4  and  C2_5 
REMARK    2  A    between atoms: C7_12  and  N5_13 
REMARK    3  A    between atoms: N5_13  and  C8_14 
ROOT
HETATM    1  C2  UNL     1      25.323   1.278  53.614  1.00  0.00     0.037 A 
HETATM    2  C3  UNL     1      24.504   0.185  53.481  1.00  0.00     0.032 A 
HETATM    3  C4  UNL     1      23.495   0.181  52.545  1.00  0.00     0.035 A 
HETATM    4  C5  UNL     1      23.308   1.295  51.730  1.00  0.00     0.072 A 
HETATM    5  N3  UNL     1      22.312   1.256  50.826  1.00  0.00    -0.241 NA
HETATM    6  C6  UNL     1      22.117   2.322  50.031  1.00  0.00     0.236 A 
HETATM    7  N4  UNL     1      22.924   3.395  50.163  1.00  0.00    -0.224 NA
HETATM    8  C7  UNL     1      23.916   3.427  51.068  1.00  0.00     0.141 A 
HETATM    9  C13 UNL     1      24.166   2.368  51.911  1.00  0.00     0.041 A 
HETATM   10  C14 UNL     1      25.175   2.412  52.823  1.00  0.00     0.047 A 
ENDROOT
BRANCH   8  11
HETATM   11  N5  UNL     1      24.686   4.619  51.098  1.00  0.00    -0.341 N 
HETATM   12  H7  UNL     1      24.654   5.438  51.741  1.00  0.00     0.167 HD
BRANCH  11  13
HETATM   13  C8  UNL     1      25.705   4.839  50.131  1.00  0.00     0.048 A 
HETATM   14  C9  UNL     1      25.731   5.983  49.463  1.00  0.00     0.028 A 
HETATM   15  C10 UNL     1      26.857   5.979  48.534  1.00  0.00     0.001 A 
HETATM   16  C11 UNL     1      27.486   4.822  48.668  1.00  0.00     0.016 A 
HETATM   17  C12 UNL     1      26.834   3.961  49.693  1.00  0.00     0.242 A 
HETATM   18  F1  UNL     1      26.286   2.825  49.156  1.00  0.00    -0.239 F 
ENDBRANCH  11  13
ENDBRANCH   8  11
BRANCH   1  19
HETATM   19  N2  UNL     1      26.374   1.265  54.598  1.00  0.00    -0.309 N 
HETATM   20  C1  UNL     1      27.593   0.701  54.140  1.00  0.00     0.318 C 
HETATM   21  N1  UNL     1      28.674   0.655  55.058  1.00  0.00    -0.352 N 
HETATM   22  O1  UNL     1      27.857   0.225  53.007  1.00  0.00    -0.247 OA
HETATM   23  H1  UNL     1      28.826   1.053  56.003  1.00  0.00     0.160 HD
HETATM   24  H2  UNL     1      29.582   0.168  54.925  1.00  0.00     0.160 HD
HETATM   25  H3  UNL     1      26.301   1.625  55.576  1.00  0.00     0.170 HD
ENDBRANCH   1  19
TORSDOF 3
ENDMDL
MODEL 5
REMARK VINA RESULT:      -7.7      2.842      5.462
REMARK  3 active torsions:
REMARK  status: ('A' for Active; 'I' for Inactive)
REMARK       I    between atoms: N1_1  and  C1_2 
REMARK       I    between atoms: C1_2  and  N2_4 
REMARK    1  A    between atoms: N2_4  and  C2_5 
REMARK    2  A    between atoms: C7_12  and  N5_13 
REMARK    3  A    between atoms: N5_13  and  C8_14 
ROOT
HETATM    1  C2  UNL     1      25.023  -0.807  54.269  1.00  0.00     0.037 A 
HETATM    2  C3  UNL     1      24.291  -1.326  55.308  1.00  0.00     0.032 A 
HETATM    3  C4  UNL     1      22.923  -1.180  55.336  1.00  0.00     0.035 A 
HETATM    4  C5  UNL     1      22.282  -0.501  54.302  1.00  0.00     0.072 A 
HETATM    5  N3  UNL     1      20.944  -0.378  54.361  1.00  0.00    -0.241 NA
HETATM    6  C6  UNL     1      20.308   0.273  53.373  1.00  0.00     0.236 A 
HETATM    7  N4  UNL     1      21.030   0.782  52.353  1.00  0.00    -0.224 NA
HETATM    8  C7  UNL     1      22.367   0.656  52.300  1.00  0.00     0.141 A 
HETATM    9  C13 UNL     1      23.074  -0.000  53.282  1.00  0.00     0.041 A 
HETATM   10  C14 UNL     1      24.428  -0.123  53.216  1.00  0.00     0.047 A 
ENDROOT
BRANCH   8  11
HETATM   11  N5  UNL     1      22.998   1.240  51.170  1.00  0.00    -0.341 N 
HETATM   12  H7  UNL     1      23.292   0.825  50.261  1.00  0.00     0.167 HD
BRANCH  11  13
HETATM   13  C8  UNL     1      23.333   2.622  51.171  1.00  0.00     0.048 A 
HETATM   14  C9  UNL     1      23.772   3.184  50.054  1.00  0.00     0.028 A 
HETATM   15  C10 UNL     1      24.049   4.597  50.297  1.00  0.00     0.001 A 
HETATM   16  C11 UNL     1      23.766   4.851  51.564  1.00  0.00     0.016 A 
HETATM   17  C12 UNL     1      23.280   3.634  52.271  1.00  0.00     0.242 A 
HETATM   18  F1  UNL     1      24.139   3.216  53.255  1.00  0.00    -0.239 F 
ENDBRANCH  11  13
ENDBRANCH   8  11
BRANCH   1  19
HETATM   19  N2  UNL     1      26.454  -0.970  54.256  1.00  0.00    -0.309 N 
HETATM   20  C1  UNL     1      27.175   0.181  54.668  1.00  0.00     0.318 C 
HETATM   21  N1  UNL     1      28.591   0.093  54.679  1.00  0.00    -0.352 N 
HETATM   22  O1  UNL     1      26.724   1.296  55.033  1.00  0.00    -0.247 OA
HETATM   23  H1  UNL     1      29.258  -0.689  54.552  1.00  0.00     0.160 HD
HETATM   24  H2  UNL     1      29.261   0.873  54.831  1.00  0.00     0.160 HD
HETATM   25  H3  UNL     1      26.969  -1.835  53.977  1.00  0.00     0.170 HD
ENDBRANCH   1  19
TORSDOF 3
ENDMDL
MODEL 6
REMARK VINA RESULT:      -7.3      2.824      3.498
REMARK  3 active torsions:
REMARK  status: ('A' for Active; 'I' for Inactive)
REMARK       I    between atoms: N1_1  and  C1_2 
REMARK       I    between atoms: C1_2  and  N2_4 
REMARK    1  A    between atoms: N2_4  and  C2_5 
REMARK    2  A    between atoms: C7_12  and  N5_13 
REMARK    3  A    between atoms: N5_13  and  C8_14 
ROOT
HETATM    1  C2  UNL     1      21.972   1.134  52.197  1.00  0.00     0.037 A 
HETATM    2  C3  UNL     1      21.016   0.833  53.135  1.00  0.00     0.032 A 
HETATM    3  C4  UNL     1      21.342   0.085  54.244  1.00  0.00     0.035 A 
HETATM    4  C5  UNL     1      22.650  -0.365  54.411  1.00  0.00     0.072 A 
HETATM    5  N3  UNL     1      22.932  -1.093  55.507  1.00  0.00    -0.241 NA
HETATM    6  C6  UNL     1      24.188  -1.536  55.684  1.00  0.00     0.236 A 
HETATM    7  N4  UNL     1      25.125  -1.238  54.761  1.00  0.00    -0.224 NA
HETATM    8  C7  UNL     1      24.836  -0.512  53.668  1.00  0.00     0.141 A 
HETATM    9  C13 UNL     1      23.569  -0.029  53.430  1.00  0.00     0.041 A 
HETATM   10  C14 UNL     1      23.289   0.706  52.320  1.00  0.00     0.047 A 
ENDROOT
BRANCH   8  11
HETATM   11  N5  UNL     1      25.918  -0.274  52.780  1.00  0.00    -0.341 N 
HETATM   12  H7  UNL     1      26.115  -0.647  51.828  1.00  0.00     0.167 HD
BRANCH  11  13
HETATM   13  C8  UNL     1      26.970   0.607  53.152  1.00  0.00     0.048 A 
HETATM   14  C9  UNL     1      28.136   0.104  53.530  1.00  0.00     0.028 A 
HETATM   15  C10 UNL     1      29.052   1.192  53.860  1.00  0.00     0.001 A 
HETATM   16  C11 UNL     1      28.408   2.332  53.671  1.00  0.00     0.016 A 
HETATM   17  C12 UNL     1      27.014   2.101  53.201  1.00  0.00     0.242 A 
HETATM   18  F1  UNL     1      26.075   2.510  54.112  1.00  0.00    -0.239 F 
ENDBRANCH  11  13
ENDBRANCH   8  11
BRANCH   1  19
HETATM   19  N2  UNL     1      21.614   1.917  51.042  1.00  0.00    -0.309 N 
HETATM   20  C1  UNL     1      21.743   3.318  51.227  1.00  0.00     0.318 C 
HETATM   21  N1  UNL     1      21.406   4.153  50.130  1.00  0.00    -0.352 N 
HETATM   22  O1  UNL     1      22.123   3.940  52.251  1.00  0.00    -0.247 OA
HETATM   23  H1  UNL     1      21.177   3.968  49.137  1.00  0.00     0.160 HD
HETATM   24  H2  UNL     1      21.326   5.189  50.139  1.00  0.00     0.160 HD
HETATM   25  H3  UNL     1      21.282   1.540  50.126  1.00  0.00     0.170 HD
ENDBRANCH   1  19
TORSDOF 3
ENDMDL
MODEL 7
REMARK VINA RESULT:      -7.2      2.578      4.622
REMARK  3 active torsions:
REMARK  status: ('A' for Active; 'I' for Inactive)
REMARK       I    between atoms: N1_1  and  C1_2 
REMARK       I    between atoms: C1_2  and  N2_4 
REMARK    1  A    between atoms: N2_4  and  C2_5 
REMARK    2  A    between atoms: C7_12  and  N5_13 
REMARK    3  A    between atoms: N5_13  and  C8_14 
ROOT
HETATM    1  C2  UNL     1      21.800   1.326  52.968  1.00  0.00     0.037 A 
HETATM    2  C3  UNL     1      21.484   2.532  52.394  1.00  0.00     0.032 A 
HETATM    3  C4  UNL     1      22.439   3.247  51.708  1.00  0.00     0.035 A 
HETATM    4  C5  UNL     1      23.732   2.741  51.599  1.00  0.00     0.072 A 
HETATM    5  N3  UNL     1      24.640   3.467  50.921  1.00  0.00    -0.241 NA
HETATM    6  C6  UNL     1      25.892   2.994  50.805  1.00  0.00     0.236 A 
HETATM    7  N4  UNL     1      26.199   1.808  51.370  1.00  0.00    -0.224 NA
HETATM    8  C7  UNL     1      25.289   1.088  52.046  1.00  0.00     0.141 A 
HETATM    9  C13 UNL     1      23.990   1.519  52.199  1.00  0.00     0.041 A 
HETATM   10  C14 UNL     1      23.076   0.781  52.885  1.00  0.00     0.047 A 
ENDROOT
BRANCH   8  11
HETATM   11  N5  UNL     1      25.750  -0.140  52.588  1.00  0.00    -0.341 N 
HETATM   12  H7  UNL     1      25.327  -1.092  52.582  1.00  0.00     0.167 HD
BRANCH  11  13
HETATM   13  C8  UNL     1      26.992  -0.198  53.279  1.00  0.00     0.048 A 
HETATM   14  C9  UNL     1      27.913  -1.066  52.888  1.00  0.00     0.028 A 
HETATM   15  C10 UNL     1      29.092  -0.942  53.740  1.00  0.00     0.001 A 
HETATM   16  C11 UNL     1      28.848   0.007  54.629  1.00  0.00     0.016 A 
HETATM   17  C12 UNL     1      27.491   0.592  54.447  1.00  0.00     0.242 A 
HETATM   18  F1  UNL     1      26.658   0.334  55.504  1.00  0.00    -0.239 F 
ENDBRANCH  11  13
ENDBRANCH   8  11
BRANCH   1  19
HETATM   19  N2  UNL     1      20.788   0.590  53.681  1.00  0.00    -0.309 N 
HETATM   20  C1  UNL     1      19.853  -0.073  52.845  1.00  0.00     0.318 C 
HETATM   21  N1  UNL     1      18.826  -0.818  53.481  1.00  0.00    -0.352 N 
HETATM   22  O1  UNL     1      19.804  -0.094  51.589  1.00  0.00    -0.247 OA
HETATM   23  H1  UNL     1      18.649  -1.095  54.463  1.00  0.00     0.160 HD
HETATM   24  H2  UNL     1      18.000  -1.253  53.024  1.00  0.00     0.160 HD
HETATM   25  H3  UNL     1      20.703   0.517  54.720  1.00  0.00     0.170 HD
ENDBRANCH   1  19
TORSDOF 3
ENDMDL
MODEL 8
REMARK VINA RESULT:      -7.2      2.396      4.901
REMARK  3 active torsions:
REMARK  status: ('A' for Active; 'I' for Inactive)
REMARK       I    between atoms: N1_1  and  C1_2 
REMARK       I    between atoms: C1_2  and  N2_4 
REMARK    1  A    between atoms: N2_4  and  C2_5 
REMARK    2  A    between atoms: C7_12  and  N5_13 
REMARK    3  A    between atoms: N5_13  and  C8_14 
ROOT
HETATM    1  C2  UNL     1      26.312   2.478  52.621  1.00  0.00     0.037 A 
HETATM    2  C3  UNL     1      26.784   2.780  51.368  1.00  0.00     0.032 A 
HETATM    3  C4  UNL     1      25.917   2.875  50.303  1.00  0.00     0.035 A 
HETATM    4  C5  UNL     1      24.555   2.663  50.503  1.00  0.00     0.072 A 
HETATM    5  N3  UNL     1      23.737   2.764  49.439  1.00  0.00    -0.241 NA
HETATM    6  C6  UNL     1      22.420   2.563  49.613  1.00  0.00     0.236 A 
HETATM    7  N4  UNL     1      21.960   2.266  50.846  1.00  0.00    -0.224 NA
HETATM    8  C7  UNL     1      22.781   2.166  51.904  1.00  0.00     0.141 A 
HETATM    9  C13 UNL     1      24.140   2.362  51.790  1.00  0.00     0.041 A 
HETATM   10  C14 UNL     1      24.962   2.259  52.869  1.00  0.00     0.047 A 
ENDROOT
BRANCH   8  11
HETATM   11  N5  UNL     1      22.161   1.849  53.140  1.00  0.00    -0.341 N 
HETATM   12  H7  UNL     1      21.835   2.460  53.918  1.00  0.00     0.167 HD
BRANCH  11  13
HETATM   13  C8  UNL     1      21.890   0.495  53.480  1.00  0.00     0.048 A 
HETATM   14  C9  UNL     1      20.703   0.174  53.973  1.00  0.00     0.028 A 
HETATM   15  C10 UNL     1      20.660  -1.260  54.244  1.00  0.00     0.001 A 
HETATM   16  C11 UNL     1      21.832  -1.770  53.903  1.00  0.00     0.016 A 
HETATM   17  C12 UNL     1      22.753  -0.723  53.380  1.00  0.00     0.242 A 
HETATM   18  F1  UNL     1      23.841  -0.524  54.190  1.00  0.00    -0.239 F 
ENDBRANCH  11  13
ENDBRANCH   8  11
BRANCH   1  19
HETATM   19  N2  UNL     1      27.233   2.384  53.724  1.00  0.00    -0.309 N 
HETATM   20  C1  UNL     1      27.795   1.093  53.905  1.00  0.00     0.318 C 
HETATM   21  N1  UNL     1      28.711   0.926  54.975  1.00  0.00    -0.352 N 
HETATM   22  O1  UNL     1      27.589   0.050  53.234  1.00  0.00    -0.247 OA
HETATM   23  H1  UNL     1      29.174   1.584  55.627  1.00  0.00     0.160 HD
HETATM   24  H2  UNL     1      29.111   0.030  55.317  1.00  0.00     0.160 HD
HETATM   25  H3  UNL     1      27.500   3.163  54.367  1.00  0.00     0.170 HD
ENDBRANCH   1  19
TORSDOF 3
ENDMDL
MODEL 9
REMARK VINA RESULT:      -7.2      3.022      5.735
REMARK  3 active torsions:
REMARK  status: ('A' for Active; 'I' for Inactive)
REMARK       I    between atoms: N1_1  and  C1_2 
REMARK       I    between atoms: C1_2  and  N2_4 
REMARK    1  A    between atoms: N2_4  and  C2_5 
REMARK    2  A    between atoms: C7_12  and  N5_13 
REMARK    3  A    between atoms: N5_13  and  C8_14 
ROOT
HETATM    1  C2  UNL     1      24.919   0.394  53.047  1.00  0.00     0.037 A 
HETATM    2  C3  UNL     1      23.861  -0.464  53.213  1.00  0.00     0.032 A 
HETATM    3  C4  UNL     1      22.568  -0.005  53.098  1.00  0.00     0.035 A 
HETATM    4  C5  UNL     1      22.338   1.339  52.811  1.00  0.00     0.072 A 
HETATM    5  N3  UNL     1      21.062   1.752  52.705  1.00  0.00    -0.241 NA
HETATM    6  C6  UNL     1      20.821   3.045  52.429  1.00  0.00     0.236 A 
HETATM    7  N4  UNL     1      21.863   3.886  52.266  1.00  0.00    -0.224 NA
HETATM    8  C7  UNL     1      23.135   3.466  52.374  1.00  0.00     0.141 A 
HETATM    9  C13 UNL     1      23.446   2.155  52.655  1.00  0.00     0.041 A 
HETATM   10  C14 UNL     1      24.738   1.742  52.760  1.00  0.00     0.047 A 
ENDROOT
BRANCH   8  11
HETATM   11  N5  UNL     1      24.131   4.459  52.178  1.00  0.00    -0.341 N 
HETATM   12  H7  UNL     1      24.739   4.960  52.859  1.00  0.00     0.167 HD
BRANCH  11  13
HETATM   13  C8  UNL     1      24.434   4.923  50.869  1.00  0.00     0.048 A 
HETATM   14  C9  UNL     1      25.511   4.463  50.249  1.00  0.00     0.028 A 
HETATM   15  C10 UNL     1      25.613   5.079  48.929  1.00  0.00     0.001 A 
HETATM   16  C11 UNL     1      24.586   5.900  48.787  1.00  0.00     0.016 A 
HETATM   17  C12 UNL     1      23.716   5.903  49.996  1.00  0.00     0.242 A 
HETATM   18  F1  UNL     1      23.717   7.110  50.645  1.00  0.00    -0.239 F 
ENDBRANCH  11  13
ENDBRANCH   8  11
BRANCH   1  19
HETATM   19  N2  UNL     1      26.265  -0.104  53.171  1.00  0.00    -0.309 N 
HETATM   20  C1  UNL     1      26.859   0.133  54.437  1.00  0.00     0.318 C 
HETATM   21  N1  UNL     1      28.186  -0.330  54.630  1.00  0.00    -0.352 N 
HETATM   22  O1  UNL     1      26.363   0.711  55.438  1.00  0.00    -0.247 OA
HETATM   23  H1  UNL     1      28.822  -0.926  54.071  1.00  0.00     0.160 HD
HETATM   24  H2  UNL     1      28.803  -0.130  55.443  1.00  0.00     0.160 HD
HETATM   25  H3  UNL     1      26.803  -0.602  52.426  1.00  0.00     0.170 HD
ENDBRANCH   1  19
TORSDOF 3
ENDMDL
