MODEL 1
REMARK VINA RESULT:      -8.8      0.000      0.000
REMARK  6 active torsions:
REMARK  status: ('A' for Active; 'I' for Inactive)
REMARK    1  A    between atoms: C1_2  and  C2_3 
REMARK       I    between atoms: C1_2  and  N1_7 
REMARK    2  A    between atoms: C3_4  and  C4_5 
REMARK    3  A    between atoms: C4_5  and  O2_6 
REMARK    4  A    between atoms: N1_7  and  C5_8 
REMARK    5  A    between atoms: C10_15  and  N4_16 
REMARK    6  A    between atoms: N4_16  and  C11_17 
ROOT
HETATM    1  C5  UNL     1      24.288   3.631  49.765  1.00  0.00     0.036 A 
HETATM    2  C6  UNL     1      23.302   3.465  48.831  1.00  0.00     0.032 A 
HETATM    3  C7  UNL     1      22.346   2.500  49.072  1.00  0.00     0.035 A 
HETATM    4  C8  UNL     1      22.398   1.739  50.220  1.00  0.00     0.072 A 
HETATM    5  N2  UNL     1      21.431   0.813  50.393  1.00  0.00    -0.241 NA
HETATM    6  C9  UNL     1      21.392   0.020  51.479  1.00  0.00     0.236 A 
HETATM    7  N3  UNL     1      22.364   0.199  52.378  1.00  0.00    -0.224 NA
HETATM    8  C10 UNL     1      23.365   1.082  52.305  1.00  0.00     0.142 A 
HETATM    9  C17 UNL     1      23.371   1.874  51.183  1.00  0.00     0.041 A 
HETATM   10  C18 UNL     1      24.296   2.848  50.892  1.00  0.00     0.047 A 
ENDROOT
BRANCH   8  11
HETATM   11  N4  UNL     1      24.390   1.265  53.262  1.00  0.00    -0.340 N 
HETATM   12  H8  UNL     1      24.265   1.861  54.092  1.00  0.00     0.167 HD
BRANCH  11  13
HETATM   13  C11 UNL     1      25.697   0.725  53.299  1.00  0.00     0.035 A 
HETATM   14  C12 UNL     1      26.063  -0.550  52.874  1.00  0.00     0.031 A 
HETATM   15  C13 UNL     1      27.345  -1.035  52.927  1.00  0.00     0.028 A 
HETATM   16  C14 UNL     1      28.371  -0.262  53.419  1.00  0.00     0.055 A 
HETATM   17 CL1  UNL     1      29.947  -0.979  53.437  1.00  0.00    -0.083 Cl
HETATM   18  C15 UNL     1      28.059   1.007  53.852  1.00  0.00     0.058 A 
HETATM   19 CL2  UNL     1      29.399   1.939  54.465  1.00  0.00    -0.082 Cl
HETATM   20  C16 UNL     1      26.761   1.448  53.780  1.00  0.00     0.055 A 
ENDBRANCH  11  13
ENDBRANCH   8  11
BRANCH   1  21
HETATM   21  N1  UNL     1      25.276   4.625  49.519  1.00  0.00    -0.316 N 
HETATM   22  C1  UNL     1      24.935   5.846  50.158  1.00  0.00     0.301 C 
HETATM   23  O1  UNL     1      23.880   6.009  50.853  1.00  0.00    -0.258 OA
HETATM   24  H4  UNL     1      26.164   4.578  48.965  1.00  0.00     0.170 HD
BRANCH  22  25
HETATM   25  C2  UNL     1      25.769   7.037  50.074  1.00  0.00    -0.003 C 
HETATM   26  C3  UNL     1      26.474   8.018  50.007  1.00  0.00    -0.071 C 
BRANCH  26  27
HETATM   27  C4  UNL     1      27.336   9.200  49.933  1.00  0.00     0.258 C 
BRANCH  27  28
HETATM   28  O2  UNL     1      27.651   9.531  51.254  1.00  0.00    -0.389 OA
HETATM   29  H3  UNL     1      28.270  10.296  51.316  1.00  0.00     0.210 HD
ENDBRANCH  27  28
ENDBRANCH  26  27
ENDBRANCH  22  25
ENDBRANCH   1  21
TORSDOF 6
ENDMDL
MODEL 2
REMARK VINA RESULT:      -8.6      3.898      7.812
REMARK  6 active torsions:
REMARK  status: ('A' for Active; 'I' for Inactive)
REMARK    1  A    between atoms: C1_2  and  C2_3 
REMARK       I    between atoms: C1_2  and  N1_7 
REMARK    2  A    between atoms: C3_4  and  C4_5 
REMARK    3  A    between atoms: C4_5  and  O2_6 
REMARK    4  A    between atoms: N1_7  and  C5_8 
REMARK    5  A    between atoms: C10_15  and  N4_16 
REMARK    6  A    between atoms: N4_16  and  C11_17 
ROOT
HETATM    1  C5  UNL     1      24.336  -0.322  53.499  1.00  0.00     0.036 A 
HETATM    2  C6  UNL     1      24.908  -0.594  54.712  1.00  0.00     0.032 A 
HETATM    3  C7  UNL     1      26.129  -0.015  54.989  1.00  0.00     0.035 A 
HETATM    4  C8  UNL     1      26.738   0.806  54.065  1.00  0.00     0.072 A 
HETATM    5  N2  UNL     1      27.932   1.338  54.401  1.00  0.00    -0.241 NA
HETATM    6  C9  UNL     1      28.607   2.152  53.569  1.00  0.00     0.236 A 
HETATM    7  N3  UNL     1      28.031   2.404  52.390  1.00  0.00    -0.224 NA
HETATM    8  C10 UNL     1      26.858   1.931  51.959  1.00  0.00     0.142 A 
HETATM    9  C17 UNL     1      26.198   1.104  52.835  1.00  0.00     0.041 A 
HETATM   10  C18 UNL     1      24.983   0.502  52.611  1.00  0.00     0.047 A 
ENDROOT
BRANCH   8  11
HETATM   11  N4  UNL     1      26.256   2.203  50.708  1.00  0.00    -0.340 N 
HETATM   12  H8  UNL     1      25.907   1.454  50.094  1.00  0.00     0.167 HD
BRANCH  11  13
HETATM   13  C11 UNL     1      26.014   3.443  50.074  1.00  0.00     0.035 A 
HETATM   14  C12 UNL     1      24.788   4.100  50.010  1.00  0.00     0.031 A 
HETATM   15  C13 UNL     1      24.597   5.305  49.384  1.00  0.00     0.028 A 
HETATM   16  C14 UNL     1      25.642   5.951  48.765  1.00  0.00     0.055 A 
HETATM   17 CL1  UNL     1      25.284   7.466  48.008  1.00  0.00    -0.083 Cl
HETATM   18  C15 UNL     1      26.876   5.341  48.801  1.00  0.00     0.058 A 
HETATM   19 CL2  UNL     1      28.162   6.206  48.001  1.00  0.00    -0.082 Cl
HETATM   20  C16 UNL     1      27.018   4.135  49.440  1.00  0.00     0.055 A 
ENDBRANCH  11  13
ENDBRANCH   8  11
BRANCH   1  21
HETATM   21  N1  UNL     1      23.077  -0.917  53.208  1.00  0.00    -0.316 N 
HETATM   22  C1  UNL     1      22.026   0.027  53.352  1.00  0.00     0.301 C 
HETATM   23  O1  UNL     1      22.209   1.241  53.696  1.00  0.00    -0.258 OA
HETATM   24  H4  UNL     1      22.838  -1.896  52.922  1.00  0.00     0.170 HD
BRANCH  22  25
HETATM   25  C2  UNL     1      20.629  -0.309  53.117  1.00  0.00    -0.003 C 
HETATM   26  C3  UNL     1      19.467  -0.591  52.936  1.00  0.00    -0.071 C 
BRANCH  26  27
HETATM   27  C4  UNL     1      18.059  -0.940  52.727  1.00  0.00     0.258 C 
BRANCH  27  28
HETATM   28  O2  UNL     1      17.550  -1.260  53.989  1.00  0.00    -0.389 OA
HETATM   29  H3  UNL     1      17.382  -2.226  54.097  1.00  0.00     0.210 HD
ENDBRANCH  27  28
ENDBRANCH  26  27
ENDBRANCH  22  25
ENDBRANCH   1  21
TORSDOF 6
ENDMDL
MODEL 3
REMARK VINA RESULT:      -8.3      2.084      2.424
REMARK  6 active torsions:
REMARK  status: ('A' for Active; 'I' for Inactive)
REMARK    1  A    between atoms: C1_2  and  C2_3 
REMARK       I    between atoms: C1_2  and  N1_7 
REMARK    2  A    between atoms: C3_4  and  C4_5 
REMARK    3  A    between atoms: C4_5  and  O2_6 
REMARK    4  A    between atoms: N1_7  and  C5_8 
REMARK    5  A    between atoms: C10_15  and  N4_16 
REMARK    6  A    between atoms: N4_16  and  C11_17 
ROOT
HETATM    1  C5  UNL     1      24.089   3.428  49.663  1.00  0.00     0.036 A 
HETATM    2  C6  UNL     1      23.061   3.119  48.815  1.00  0.00     0.032 A 
HETATM    3  C7  UNL     1      22.170   2.145  49.215  1.00  0.00     0.035 A 
HETATM    4  C8  UNL     1      22.326   1.515  50.431  1.00  0.00     0.072 A 
HETATM    5  N2  UNL     1      21.418   0.572  50.761  1.00  0.00    -0.241 NA
HETATM    6  C9  UNL     1      21.481  -0.100  51.925  1.00  0.00     0.236 A 
HETATM    7  N3  UNL     1      22.493   0.218  52.738  1.00  0.00    -0.224 NA
HETATM    8  C10 UNL     1      23.442   1.131  52.510  1.00  0.00     0.142 A 
HETATM    9  C17 UNL     1      23.344   1.796  51.313  1.00  0.00     0.041 A 
HETATM   10  C18 UNL     1      24.201   2.773  50.863  1.00  0.00     0.047 A 
ENDROOT
BRANCH   8  11
HETATM   11  N4  UNL     1      24.510   1.461  53.377  1.00  0.00    -0.340 N 
HETATM   12  H8  UNL     1      24.420   2.180  54.108  1.00  0.00     0.167 HD
BRANCH  11  13
HETATM   13  C11 UNL     1      25.820   0.931  53.437  1.00  0.00     0.035 A 
HETATM   14  C12 UNL     1      26.958   1.619  53.851  1.00  0.00     0.031 A 
HETATM   15  C13 UNL     1      28.212   1.066  53.895  1.00  0.00     0.028 A 
HETATM   16  C14 UNL     1      28.420  -0.241  53.519  1.00  0.00     0.055 A 
HETATM   17 CL1  UNL     1      30.045  -0.831  53.616  1.00  0.00    -0.083 Cl
HETATM   18  C15 UNL     1      27.325  -0.963  53.101  1.00  0.00     0.058 A 
HETATM   19 CL2  UNL     1      27.649  -2.612  52.637  1.00  0.00    -0.082 Cl
HETATM   20  C16 UNL     1      26.089  -0.366  53.074  1.00  0.00     0.055 A 
ENDBRANCH  11  13
ENDBRANCH   8  11
BRANCH   1  21
HETATM   21  N1  UNL     1      25.010   4.432  49.253  1.00  0.00    -0.316 N 
HETATM   22  C1  UNL     1      26.329   3.909  49.182  1.00  0.00     0.301 C 
HETATM   23  O1  UNL     1      26.625   2.699  49.453  1.00  0.00    -0.258 OA
HETATM   24  H4  UNL     1      24.856   5.440  49.013  1.00  0.00     0.170 HD
BRANCH  22  25
HETATM   25  C2  UNL     1      27.475   4.716  48.789  1.00  0.00    -0.003 C 
HETATM   26  C3  UNL     1      28.435   5.379  48.471  1.00  0.00    -0.071 C 
BRANCH  26  27
HETATM   27  C4  UNL     1      29.604   6.180  48.097  1.00  0.00     0.258 C 
BRANCH  27  28
HETATM   28  O2  UNL     1      30.722   5.409  48.428  1.00  0.00    -0.389 OA
HETATM   29  H3  UNL     1      31.459   5.947  48.802  1.00  0.00     0.210 HD
ENDBRANCH  27  28
ENDBRANCH  26  27
ENDBRANCH  22  25
ENDBRANCH   1  21
TORSDOF 6
ENDMDL
MODEL 4
REMARK VINA RESULT:      -8.1      4.024      4.424
REMARK  6 active torsions:
REMARK  status: ('A' for Active; 'I' for Inactive)
REMARK    1  A    between atoms: C1_2  and  C2_3 
REMARK       I    between atoms: C1_2  and  N1_7 
REMARK    2  A    between atoms: C3_4  and  C4_5 
REMARK    3  A    between atoms: C4_5  and  O2_6 
REMARK    4  A    between atoms: N1_7  and  C5_8 
REMARK    5  A    between atoms: C10_15  and  N4_16 
REMARK    6  A    between atoms: N4_16  and  C11_17 
ROOT
HETATM    1  C5  UNL     1      21.017   1.733  50.866  1.00  0.00     0.036 A 
HETATM    2  C6  UNL     1      19.839   1.079  51.101  1.00  0.00     0.032 A 
HETATM    3  C7  UNL     1      19.821   0.129  52.101  1.00  0.00     0.035 A 
HETATM    4  C8  UNL     1      20.961  -0.140  52.828  1.00  0.00     0.072 A 
HETATM    5  N2  UNL     1      20.874  -1.081  53.791  1.00  0.00    -0.241 NA
HETATM    6  C9  UNL     1      21.929  -1.416  54.556  1.00  0.00     0.236 A 
HETATM    7  N3  UNL     1      23.069  -0.765  54.309  1.00  0.00    -0.224 NA
HETATM    8  C10 UNL     1      23.264   0.179  53.384  1.00  0.00     0.142 A 
HETATM    9  C17 UNL     1      22.165   0.495  52.624  1.00  0.00     0.041 A 
HETATM   10  C18 UNL     1      22.125   1.430  51.617  1.00  0.00     0.047 A 
ENDROOT
BRANCH   8  11
HETATM   11  N4  UNL     1      24.476   0.864  53.130  1.00  0.00    -0.340 N 
HETATM   12  H8  UNL     1      24.496   1.844  52.817  1.00  0.00     0.167 HD
BRANCH  11  13
HETATM   13  C11 UNL     1      25.810   0.406  53.236  1.00  0.00     0.035 A 
HETATM   14  C12 UNL     1      26.276  -0.845  52.841  1.00  0.00     0.031 A 
HETATM   15  C13 UNL     1      27.581  -1.248  52.961  1.00  0.00     0.028 A 
HETATM   16  C14 UNL     1      28.531  -0.410  53.497  1.00  0.00     0.055 A 
HETATM   17 CL1  UNL     1      30.146  -1.027  53.599  1.00  0.00    -0.083 Cl
HETATM   18  C15 UNL     1      28.119   0.839  53.904  1.00  0.00     0.058 A 
HETATM   19 CL2  UNL     1      29.366   1.856  54.575  1.00  0.00    -0.082 Cl
HETATM   20  C16 UNL     1      26.802   1.197  53.763  1.00  0.00     0.055 A 
ENDBRANCH  11  13
ENDBRANCH   8  11
BRANCH   1  21
HETATM   21  N1  UNL     1      21.040   2.713  49.835  1.00  0.00    -0.316 N 
HETATM   22  C1  UNL     1      21.446   2.140  48.601  1.00  0.00     0.301 C 
HETATM   23  O1  UNL     1      21.746   0.910  48.458  1.00  0.00    -0.258 OA
HETATM   24  H4  UNL     1      20.812   3.736  49.864  1.00  0.00     0.170 HD
BRANCH  22  25
HETATM   25  C2  UNL     1      21.559   2.915  47.373  1.00  0.00    -0.003 C 
HETATM   26  C3  UNL     1      21.660   3.568  46.361  1.00  0.00    -0.071 C 
BRANCH  26  27
HETATM   27  C4  UNL     1      21.784   4.371  45.141  1.00  0.00     0.258 C 
BRANCH  27  28
HETATM   28  O2  UNL     1      21.247   3.594  44.111  1.00  0.00    -0.389 OA
HETATM   29  H3  UNL     1      20.589   4.087  43.566  1.00  0.00     0.210 HD
ENDBRANCH  27  28
ENDBRANCH  26  27
ENDBRANCH  22  25
ENDBRANCH   1  21
TORSDOF 6
ENDMDL
MODEL 5
REMARK VINA RESULT:      -8.1      3.967      7.395
REMARK  6 active torsions:
REMARK  status: ('A' for Active; 'I' for Inactive)
REMARK    1  A    between atoms: C1_2  and  C2_3 
REMARK       I    between atoms: C1_2  and  N1_7 
REMARK    2  A    between atoms: C3_4  and  C4_5 
REMARK    3  A    between atoms: C4_5  and  O2_6 
REMARK    4  A    between atoms: N1_7  and  C5_8 
REMARK    5  A    between atoms: C10_15  and  N4_16 
REMARK    6  A    between atoms: N4_16  and  C11_17 
ROOT
HETATM    1  C5  UNL     1      25.105   2.042  51.868  1.00  0.00     0.036 A 
HETATM    2  C6  UNL     1      24.132   2.281  52.800  1.00  0.00     0.032 A 
HETATM    3  C7  UNL     1      23.474   3.492  52.746  1.00  0.00     0.035 A 
HETATM    4  C8  UNL     1      23.798   4.419  51.779  1.00  0.00     0.072 A 
HETATM    5  N2  UNL     1      23.115   5.583  51.783  1.00  0.00    -0.241 NA
HETATM    6  C9  UNL     1      23.355   6.552  50.881  1.00  0.00     0.236 A 
HETATM    7  N3  UNL     1      24.309   6.299  49.980  1.00  0.00    -0.224 NA
HETATM    8  C10 UNL     1      25.042   5.186  49.887  1.00  0.00     0.142 A 
HETATM    9  C17 UNL     1      24.768   4.220  50.823  1.00  0.00     0.041 A 
HETATM   10  C18 UNL     1      25.391   2.998  50.924  1.00  0.00     0.047 A 
ENDROOT
BRANCH   8  11
HETATM   11  N4  UNL     1      26.050   4.926  48.929  1.00  0.00    -0.340 N 
HETATM   12  H8  UNL     1      26.047   4.077  48.347  1.00  0.00     0.167 HD
BRANCH  11  13
HETATM   13  C11 UNL     1      27.184   5.697  48.581  1.00  0.00     0.035 A 
HETATM   14  C12 UNL     1      27.205   7.076  48.393  1.00  0.00     0.031 A 
HETATM   15  C13 UNL     1      28.329   7.785  48.057  1.00  0.00     0.028 A 
HETATM   16  C14 UNL     1      29.537   7.150  47.880  1.00  0.00     0.055 A 
HETATM   17 CL1  UNL     1      30.887   8.148  47.457  1.00  0.00    -0.083 Cl
HETATM   18  C15 UNL     1      29.568   5.785  48.055  1.00  0.00     0.058 A 
HETATM   19 CL2  UNL     1      31.124   5.035  47.819  1.00  0.00    -0.082 Cl
HETATM   20  C16 UNL     1      28.416   5.119  48.392  1.00  0.00     0.055 A 
ENDBRANCH  11  13
ENDBRANCH   8  11
BRANCH   1  21
HETATM   21  N1  UNL     1      25.787   0.795  51.921  1.00  0.00    -0.316 N 
HETATM   22  C1  UNL     1      26.925   0.876  52.766  1.00  0.00     0.301 C 
HETATM   23  O1  UNL     1      27.271   1.936  53.385  1.00  0.00    -0.258 OA
HETATM   24  H4  UNL     1      25.575  -0.116  51.449  1.00  0.00     0.170 HD
BRANCH  22  25
HETATM   25  C2  UNL     1      27.810  -0.255  53.005  1.00  0.00    -0.003 C 
HETATM   26  C3  UNL     1      28.548  -1.195  53.189  1.00  0.00    -0.071 C 
BRANCH  26  27
HETATM   27  C4  UNL     1      29.442  -2.337  53.400  1.00  0.00     0.258 C 
BRANCH  27  28
HETATM   28  O2  UNL     1      28.624  -3.469  53.414  1.00  0.00    -0.389 OA
HETATM   29  H3  UNL     1      28.478  -3.844  52.513  1.00  0.00     0.210 HD
ENDBRANCH  27  28
ENDBRANCH  26  27
ENDBRANCH  22  25
ENDBRANCH   1  21
TORSDOF 6
ENDMDL
MODEL 6
REMARK VINA RESULT:      -7.9      3.886      6.833
REMARK  6 active torsions:
REMARK  status: ('A' for Active; 'I' for Inactive)
REMARK    1  A    between atoms: C1_2  and  C2_3 
REMARK       I    between atoms: C1_2  and  N1_7 
REMARK    2  A    between atoms: C3_4  and  C4_5 
REMARK    3  A    between atoms: C4_5  and  O2_6 
REMARK    4  A    between atoms: N1_7  and  C5_8 
REMARK    5  A    between atoms: C10_15  and  N4_16 
REMARK    6  A    between atoms: N4_16  and  C11_17 
ROOT
HETATM    1  C5  UNL     1      23.371   0.479  53.189  1.00  0.00     0.036 A 
HETATM    2  C6  UNL     1      22.153  -0.141  53.122  1.00  0.00     0.032 A 
HETATM    3  C7  UNL     1      21.071   0.612  52.717  1.00  0.00     0.035 A 
HETATM    4  C8  UNL     1      21.229   1.943  52.394  1.00  0.00     0.072 A 
HETATM    5  N2  UNL     1      20.128   2.621  52.006  1.00  0.00    -0.241 NA
HETATM    6  C9  UNL     1      20.177   3.923  51.670  1.00  0.00     0.236 A 
HETATM    7  N3  UNL     1      21.376   4.509  51.742  1.00  0.00    -0.224 NA
HETATM    8  C10 UNL     1      22.523   3.933  52.113  1.00  0.00     0.142 A 
HETATM    9  C17 UNL     1      22.434   2.605  52.448  1.00  0.00     0.041 A 
HETATM   10  C18 UNL     1      23.477   1.807  52.858  1.00  0.00     0.047 A 
ENDROOT
BRANCH   8  11
HETATM   11  N4  UNL     1      23.788   4.561  52.187  1.00  0.00    -0.340 N 
HETATM   12  H8  UNL     1      24.294   4.671  53.077  1.00  0.00     0.167 HD
BRANCH  11  13
HETATM   13  C11 UNL     1      24.576   5.128  51.158  1.00  0.00     0.035 A 
HETATM   14  C12 UNL     1      25.320   4.421  50.218  1.00  0.00     0.031 A 
HETATM   15  C13 UNL     1      26.070   5.011  49.234  1.00  0.00     0.028 A 
HETATM   16  C14 UNL     1      26.131   6.380  49.120  1.00  0.00     0.055 A 
HETATM   17 CL1  UNL     1      27.110   7.014  47.840  1.00  0.00    -0.083 Cl
HETATM   18  C15 UNL     1      25.412   7.126  50.027  1.00  0.00     0.058 A 
HETATM   19 CL2  UNL     1      25.526   8.855  49.834  1.00  0.00    -0.082 Cl
HETATM   20  C16 UNL     1      24.675   6.489  50.995  1.00  0.00     0.055 A 
ENDBRANCH  11  13
ENDBRANCH   8  11
BRANCH   1  21
HETATM   21  N1  UNL     1      24.489  -0.294  53.607  1.00  0.00    -0.316 N 
HETATM   22  C1  UNL     1      25.596  -0.093  52.740  1.00  0.00     0.301 C 
HETATM   23  O1  UNL     1      25.569   0.682  51.728  1.00  0.00    -0.258 OA
HETATM   24  H4  UNL     1      24.598  -0.951  54.416  1.00  0.00     0.170 HD
BRANCH  22  25
HETATM   25  C2  UNL     1      26.875  -0.761  52.930  1.00  0.00    -0.003 C 
HETATM   26  C3  UNL     1      27.931  -1.328  53.091  1.00  0.00    -0.071 C 
BRANCH  26  27
HETATM   27  C4  UNL     1      29.205  -2.023  53.296  1.00  0.00     0.258 C 
BRANCH  27  28
HETATM   28  O2  UNL     1      28.884  -3.370  53.484  1.00  0.00    -0.389 OA
HETATM   29  H3  UNL     1      27.934  -3.506  53.712  1.00  0.00     0.210 HD
ENDBRANCH  27  28
ENDBRANCH  26  27
ENDBRANCH  22  25
ENDBRANCH   1  21
TORSDOF 6
ENDMDL
MODEL 7
REMARK VINA RESULT:      -7.7      5.005      7.909
REMARK  6 active torsions:
REMARK  status: ('A' for Active; 'I' for Inactive)
REMARK    1  A    between atoms: C1_2  and  C2_3 
REMARK       I    between atoms: C1_2  and  N1_7 
REMARK    2  A    between atoms: C3_4  and  C4_5 
REMARK    3  A    between atoms: C4_5  and  O2_6 
REMARK    4  A    between atoms: N1_7  and  C5_8 
REMARK    5  A    between atoms: C10_15  and  N4_16 
REMARK    6  A    between atoms: N4_16  and  C11_17 
ROOT
HETATM    1  C5  UNL     1      24.178   1.898  52.979  1.00  0.00     0.036 A 
HETATM    2  C6  UNL     1      24.575   3.167  53.302  1.00  0.00     0.032 A 
HETATM    3  C7  UNL     1      23.786   4.214  52.876  1.00  0.00     0.035 A 
HETATM    4  C8  UNL     1      22.640   3.973  52.149  1.00  0.00     0.072 A 
HETATM    5  N2  UNL     1      21.915   5.044  51.764  1.00  0.00    -0.241 NA
HETATM    6  C9  UNL     1      20.780   4.915  51.052  1.00  0.00     0.236 A 
HETATM    7  N3  UNL     1      20.411   3.668  50.747  1.00  0.00    -0.224 NA
HETATM    8  C10 UNL     1      21.052   2.543  51.077  1.00  0.00     0.142 A 
HETATM    9  C17 UNL     1      22.205   2.714  51.803  1.00  0.00     0.041 A 
HETATM   10  C18 UNL     1      23.028   1.710  52.254  1.00  0.00     0.047 A 
ENDROOT
BRANCH   8  11
HETATM   11  N4  UNL     1      20.654   1.226  50.750  1.00  0.00    -0.340 N 
HETATM   12  H8  UNL     1      21.291   0.559  50.293  1.00  0.00     0.167 HD
BRANCH  11  13
HETATM   13  C11 UNL     1      19.411   0.582  50.954  1.00  0.00     0.035 A 
HETATM   14  C12 UNL     1      18.305   0.661  50.112  1.00  0.00     0.031 A 
HETATM   15  C13 UNL     1      17.117   0.018  50.348  1.00  0.00     0.028 A 
HETATM   16  C14 UNL     1      16.949  -0.764  51.467  1.00  0.00     0.055 A 
HETATM   17 CL1  UNL     1      15.406  -1.526  51.660  1.00  0.00    -0.083 Cl
HETATM   18  C15 UNL     1      18.014  -0.873  52.332  1.00  0.00     0.058 A 
HETATM   19 CL2  UNL     1      17.743  -1.877  53.731  1.00  0.00    -0.082 Cl
HETATM   20  C16 UNL     1      19.184  -0.211  52.053  1.00  0.00     0.055 A 
ENDBRANCH  11  13
ENDBRANCH   8  11
BRANCH   1  21
HETATM   21  N1  UNL     1      24.990   0.815  53.417  1.00  0.00    -0.316 N 
HETATM   22  C1  UNL     1      26.157   0.701  52.615  1.00  0.00     0.301 C 
HETATM   23  O1  UNL     1      26.421   1.476  51.639  1.00  0.00    -0.258 OA
HETATM   24  H4  UNL     1      24.850   0.133  54.200  1.00  0.00     0.170 HD
BRANCH  22  25
HETATM   25  C2  UNL     1      27.167  -0.324  52.838  1.00  0.00    -0.003 C 
HETATM   26  C3  UNL     1      28.001  -1.182  53.011  1.00  0.00    -0.071 C 
BRANCH  26  27
HETATM   27  C4  UNL     1      29.004  -2.230  53.215  1.00  0.00     0.258 C 
BRANCH  27  28
HETATM   28  O2  UNL     1      28.378  -3.434  52.879  1.00  0.00    -0.389 OA
HETATM   29  H3  UNL     1      27.724  -3.724  53.558  1.00  0.00     0.210 HD
ENDBRANCH  27  28
ENDBRANCH  26  27
ENDBRANCH  22  25
ENDBRANCH   1  21
TORSDOF 6
ENDMDL
MODEL 8
REMARK VINA RESULT:      -7.4      2.482      2.727
REMARK  6 active torsions:
REMARK  status: ('A' for Active; 'I' for Inactive)
REMARK    1  A    between atoms: C1_2  and  C2_3 
REMARK       I    between atoms: C1_2  and  N1_7 
REMARK    2  A    between atoms: C3_4  and  C4_5 
REMARK    3  A    between atoms: C4_5  and  O2_6 
REMARK    4  A    between atoms: N1_7  and  C5_8 
REMARK    5  A    between atoms: C10_15  and  N4_16 
REMARK    6  A    between atoms: N4_16  and  C11_17 
ROOT
HETATM    1  C5  UNL     1      22.284   1.990  49.732  1.00  0.00     0.036 A 
HETATM    2  C6  UNL     1      21.077   1.368  49.567  1.00  0.00     0.032 A 
HETATM    3  C7  UNL     1      20.635   0.545  50.582  1.00  0.00     0.035 A 
HETATM    4  C8  UNL     1      21.398   0.365  51.716  1.00  0.00     0.072 A 
HETATM    5  N2  UNL     1      20.906  -0.454  52.669  1.00  0.00    -0.241 NA
HETATM    6  C9  UNL     1      21.572  -0.695  53.813  1.00  0.00     0.236 A 
HETATM    7  N3  UNL     1      22.749  -0.077  53.954  1.00  0.00    -0.224 NA
HETATM    8  C10 UNL     1      23.325   0.749  53.076  1.00  0.00     0.142 A 
HETATM    9  C17 UNL     1      22.616   0.971  51.922  1.00  0.00     0.041 A 
HETATM   10  C18 UNL     1      23.006   1.779  50.880  1.00  0.00     0.047 A 
ENDROOT
BRANCH   8  11
HETATM   11  N4  UNL     1      24.572   1.399  53.233  1.00  0.00    -0.340 N 
HETATM   12  H8  UNL     1      24.651   2.422  53.318  1.00  0.00     0.167 HD
BRANCH  11  13
HETATM   13  C11 UNL     1      25.873   0.849  53.305  1.00  0.00     0.035 A 
HETATM   14  C12 UNL     1      26.242  -0.427  52.889  1.00  0.00     0.031 A 
HETATM   15  C13 UNL     1      27.518  -0.922  52.975  1.00  0.00     0.028 A 
HETATM   16  C14 UNL     1      28.536  -0.158  53.497  1.00  0.00     0.055 A 
HETATM   17 CL1  UNL     1      30.106  -0.886  53.557  1.00  0.00    -0.083 Cl
HETATM   18  C15 UNL     1      28.221   1.113  53.924  1.00  0.00     0.058 A 
HETATM   19 CL2  UNL     1      29.551   2.034  54.575  1.00  0.00    -0.082 Cl
HETATM   20  C16 UNL     1      26.930   1.563  53.816  1.00  0.00     0.055 A 
ENDBRANCH  11  13
ENDBRANCH   8  11
BRANCH   1  21
HETATM   21  N1  UNL     1      22.744   2.840  48.688  1.00  0.00    -0.316 N 
HETATM   22  C1  UNL     1      22.431   4.197  48.966  1.00  0.00     0.301 C 
HETATM   23  O1  UNL     1      21.820   4.580  50.017  1.00  0.00    -0.258 OA
HETATM   24  H4  UNL     1      23.248   2.612  47.798  1.00  0.00     0.170 HD
BRANCH  22  25
HETATM   25  C2  UNL     1      22.784   5.285  48.065  1.00  0.00    -0.003 C 
HETATM   26  C3  UNL     1      23.063   6.193  47.316  1.00  0.00    -0.071 C 
BRANCH  26  27
HETATM   27  C4  UNL     1      23.389   7.292  46.403  1.00  0.00     0.258 C 
BRANCH  27  28
HETATM   28  O2  UNL     1      22.796   8.434  46.947  1.00  0.00    -0.389 OA
HETATM   29  H3  UNL     1      22.282   8.242  47.767  1.00  0.00     0.210 HD
ENDBRANCH  27  28
ENDBRANCH  26  27
ENDBRANCH  22  25
ENDBRANCH   1  21
TORSDOF 6
ENDMDL
MODEL 9
REMARK VINA RESULT:      -7.3      4.409      8.085
REMARK  6 active torsions:
REMARK  status: ('A' for Active; 'I' for Inactive)
REMARK    1  A    between atoms: C1_2  and  C2_3 
REMARK       I    between atoms: C1_2  and  N1_7 
REMARK    2  A    between atoms: C3_4  and  C4_5 
REMARK    3  A    between atoms: C4_5  and  O2_6 
REMARK    4  A    between atoms: N1_7  and  C5_8 
REMARK    5  A    between atoms: C10_15  and  N4_16 
REMARK    6  A    between atoms: N4_16  and  C11_17 
ROOT
HETATM    1  C5  UNL     1      22.614  -1.211  53.994  1.00  0.00     0.036 A 
HETATM    2  C6  UNL     1      23.024  -1.771  55.173  1.00  0.00     0.032 A 
HETATM    3  C7  UNL     1      24.282  -1.445  55.636  1.00  0.00     0.035 A 
HETATM    4  C8  UNL     1      25.085  -0.582  54.922  1.00  0.00     0.072 A 
HETATM    5  N2  UNL     1      26.304  -0.306  55.433  1.00  0.00    -0.241 NA
HETATM    6  C9  UNL     1      27.163   0.524  54.813  1.00  0.00     0.236 A 
HETATM    7  N3  UNL     1      26.743   1.060  53.663  1.00  0.00    -0.224 NA
HETATM    8  C10 UNL     1      25.562   0.855  53.072  1.00  0.00     0.142 A 
HETATM    9  C17 UNL     1      24.713   0.003  53.734  1.00  0.00     0.041 A 
HETATM   10  C18 UNL     1      23.452  -0.357  53.320  1.00  0.00     0.047 A 
ENDROOT
BRANCH   8  11
HETATM   11  N4  UNL     1      25.126   1.427  51.854  1.00  0.00    -0.340 N 
HETATM   12  H8  UNL     1      25.247   0.949  50.950  1.00  0.00     0.167 HD
BRANCH  11  13
HETATM   13  C11 UNL     1      24.485   2.665  51.617  1.00  0.00     0.035 A 
HETATM   14  C12 UNL     1      23.791   3.417  52.562  1.00  0.00     0.031 A 
HETATM   15  C13 UNL     1      23.184   4.616  52.290  1.00  0.00     0.028 A 
HETATM   16  C14 UNL     1      23.229   5.158  51.026  1.00  0.00     0.055 A 
HETATM   17 CL1  UNL     1      22.427   6.676  50.800  1.00  0.00    -0.083 Cl
HETATM   18  C15 UNL     1      23.904   4.452  50.056  1.00  0.00     0.058 A 
HETATM   19 CL2  UNL     1      23.929   5.187  48.476  1.00  0.00    -0.082 Cl
HETATM   20  C16 UNL     1      24.496   3.256  50.377  1.00  0.00     0.055 A 
ENDBRANCH  11  13
ENDBRANCH   8  11
BRANCH   1  21
HETATM   21  N1  UNL     1      21.318  -1.545  53.513  1.00  0.00    -0.316 N 
HETATM   22  C1  UNL     1      20.447  -0.426  53.585  1.00  0.00     0.301 C 
HETATM   23  O1  UNL     1      20.801   0.717  54.025  1.00  0.00    -0.258 OA
HETATM   24  H4  UNL     1      20.944  -2.449  53.138  1.00  0.00     0.170 HD
BRANCH  22  25
HETATM   25  C2  UNL     1      19.057  -0.482  53.158  1.00  0.00    -0.003 C 
HETATM   26  C3  UNL     1      17.905  -0.527  52.790  1.00  0.00    -0.071 C 
BRANCH  26  27
HETATM   27  C4  UNL     1      16.513  -0.571  52.334  1.00  0.00     0.258 C 
BRANCH  27  28
HETATM   28  O2  UNL     1      15.835  -1.387  53.244  1.00  0.00    -0.389 OA
HETATM   29  H3  UNL     1      15.049  -1.829  52.846  1.00  0.00     0.210 HD
ENDBRANCH  27  28
ENDBRANCH  26  27
ENDBRANCH  22  25
ENDBRANCH   1  21
TORSDOF 6
ENDMDL
