MODEL 1
REMARK VINA RESULT:      -8.2      0.000      0.000
REMARK  7 active torsions:
REMARK  status: ('A' for Active; 'I' for Inactive)
REMARK    1  A    between atoms: C4_5  and  C5_6 
REMARK    2  A    between atoms: C7_9  and  N3_10 
REMARK    3  A    between atoms: N3_10  and  C8_11 
REMARK    4  A    between atoms: C14_19  and  N4_20 
REMARK       I    between atoms: N4_20  and  C15_21 
REMARK    5  A    between atoms: C15_21  and  C16_23 
REMARK    6  A    between atoms: C16_23  and  C17_24 
REMARK    7  A    between atoms: C17_24  and  N5_25 
ROOT
HETATM    1  C5  UNL     1      21.696  -0.379  53.605  1.00  0.00     0.086 C 
HETATM    2  C6  UNL     1      22.870  -0.800  54.306  1.00  0.00     0.103 C 
HETATM    3  N2  UNL     1      23.810  -1.157  54.873  1.00  0.00    -0.191 NA
HETATM    4  C7  UNL     1      20.446  -0.573  53.969  1.00  0.00     0.113 C 
ENDROOT
BRANCH   1   5
HETATM    5  C4  UNL     1      21.846   0.341  52.349  1.00  0.00     0.073 C 
HETATM    6  N1  UNL     1      21.438   0.062  51.186  1.00  0.00    -0.290 NA
HETATM    7  C3  UNL     1      21.575   0.745  49.960  1.00  0.00     0.153 C 
HETATM    8  C2  UNL     1      21.465   2.229  50.101  1.00  0.00     0.004 C 
HETATM    9  C1  UNL     1      22.423   2.963  49.177  1.00  0.00     0.011 C 
HETATM   10  C22 UNL     1      21.705   2.639  51.521  1.00  0.00     0.037 C 
HETATM   11  C14 UNL     1      22.557   1.633  52.207  1.00  0.00     0.138 C 
BRANCH  11  12
HETATM   12  N4  UNL     1      23.916   1.535  51.791  1.00  0.00    -0.351 N 
HETATM   13  C15 UNL     1      24.924   2.147  52.552  1.00  0.00     0.219 C 
HETATM   14  O1  UNL     1      24.860   2.823  53.615  1.00  0.00    -0.274 OA
HETATM   15  H13 UNL     1      24.458   1.098  51.009  1.00  0.00     0.163 HD
BRANCH  13  16
HETATM   16  C16 UNL     1      26.422   2.250  52.429  1.00  0.00     0.133 C 
BRANCH  16  17
HETATM   17  C17 UNL     1      26.990   0.870  52.215  1.00  0.00     0.282 C 
BRANCH  17  18
HETATM   18  N5  UNL     1      26.687  -0.047  53.276  1.00  0.00     0.093 N 
HETATM   19  C18 UNL     1      27.227   0.438  54.526  1.00  0.00     0.298 C 
HETATM   20  C19 UNL     1      28.714   0.314  54.645  1.00  0.00     0.198 C 
HETATM   21  O2  UNL     1      29.329  -0.343  53.608  1.00  0.00    -0.388 OA
HETATM   22  C20 UNL     1      28.688  -1.472  53.161  1.00  0.00     0.198 C 
HETATM   23  C21 UNL     1      27.197  -1.373  53.081  1.00  0.00     0.298 C 
ENDBRANCH  17  18
ENDBRANCH  16  17
ENDBRANCH  13  16
ENDBRANCH  11  12
ENDBRANCH   1   5
BRANCH   4  24
HETATM   24  N3  UNL     1      19.450  -0.052  53.080  1.00  0.00    -0.364 N 
HETATM   25  H8  UNL     1      19.636   0.874  52.635  1.00  0.00     0.165 HD
BRANCH  24  26
HETATM   26  C8  UNL     1      18.236  -0.768  52.804  1.00  0.00     0.033 A 
HETATM   27  C9  UNL     1      17.256  -0.201  51.982  1.00  0.00     0.032 A 
HETATM   28  C10 UNL     1      16.171  -1.031  51.837  1.00  0.00     0.046 A 
HETATM   29  C11 UNL     1      15.975  -2.271  52.380  1.00  0.00     0.138 A 
HETATM   30  F1  UNL     1      14.866  -3.010  52.172  1.00  0.00    -0.204 F 
HETATM   31  C12 UNL     1      16.986  -2.789  53.192  1.00  0.00     0.074 A 
HETATM   32 CL1  UNL     1      16.882  -4.342  53.946  1.00  0.00    -0.081 Cl
HETATM   33  C13 UNL     1      18.097  -2.009  53.380  1.00  0.00     0.056 A 
ENDBRANCH  24  26
ENDBRANCH   4  24
TORSDOF 7
ENDMDL
MODEL 2
REMARK VINA RESULT:      -8.1      4.675      8.547
REMARK  7 active torsions:
REMARK  status: ('A' for Active; 'I' for Inactive)
REMARK    1  A    between atoms: C4_5  and  C5_6 
REMARK    2  A    between atoms: C7_9  and  N3_10 
REMARK    3  A    between atoms: N3_10  and  C8_11 
REMARK    4  A    between atoms: C14_19  and  N4_20 
REMARK       I    between atoms: N4_20  and  C15_21 
REMARK    5  A    between atoms: C15_21  and  C16_23 
REMARK    6  A    between atoms: C16_23  and  C17_24 
REMARK    7  A    between atoms: C17_24  and  N5_25 
ROOT
HETATM    1  C5  UNL     1      23.356   0.814  52.962  1.00  0.00     0.086 C 
HETATM    2  C6  UNL     1      22.081   0.186  53.130  1.00  0.00     0.103 C 
HETATM    3  N2  UNL     1      21.056  -0.323  53.284  1.00  0.00    -0.191 NA
HETATM    4  C7  UNL     1      24.516   0.379  53.406  1.00  0.00     0.113 C 
ENDROOT
BRANCH   1   5
HETATM    5  C4  UNL     1      23.430   2.071  52.232  1.00  0.00     0.073 C 
HETATM    6  N1  UNL     1      23.633   3.249  52.641  1.00  0.00    -0.290 NA
HETATM    7  C3  UNL     1      23.707   4.477  51.950  1.00  0.00     0.153 C 
HETATM    8  C2  UNL     1      24.395   4.365  50.628  1.00  0.00     0.004 C 
HETATM    9  C1  UNL     1      23.750   5.248  49.572  1.00  0.00     0.011 C 
HETATM   10  C22 UNL     1      24.411   2.941  50.166  1.00  0.00     0.037 C 
HETATM   11  C14 UNL     1      23.273   2.195  50.764  1.00  0.00     0.138 C 
BRANCH  11  12
HETATM   12  N4  UNL     1      21.963   2.537  50.321  1.00  0.00    -0.351 N 
HETATM   13  C15 UNL     1      21.542   2.165  49.035  1.00  0.00     0.219 C 
HETATM   14  O1  UNL     1      22.143   1.540  48.119  1.00  0.00    -0.274 OA
HETATM   15  H13 UNL     1      21.122   3.033  50.699  1.00  0.00     0.163 HD
BRANCH  13  16
HETATM   16  C16 UNL     1      20.270   2.345  48.249  1.00  0.00     0.133 C 
BRANCH  16  17
HETATM   17  C17 UNL     1      19.349   3.262  49.014  1.00  0.00     0.282 C 
BRANCH  17  18
HETATM   18  N5  UNL     1      18.084   2.667  49.336  1.00  0.00     0.093 N 
HETATM   19  C18 UNL     1      17.218   3.640  49.962  1.00  0.00     0.298 C 
HETATM   20  C19 UNL     1      17.587   3.976  51.374  1.00  0.00     0.198 C 
HETATM   21  O2  UNL     1      18.613   3.232  51.901  1.00  0.00    -0.388 OA
HETATM   22  C20 UNL     1      18.575   1.888  51.616  1.00  0.00     0.198 C 
HETATM   23  C21 UNL     1      18.164   1.541  50.220  1.00  0.00     0.298 C 
ENDBRANCH  17  18
ENDBRANCH  16  17
ENDBRANCH  13  16
ENDBRANCH  11  12
ENDBRANCH   1   5
BRANCH   4  24
HETATM   24  N3  UNL     1      25.648   1.204  53.104  1.00  0.00    -0.364 N 
HETATM   25  H8  UNL     1      25.463   2.160  52.728  1.00  0.00     0.165 HD
BRANCH  24  26
HETATM   26  C8  UNL     1      26.993   0.744  53.308  1.00  0.00     0.033 A 
HETATM   27  C9  UNL     1      27.994   1.643  53.690  1.00  0.00     0.032 A 
HETATM   28  C10 UNL     1      29.210   1.019  53.833  1.00  0.00     0.046 A 
HETATM   29  C11 UNL     1      29.511  -0.303  53.651  1.00  0.00     0.138 A 
HETATM   30  F1  UNL     1      30.746  -0.818  53.821  1.00  0.00    -0.204 F 
HETATM   31  C12 UNL     1      28.473  -1.156  53.270  1.00  0.00     0.074 A 
HETATM   32 CL1  UNL     1      28.698  -2.850  53.005  1.00  0.00    -0.081 Cl
HETATM   33  C13 UNL     1      27.232  -0.596  53.108  1.00  0.00     0.056 A 
ENDBRANCH  24  26
ENDBRANCH   4  24
TORSDOF 7
ENDMDL
MODEL 3
REMARK VINA RESULT:      -8.0      3.868      7.512
REMARK  7 active torsions:
REMARK  status: ('A' for Active; 'I' for Inactive)
REMARK    1  A    between atoms: C4_5  and  C5_6 
REMARK    2  A    between atoms: C7_9  and  N3_10 
REMARK    3  A    between atoms: N3_10  and  C8_11 
REMARK    4  A    between atoms: C14_19  and  N4_20 
REMARK       I    between atoms: N4_20  and  C15_21 
REMARK    5  A    between atoms: C15_21  and  C16_23 
REMARK    6  A    between atoms: C16_23  and  C17_24 
REMARK    7  A    between atoms: C17_24  and  N5_25 
ROOT
HETATM    1  C5  UNL     1      26.128   3.819  50.172  1.00  0.00     0.086 C 
HETATM    2  C6  UNL     1      27.113   4.279  49.243  1.00  0.00     0.103 C 
HETATM    3  N2  UNL     1      27.912   4.633  48.487  1.00  0.00    -0.191 NA
HETATM    4  C7  UNL     1      26.271   2.863  51.067  1.00  0.00     0.113 C 
ENDROOT
BRANCH   1   5
HETATM    5  C4  UNL     1      24.812   4.438  50.167  1.00  0.00     0.073 C 
HETATM    6  N1  UNL     1      24.332   5.359  50.887  1.00  0.00    -0.290 NA
HETATM    7  C3  UNL     1      23.061   5.969  50.897  1.00  0.00     0.153 C 
HETATM    8  C2  UNL     1      22.495   6.167  49.527  1.00  0.00     0.004 C 
HETATM    9  C1  UNL     1      20.994   5.933  49.491  1.00  0.00     0.011 C 
HETATM   10  C22 UNL     1      23.179   5.269  48.545  1.00  0.00     0.037 C 
HETATM   11  C14 UNL     1      23.719   4.070  49.237  1.00  0.00     0.138 C 
BRANCH  11  12
HETATM   12  N4  UNL     1      22.777   3.131  49.749  1.00  0.00    -0.351 N 
HETATM   13  C15 UNL     1      22.248   2.143  48.905  1.00  0.00     0.219 C 
HETATM   14  O1  UNL     1      22.454   1.904  47.684  1.00  0.00    -0.274 OA
HETATM   15  H13 UNL     1      22.307   2.924  50.660  1.00  0.00     0.163 HD
BRANCH  13  16
HETATM   16  C16 UNL     1      21.265   1.016  49.088  1.00  0.00     0.133 C 
BRANCH  16  17
HETATM   17  C17 UNL     1      19.948   1.588  49.549  1.00  0.00     0.282 C 
BRANCH  17  18
HETATM   18  N5  UNL     1      19.423   0.947  50.721  1.00  0.00     0.093 N 
HETATM   19  C18 UNL     1      18.111   1.467  51.031  1.00  0.00     0.298 C 
HETATM   20  C19 UNL     1      18.114   2.848  51.608  1.00  0.00     0.198 C 
HETATM   21  O2  UNL     1      19.358   3.369  51.864  1.00  0.00    -0.388 OA
HETATM   22  C20 UNL     1      20.257   2.501  52.436  1.00  0.00     0.198 C 
HETATM   23  C21 UNL     1      20.230   1.106  51.897  1.00  0.00     0.298 C 
ENDBRANCH  17  18
ENDBRANCH  16  17
ENDBRANCH  13  16
ENDBRANCH  11  12
ENDBRANCH   1   5
BRANCH   4  24
HETATM   24  N3  UNL     1      25.121   2.591  51.878  1.00  0.00    -0.364 N 
HETATM   25  H8  UNL     1      24.291   3.214  51.763  1.00  0.00     0.165 HD
BRANCH  24  26
HETATM   26  C8  UNL     1      25.100   1.504  52.815  1.00  0.00     0.033 A 
HETATM   27  C9  UNL     1      26.211   1.253  53.628  1.00  0.00     0.032 A 
HETATM   28  C10 UNL     1      26.003   0.176  54.454  1.00  0.00     0.046 A 
HETATM   29  C11 UNL     1      24.891  -0.616  54.552  1.00  0.00     0.138 A 
HETATM   30  F1  UNL     1      24.788  -1.656  55.404  1.00  0.00    -0.204 F 
HETATM   31  C12 UNL     1      23.811  -0.320  53.718  1.00  0.00     0.074 A 
HETATM   32 CL1  UNL     1      22.339  -1.228  53.728  1.00  0.00    -0.081 Cl
HETATM   33  C13 UNL     1      23.954   0.744  52.866  1.00  0.00     0.056 A 
ENDBRANCH  24  26
ENDBRANCH   4  24
TORSDOF 7
ENDMDL
MODEL 4
REMARK VINA RESULT:      -8.0      6.575      8.898
REMARK  7 active torsions:
REMARK  status: ('A' for Active; 'I' for Inactive)
REMARK    1  A    between atoms: C4_5  and  C5_6 
REMARK    2  A    between atoms: C7_9  and  N3_10 
REMARK    3  A    between atoms: N3_10  and  C8_11 
REMARK    4  A    between atoms: C14_19  and  N4_20 
REMARK       I    between atoms: N4_20  and  C15_21 
REMARK    5  A    between atoms: C15_21  and  C16_23 
REMARK    6  A    between atoms: C16_23  and  C17_24 
REMARK    7  A    between atoms: C17_24  and  N5_25 
ROOT
HETATM    1  C5  UNL     1      26.475   4.437  49.433  1.00  0.00     0.086 C 
HETATM    2  C6  UNL     1      27.559   5.063  48.742  1.00  0.00     0.103 C 
HETATM    3  N2  UNL     1      28.436   5.554  48.173  1.00  0.00    -0.191 NA
HETATM    4  C7  UNL     1      26.480   3.247  49.998  1.00  0.00     0.113 C 
ENDROOT
BRANCH   1   5
HETATM    5  C4  UNL     1      25.211   5.146  49.551  1.00  0.00     0.073 C 
HETATM    6  N1  UNL     1      24.055   4.843  49.140  1.00  0.00    -0.290 NA
HETATM    7  C3  UNL     1      22.821   5.518  49.243  1.00  0.00     0.153 C 
HETATM    8  C2  UNL     1      22.634   6.201  50.560  1.00  0.00     0.004 C 
HETATM    9  C1  UNL     1      21.922   7.535  50.415  1.00  0.00     0.011 C 
HETATM   10  C22 UNL     1      23.954   6.394  51.240  1.00  0.00     0.037 C 
HETATM   11  C14 UNL     1      25.045   6.451  50.233  1.00  0.00     0.138 C 
BRANCH  11  12
HETATM   12  N4  UNL     1      25.088   7.591  49.379  1.00  0.00    -0.351 N 
HETATM   13  C15 UNL     1      26.064   8.579  49.582  1.00  0.00     0.219 C 
HETATM   14  O1  UNL     1      26.984   8.666  50.441  1.00  0.00    -0.274 OA
HETATM   15  H13 UNL     1      24.560   7.962  48.555  1.00  0.00     0.163 HD
BRANCH  13  16
HETATM   16  C16 UNL     1      26.407   9.878  48.901  1.00  0.00     0.133 C 
BRANCH  16  17
HETATM   17  C17 UNL     1      27.835  10.237  49.225  1.00  0.00     0.282 C 
BRANCH  17  18
HETATM   18  N5  UNL     1      28.691  10.280  48.074  1.00  0.00     0.093 N 
HETATM   19  C18 UNL     1      29.444   9.050  47.964  1.00  0.00     0.298 C 
HETATM   20  C19 UNL     1      30.549   8.912  48.965  1.00  0.00     0.198 C 
HETATM   21  O2  UNL     1      30.759  10.012  49.757  1.00  0.00    -0.388 OA
HETATM   22  C20 UNL     1      30.712  11.224  49.112  1.00  0.00     0.198 C 
HETATM   23  C21 UNL     1      29.639  11.357  48.077  1.00  0.00     0.298 C 
ENDBRANCH  17  18
ENDBRANCH  16  17
ENDBRANCH  13  16
ENDBRANCH  11  12
ENDBRANCH   1   5
BRANCH   4  24
HETATM   24  N3  UNL     1      25.255   2.850  50.626  1.00  0.00    -0.364 N 
HETATM   25  H8  UNL     1      24.381   3.339  50.333  1.00  0.00     0.165 HD
BRANCH  24  26
HETATM   26  C8  UNL     1      25.219   1.818  51.623  1.00  0.00     0.033 A 
HETATM   27  C9  UNL     1      24.038   1.560  52.327  1.00  0.00     0.032 A 
HETATM   28  C10 UNL     1      24.199   0.543  53.237  1.00  0.00     0.046 A 
HETATM   29  C11 UNL     1      25.324  -0.189  53.499  1.00  0.00     0.138 A 
HETATM   30  F1  UNL     1      25.377  -1.175  54.418  1.00  0.00    -0.204 F 
HETATM   31  C12 UNL     1      26.475   0.110  52.766  1.00  0.00     0.074 A 
HETATM   32 CL1  UNL     1      27.972  -0.730  52.983  1.00  0.00    -0.081 Cl
HETATM   33  C13 UNL     1      26.383   1.117  51.842  1.00  0.00     0.056 A 
ENDBRANCH  24  26
ENDBRANCH   4  24
TORSDOF 7
ENDMDL
MODEL 5
REMARK VINA RESULT:      -7.7      1.535      2.937
REMARK  7 active torsions:
REMARK  status: ('A' for Active; 'I' for Inactive)
REMARK    1  A    between atoms: C4_5  and  C5_6 
REMARK    2  A    between atoms: C7_9  and  N3_10 
REMARK    3  A    between atoms: N3_10  and  C8_11 
REMARK    4  A    between atoms: C14_19  and  N4_20 
REMARK       I    between atoms: N4_20  and  C15_21 
REMARK    5  A    between atoms: C15_21  and  C16_23 
REMARK    6  A    between atoms: C16_23  and  C17_24 
REMARK    7  A    between atoms: C17_24  and  N5_25 
ROOT
HETATM    1  C5  UNL     1      20.034   1.681  52.313  1.00  0.00     0.086 C 
HETATM    2  C6  UNL     1      20.411   3.027  52.011  1.00  0.00     0.103 C 
HETATM    3  N2  UNL     1      20.698   4.120  51.772  1.00  0.00    -0.191 NA
HETATM    4  C7  UNL     1      18.994   1.026  51.839  1.00  0.00     0.113 C 
ENDROOT
BRANCH   1   5
HETATM    5  C4  UNL     1      20.852   0.911  53.237  1.00  0.00     0.073 C 
HETATM    6  N1  UNL     1      20.625   0.539  54.423  1.00  0.00    -0.290 NA
HETATM    7  C3  UNL     1      21.405  -0.205  55.333  1.00  0.00     0.153 C 
HETATM    8  C2  UNL     1      22.167  -1.314  54.681  1.00  0.00     0.004 C 
HETATM    9  C1  UNL     1      23.548  -1.493  55.292  1.00  0.00     0.011 C 
HETATM   10  C22 UNL     1      22.284  -1.073  53.209  1.00  0.00     0.037 C 
HETATM   11  C14 UNL     1      22.199   0.382  52.920  1.00  0.00     0.138 C 
BRANCH  11  12
HETATM   12  N4  UNL     1      23.286   1.199  53.346  1.00  0.00    -0.351 N 
HETATM   13  C15 UNL     1      24.278   1.574  52.428  1.00  0.00     0.219 C 
HETATM   14  O1  UNL     1      24.410   1.310  51.201  1.00  0.00    -0.274 OA
HETATM   15  H13 UNL     1      23.611   1.658  54.229  1.00  0.00     0.163 HD
BRANCH  13  16
HETATM   16  C16 UNL     1      25.533   2.404  52.512  1.00  0.00     0.133 C 
BRANCH  16  17
HETATM   17  C17 UNL     1      26.705   1.491  52.771  1.00  0.00     0.282 C 
BRANCH  17  18
HETATM   18  N5  UNL     1      26.366   0.324  53.534  1.00  0.00     0.093 N 
HETATM   19  C18 UNL     1      26.898   0.429  54.873  1.00  0.00     0.298 C 
HETATM   20  C19 UNL     1      28.381   0.240  54.965  1.00  0.00     0.198 C 
HETATM   21  O2  UNL     1      28.995  -0.119  53.791  1.00  0.00    -0.388 OA
HETATM   22  C20 UNL     1      28.337  -1.064  53.043  1.00  0.00     0.198 C 
HETATM   23  C21 UNL     1      26.850  -0.909  52.982  1.00  0.00     0.298 C 
ENDBRANCH  17  18
ENDBRANCH  16  17
ENDBRANCH  13  16
ENDBRANCH  11  12
ENDBRANCH   1   5
BRANCH   4  24
HETATM   24  N3  UNL     1      18.839  -0.319  52.306  1.00  0.00    -0.364 N 
HETATM   25  H8  UNL     1      19.677  -0.790  52.712  1.00  0.00     0.165 HD
BRANCH  24  26
HETATM   26  C8  UNL     1      17.580  -1.005  52.226  1.00  0.00     0.033 A 
HETATM   27  C9  UNL     1      16.540  -0.480  51.451  1.00  0.00     0.032 A 
HETATM   28  C10 UNL     1      15.419  -1.272  51.501  1.00  0.00     0.046 A 
HETATM   29  C11 UNL     1      15.237  -2.442  52.187  1.00  0.00     0.138 A 
HETATM   30  F1  UNL     1      14.088  -3.149  52.167  1.00  0.00    -0.204 F 
HETATM   31  C12 UNL     1      16.308  -2.921  52.944  1.00  0.00     0.074 A 
HETATM   32 CL1  UNL     1      16.230  -4.385  53.862  1.00  0.00    -0.081 Cl
HETATM   33  C13 UNL     1      17.459  -2.175  52.939  1.00  0.00     0.056 A 
ENDBRANCH  24  26
ENDBRANCH   4  24
TORSDOF 7
ENDMDL
MODEL 6
REMARK VINA RESULT:      -7.6      4.756      6.442
REMARK  7 active torsions:
REMARK  status: ('A' for Active; 'I' for Inactive)
REMARK    1  A    between atoms: C4_5  and  C5_6 
REMARK    2  A    between atoms: C7_9  and  N3_10 
REMARK    3  A    between atoms: N3_10  and  C8_11 
REMARK    4  A    between atoms: C14_19  and  N4_20 
REMARK       I    between atoms: N4_20  and  C15_21 
REMARK    5  A    between atoms: C15_21  and  C16_23 
REMARK    6  A    between atoms: C16_23  and  C17_24 
REMARK    7  A    between atoms: C17_24  and  N5_25 
ROOT
HETATM    1  C5  UNL     1      25.258   2.207  52.198  1.00  0.00     0.086 C 
HETATM    2  C6  UNL     1      26.688   2.210  52.242  1.00  0.00     0.103 C 
HETATM    3  N2  UNL     1      27.842   2.195  52.282  1.00  0.00    -0.191 NA
HETATM    4  C7  UNL     1      24.440   1.730  53.113  1.00  0.00     0.113 C 
ENDROOT
BRANCH   1   5
HETATM    5  C4  UNL     1      24.588   2.776  51.038  1.00  0.00     0.073 C 
HETATM    6  N1  UNL     1      23.784   2.255  50.214  1.00  0.00    -0.290 NA
HETATM    7  C3  UNL     1      23.128   2.791  49.086  1.00  0.00     0.153 C 
HETATM    8  C2  UNL     1      22.672   4.200  49.287  1.00  0.00     0.004 C 
HETATM    9  C1  UNL     1      22.829   5.035  48.027  1.00  0.00     0.011 C 
HETATM   10  C22 UNL     1      23.419   4.834  50.419  1.00  0.00     0.037 C 
HETATM   11  C14 UNL     1      24.742   4.180  50.591  1.00  0.00     0.138 C 
BRANCH  11  12
HETATM   12  N4  UNL     1      25.711   4.387  49.567  1.00  0.00    -0.351 N 
HETATM   13  C15 UNL     1      26.218   5.676  49.337  1.00  0.00     0.219 C 
HETATM   14  O1  UNL     1      25.963   6.775  49.901  1.00  0.00    -0.274 OA
HETATM   15  H13 UNL     1      26.221   3.814  48.855  1.00  0.00     0.163 HD
BRANCH  13  16
HETATM   16  C16 UNL     1      27.221   6.258  48.377  1.00  0.00     0.133 C 
BRANCH  16  17
HETATM   17  C17 UNL     1      27.309   7.746  48.605  1.00  0.00     0.282 C 
BRANCH  17  18
HETATM   18  N5  UNL     1      28.112   8.429  47.632  1.00  0.00     0.093 N 
HETATM   19  C18 UNL     1      29.498   8.042  47.766  1.00  0.00     0.298 C 
HETATM   20  C19 UNL     1      30.188   8.623  48.961  1.00  0.00     0.198 C 
HETATM   21  O2  UNL     1      29.444   9.523  49.683  1.00  0.00    -0.388 OA
HETATM   22  C20 UNL     1      28.719  10.422  48.940  1.00  0.00     0.198 C 
HETATM   23  C21 UNL     1      28.062   9.860  47.718  1.00  0.00     0.298 C 
ENDBRANCH  17  18
ENDBRANCH  16  17
ENDBRANCH  13  16
ENDBRANCH  11  12
ENDBRANCH   1   5
BRANCH   4  24
HETATM   24  N3  UNL     1      23.042   1.847  52.821  1.00  0.00    -0.364 N 
HETATM   25  H8  UNL     1      22.718   2.721  52.351  1.00  0.00     0.165 HD
BRANCH  24  26
HETATM   26  C8  UNL     1      22.112   0.806  53.156  1.00  0.00     0.033 A 
HETATM   27  C9  UNL     1      22.484  -0.213  54.040  1.00  0.00     0.032 A 
HETATM   28  C10 UNL     1      21.466  -1.115  54.235  1.00  0.00     0.046 A 
HETATM   29  C11 UNL     1      20.213  -1.110  53.685  1.00  0.00     0.138 A 
HETATM   30  F1  UNL     1      19.279  -2.048  53.945  1.00  0.00    -0.204 F 
HETATM   31  C12 UNL     1      19.895  -0.069  52.809  1.00  0.00     0.074 A 
HETATM   32 CL1  UNL     1      18.353   0.073  52.039  1.00  0.00    -0.081 Cl
HETATM   33  C13 UNL     1      20.869   0.865  52.570  1.00  0.00     0.056 A 
ENDBRANCH  24  26
ENDBRANCH   4  24
TORSDOF 7
ENDMDL
MODEL 7
REMARK VINA RESULT:      -7.2      6.378      9.621
REMARK  7 active torsions:
REMARK  status: ('A' for Active; 'I' for Inactive)
REMARK    1  A    between atoms: C4_5  and  C5_6 
REMARK    2  A    between atoms: C7_9  and  N3_10 
REMARK    3  A    between atoms: N3_10  and  C8_11 
REMARK    4  A    between atoms: C14_19  and  N4_20 
REMARK       I    between atoms: N4_20  and  C15_21 
REMARK    5  A    between atoms: C15_21  and  C16_23 
REMARK    6  A    between atoms: C16_23  and  C17_24 
REMARK    7  A    between atoms: C17_24  and  N5_25 
ROOT
HETATM    1  C5  UNL     1      26.138   3.525  50.299  1.00  0.00     0.086 C 
HETATM    2  C6  UNL     1      26.283   2.342  51.092  1.00  0.00     0.103 C 
HETATM    3  N2  UNL     1      26.417   1.394  51.736  1.00  0.00    -0.191 NA
HETATM    4  C7  UNL     1      26.982   3.980  49.397  1.00  0.00     0.113 C 
ENDROOT
BRANCH   1   5
HETATM    5  C4  UNL     1      24.951   4.347  50.472  1.00  0.00     0.073 C 
HETATM    6  N1  UNL     1      24.829   5.551  50.838  1.00  0.00    -0.290 NA
HETATM    7  C3  UNL     1      23.688   6.362  51.013  1.00  0.00     0.153 C 
HETATM    8  C2  UNL     1      22.638   6.128  49.975  1.00  0.00     0.004 C 
HETATM    9  C1  UNL     1      21.236   6.208  50.554  1.00  0.00     0.011 C 
HETATM   10  C22 UNL     1      22.846   4.803  49.311  1.00  0.00     0.037 C 
HETATM   11  C14 UNL     1      23.567   3.880  50.225  1.00  0.00     0.138 C 
BRANCH  11  12
HETATM   12  N4  UNL     1      22.866   3.422  51.378  1.00  0.00    -0.351 N 
HETATM   13  C15 UNL     1      22.142   2.220  51.323  1.00  0.00     0.219 C 
HETATM   14  O1  UNL     1      21.973   1.401  50.379  1.00  0.00    -0.274 OA
HETATM   15  H13 UNL     1      22.707   3.736  52.363  1.00  0.00     0.163 HD
BRANCH  13  16
HETATM   16  C16 UNL     1      21.309   1.446  52.310  1.00  0.00     0.133 C 
BRANCH  16  17
HETATM   17  C17 UNL     1      22.205   0.935  53.410  1.00  0.00     0.282 C 
BRANCH  17  18
HETATM   18  N5  UNL     1      22.951  -0.235  53.045  1.00  0.00     0.093 N 
HETATM   19  C18 UNL     1      22.071  -1.377  52.935  1.00  0.00     0.298 C 
HETATM   20  C19 UNL     1      21.589  -1.913  54.247  1.00  0.00     0.198 C 
HETATM   21  O2  UNL     1      22.141  -1.321  55.356  1.00  0.00    -0.388 OA
HETATM   22  C20 UNL     1      23.492  -1.084  55.289  1.00  0.00     0.198 C 
HETATM   23  C21 UNL     1      23.990  -0.589  53.968  1.00  0.00     0.298 C 
ENDBRANCH  17  18
ENDBRANCH  16  17
ENDBRANCH  13  16
ENDBRANCH  11  12
ENDBRANCH   1   5
BRANCH   4  24
HETATM   24  N3  UNL     1      26.600   5.196  48.742  1.00  0.00    -0.364 N 
HETATM   25  H8  UNL     1      25.580   5.411  48.680  1.00  0.00     0.165 HD
BRANCH  24  26
HETATM   26  C8  UNL     1      27.574   6.094  48.190  1.00  0.00     0.033 A 
HETATM   27  C9  UNL     1      27.184   7.351  47.715  1.00  0.00     0.032 A 
HETATM   28  C10 UNL     1      28.251   8.063  47.224  1.00  0.00     0.046 A 
HETATM   29  C11 UNL     1      29.565   7.686  47.161  1.00  0.00     0.138 A 
HETATM   30  F1  UNL     1      30.543   8.467  46.658  1.00  0.00    -0.204 F 
HETATM   31  C12 UNL     1      29.899   6.421  47.649  1.00  0.00     0.074 A 
HETATM   32 CL1  UNL     1      31.515   5.806  47.639  1.00  0.00    -0.081 Cl
HETATM   33  C13 UNL     1      28.878   5.657  48.153  1.00  0.00     0.056 A 
ENDBRANCH  24  26
ENDBRANCH   4  24
TORSDOF 7
ENDMDL
MODEL 8
REMARK VINA RESULT:      -7.2      4.756      6.880
REMARK  7 active torsions:
REMARK  status: ('A' for Active; 'I' for Inactive)
REMARK    1  A    between atoms: C4_5  and  C5_6 
REMARK    2  A    between atoms: C7_9  and  N3_10 
REMARK    3  A    between atoms: N3_10  and  C8_11 
REMARK    4  A    between atoms: C14_19  and  N4_20 
REMARK       I    between atoms: N4_20  and  C15_21 
REMARK    5  A    between atoms: C15_21  and  C16_23 
REMARK    6  A    between atoms: C16_23  and  C17_24 
REMARK    7  A    between atoms: C17_24  and  N5_25 
ROOT
HETATM    1  C5  UNL     1      25.008   3.246  50.738  1.00  0.00     0.086 C 
HETATM    2  C6  UNL     1      26.178   3.515  49.960  1.00  0.00     0.103 C 
HETATM    3  N2  UNL     1      27.125   3.714  49.331  1.00  0.00    -0.191 NA
HETATM    4  C7  UNL     1      24.927   2.475  51.802  1.00  0.00     0.113 C 
ENDROOT
BRANCH   1   5
HETATM    5  C4  UNL     1      23.748   3.863  50.351  1.00  0.00     0.073 C 
HETATM    6  N1  UNL     1      22.759   3.390  49.722  1.00  0.00    -0.290 NA
HETATM    7  C3  UNL     1      21.533   3.973  49.339  1.00  0.00     0.153 C 
HETATM    8  C2  UNL     1      20.974   4.896  50.372  1.00  0.00     0.004 C 
HETATM    9  C1  UNL     1      20.305   6.111  49.749  1.00  0.00     0.011 C 
HETATM   10  C22 UNL     1      22.047   5.330  51.321  1.00  0.00     0.037 C 
HETATM   11  C14 UNL     1      23.375   5.263  50.657  1.00  0.00     0.138 C 
BRANCH  11  12
HETATM   12  N4  UNL     1      23.633   6.201  49.616  1.00  0.00    -0.351 N 
HETATM   13  C15 UNL     1      23.885   7.545  49.934  1.00  0.00     0.219 C 
HETATM   14  O1  UNL     1      23.930   8.134  51.048  1.00  0.00    -0.274 OA
HETATM   15  H13 UNL     1      23.703   6.200  48.572  1.00  0.00     0.163 HD
BRANCH  13  16
HETATM   16  C16 UNL     1      24.191   8.779  49.127  1.00  0.00     0.133 C 
BRANCH  16  17
HETATM   17  C17 UNL     1      25.541   8.614  48.476  1.00  0.00     0.282 C 
BRANCH  17  18
HETATM   18  N5  UNL     1      26.534   8.054  49.347  1.00  0.00     0.093 N 
HETATM   19  C18 UNL     1      27.207   9.104  50.079  1.00  0.00     0.298 C 
HETATM   20  C19 UNL     1      28.167   9.910  49.259  1.00  0.00     0.198 C 
HETATM   21  O2  UNL     1      28.353   9.464  47.975  1.00  0.00    -0.388 OA
HETATM   22  C20 UNL     1      28.472   8.103  47.832  1.00  0.00     0.198 C 
HETATM   23  C21 UNL     1      27.547   7.288  48.680  1.00  0.00     0.298 C 
ENDBRANCH  17  18
ENDBRANCH  16  17
ENDBRANCH  13  16
ENDBRANCH  11  12
ENDBRANCH   1   5
BRANCH   4  24
HETATM   24  N3  UNL     1      23.628   2.370  52.398  1.00  0.00    -0.364 N 
HETATM   25  H8  UNL     1      23.024   3.222  52.395  1.00  0.00     0.165 HD
BRANCH  24  26
HETATM   26  C8  UNL     1      23.161   1.143  52.979  1.00  0.00     0.033 A 
HETATM   27  C9  UNL     1      24.069   0.247  53.555  1.00  0.00     0.032 A 
HETATM   28  C10 UNL     1      23.437  -0.866  54.054  1.00  0.00     0.046 A 
HETATM   29  C11 UNL     1      22.101  -1.160  54.041  1.00  0.00     0.138 A 
HETATM   30  F1  UNL     1      21.579  -2.289  54.563  1.00  0.00    -0.204 F 
HETATM   31  C12 UNL     1      21.240  -0.231  53.453  1.00  0.00     0.074 A 
HETATM   32 CL1  UNL     1      19.528  -0.460  53.364  1.00  0.00    -0.081 Cl
HETATM   33  C13 UNL     1      21.807   0.904  52.934  1.00  0.00     0.056 A 
ENDBRANCH  24  26
ENDBRANCH   4  24
TORSDOF 7
ENDMDL
MODEL 9
REMARK VINA RESULT:      -7.2      5.299      8.937
REMARK  7 active torsions:
REMARK  status: ('A' for Active; 'I' for Inactive)
REMARK    1  A    between atoms: C4_5  and  C5_6 
REMARK    2  A    between atoms: C7_9  and  N3_10 
REMARK    3  A    between atoms: N3_10  and  C8_11 
REMARK    4  A    between atoms: C14_19  and  N4_20 
REMARK       I    between atoms: N4_20  and  C15_21 
REMARK    5  A    between atoms: C15_21  and  C16_23 
REMARK    6  A    between atoms: C16_23  and  C17_24 
REMARK    7  A    between atoms: C17_24  and  N5_25 
ROOT
HETATM    1  C5  UNL     1      22.024   2.612  51.930  1.00  0.00     0.086 C 
HETATM    2  C6  UNL     1      20.663   2.946  52.218  1.00  0.00     0.103 C 
HETATM    3  N2  UNL     1      19.567   3.210  52.469  1.00  0.00    -0.191 NA
HETATM    4  C7  UNL     1      22.644   1.491  52.232  1.00  0.00     0.113 C 
ENDROOT
BRANCH   1   5
HETATM    5  C4  UNL     1      22.854   3.583  51.232  1.00  0.00     0.073 C 
HETATM    6  N1  UNL     1      23.639   4.467  51.679  1.00  0.00    -0.290 NA
HETATM    7  C3  UNL     1      24.448   5.414  51.019  1.00  0.00     0.153 C 
HETATM    8  C2  UNL     1      25.079   4.881  49.773  1.00  0.00     0.004 C 
HETATM    9  C1  UNL     1      25.138   5.926  48.671  1.00  0.00     0.011 C 
HETATM   10  C22 UNL     1      24.343   3.669  49.293  1.00  0.00     0.037 C 
HETATM   11  C14 UNL     1      22.933   3.708  49.758  1.00  0.00     0.138 C 
BRANCH  11  12
HETATM   12  N4  UNL     1      22.083   4.701  49.188  1.00  0.00    -0.351 N 
HETATM   13  C15 UNL     1      20.812   4.342  48.716  1.00  0.00     0.219 C 
HETATM   14  O1  UNL     1      20.225   3.226  48.692  1.00  0.00    -0.274 OA
HETATM   15  H13 UNL     1      22.116   5.728  48.992  1.00  0.00     0.163 HD
BRANCH  13  16
HETATM   16  C16 UNL     1      19.675   5.094  48.075  1.00  0.00     0.133 C 
BRANCH  16  17
HETATM   17  C17 UNL     1      19.677   4.811  46.593  1.00  0.00     0.282 C 
BRANCH  17  18
HETATM   18  N5  UNL     1      20.958   4.999  45.975  1.00  0.00     0.093 N 
HETATM   19  C18 UNL     1      20.983   6.245  45.243  1.00  0.00     0.298 C 
HETATM   20  C19 UNL     1      20.203   6.227  43.965  1.00  0.00     0.198 C 
HETATM   21  O2  UNL     1      19.680   5.006  43.620  1.00  0.00    -0.388 OA
HETATM   22  C20 UNL     1      20.516   3.931  43.803  1.00  0.00     0.198 C 
HETATM   23  C21 UNL     1      21.332   3.962  45.057  1.00  0.00     0.298 C 
ENDBRANCH  17  18
ENDBRANCH  16  17
ENDBRANCH  13  16
ENDBRANCH  11  12
ENDBRANCH   1   5
BRANCH   4  24
HETATM   24  N3  UNL     1      24.017   1.410  51.831  1.00  0.00    -0.364 N 
HETATM   25  H8  UNL     1      24.247   1.654  50.843  1.00  0.00     0.165 HD
BRANCH  24  26
HETATM   26  C8  UNL     1      25.048   1.011  52.747  1.00  0.00     0.033 A 
HETATM   27  C9  UNL     1      24.880  -0.125  53.546  1.00  0.00     0.032 A 
HETATM   28  C10 UNL     1      25.967  -0.344  54.356  1.00  0.00     0.046 A 
HETATM   29  C11 UNL     1      27.117   0.392  54.448  1.00  0.00     0.138 A 
HETATM   30  F1  UNL     1      28.133   0.088  55.281  1.00  0.00    -0.204 F 
HETATM   31  C12 UNL     1      27.233   1.516  53.628  1.00  0.00     0.074 A 
HETATM   32 CL1  UNL     1      28.626   2.542  53.629  1.00  0.00    -0.081 Cl
HETATM   33  C13 UNL     1      26.180   1.792  52.794  1.00  0.00     0.056 A 
ENDBRANCH  24  26
ENDBRANCH   4  24
TORSDOF 7
ENDMDL
