MODEL 1
REMARK VINA RESULT:      -7.2      0.000      0.000
REMARK  6 active torsions:
REMARK  status: ('A' for Active; 'I' for Inactive)
REMARK    1  A    between atoms: C2_2  and  O1_3 
REMARK    2  A    between atoms: O1_3  and  C3_4 
REMARK    3  A    between atoms: N1_7  and  C6_8 
REMARK    4  A    between atoms: C11_13  and  N2_14 
REMARK       I    between atoms: N2_14  and  C12_15 
REMARK    5  A    between atoms: C12_15  and  C13_17 
REMARK    6  A    between atoms: C14_18  and  C15_19 
ROOT
HETATM    1  C3  UNL     1      24.503   2.494  52.181  1.00  0.00     0.097 A 
HETATM    2  C4  UNL     1      23.856   1.517  52.824  1.00  0.00     0.066 A 
HETATM    3  C5  UNL     1      24.508   0.233  53.115  1.00  0.00     0.041 A 
HETATM    4  N1  UNL     1      24.081  -0.822  53.714  1.00  0.00    -0.252 NA
HETATM    5  C9  UNL     1      25.912  -0.046  52.711  1.00  0.00     0.088 A 
HETATM    6  C10 UNL     1      26.430   1.141  52.028  1.00  0.00     0.012 A 
HETATM    7  C11 UNL     1      25.873   2.293  51.758  1.00  0.00     0.065 A 
ENDROOT
BRANCH   7   8
HETATM    8  N2  UNL     1      26.444   3.388  51.094  1.00  0.00    -0.321 N 
HETATM    9  C12 UNL     1      26.134   3.884  49.819  1.00  0.00     0.245 C 
HETATM   10  O2  UNL     1      25.238   3.334  49.112  1.00  0.00    -0.268 OA
HETATM   11  H11 UNL     1      27.190   3.984  51.474  1.00  0.00     0.169 HD
BRANCH   9  12
HETATM   12  C13 UNL     1      26.740   5.014  49.158  1.00  0.00     0.071 C 
HETATM   13  C14 UNL     1      27.933   5.043  48.599  1.00  0.00    -0.017 C 
BRANCH  13  14
HETATM   14  C15 UNL     1      28.531   6.197  47.934  1.00  0.00    -0.000 C 
HETATM   15  C16 UNL     1      27.867   7.511  48.291  1.00  0.00     0.013 C 
HETATM   16  C17 UNL     1      29.982   6.324  48.329  1.00  0.00     0.013 C 
ENDBRANCH  13  14
ENDBRANCH   9  12
ENDBRANCH   7   8
BRANCH   1  17
HETATM   17  O1  UNL     1      23.597   3.473  52.109  1.00  0.00    -0.349 OA
BRANCH  17  18
HETATM   18  C2  UNL     1      23.480   4.718  52.654  1.00  0.00     0.171 C 
HETATM   19  C1  UNL     1      23.623   5.840  51.621  1.00  0.00     0.034 C 
ENDBRANCH  17  18
ENDBRANCH   1  17
BRANCH   4  20
HETATM   20  C6  UNL     1      22.750  -0.826  54.212  1.00  0.00     0.069 A 
HETATM   21  C7  UNL     1      21.755  -0.483  54.950  1.00  0.00     0.007 A 
HETATM   22  C8  UNL     1      21.474  -1.501  53.980  1.00  0.00     0.047 A 
ENDBRANCH   4  20
TORSDOF 6
ENDMDL
MODEL 2
REMARK VINA RESULT:      -7.0      1.720      7.977
REMARK  6 active torsions:
REMARK  status: ('A' for Active; 'I' for Inactive)
REMARK    1  A    between atoms: C2_2  and  O1_3 
REMARK    2  A    between atoms: O1_3  and  C3_4 
REMARK    3  A    between atoms: N1_7  and  C6_8 
REMARK    4  A    between atoms: C11_13  and  N2_14 
REMARK       I    between atoms: N2_14  and  C12_15 
REMARK    5  A    between atoms: C12_15  and  C13_17 
REMARK    6  A    between atoms: C14_18  and  C15_19 
ROOT
HETATM    1  C3  UNL     1      25.955   3.175  50.190  1.00  0.00     0.097 A 
HETATM    2  C4  UNL     1      26.804   4.021  49.596  1.00  0.00     0.066 A 
HETATM    3  C5  UNL     1      26.324   5.236  48.923  1.00  0.00     0.041 A 
HETATM    4  N1  UNL     1      26.953   6.171  48.305  1.00  0.00    -0.252 NA
HETATM    5  C9  UNL     1      24.879   5.586  48.867  1.00  0.00     0.088 A 
HETATM    6  C10 UNL     1      24.133   4.540  49.568  1.00  0.00     0.012 A 
HETATM    7  C11 UNL     1      24.534   3.453  50.174  1.00  0.00     0.065 A 
ENDROOT
BRANCH   7   8
HETATM    8  N2  UNL     1      23.747   2.494  50.828  1.00  0.00    -0.321 N 
HETATM    9  C12 UNL     1      23.486   2.379  52.202  1.00  0.00     0.245 C 
HETATM   10  O2  UNL     1      23.986   3.204  53.025  1.00  0.00    -0.268 OA
HETATM   11  H11 UNL     1      23.244   1.728  50.362  1.00  0.00     0.169 HD
BRANCH   9  12
HETATM   12  C13 UNL     1      22.671   1.381  52.848  1.00  0.00     0.071 C 
HETATM   13  C14 UNL     1      23.099   0.264  53.404  1.00  0.00    -0.017 C 
BRANCH  13  14
HETATM   14  C15 UNL     1      22.258  -0.737  54.054  1.00  0.00    -0.000 C 
HETATM   15  C16 UNL     1      22.900  -1.365  55.273  1.00  0.00     0.013 C 
HETATM   16  C17 UNL     1      20.970  -0.103  54.521  1.00  0.00     0.013 C 
ENDBRANCH  13  14
ENDBRANCH   9  12
ENDBRANCH   7   8
BRANCH   1  17
HETATM   17  O1  UNL     1      26.754   2.220  50.673  1.00  0.00    -0.349 OA
BRANCH  17  18
HETATM   18  C2  UNL     1      27.084   1.781  51.921  1.00  0.00     0.171 C 
HETATM   19  C1  UNL     1      26.695   0.320  52.165  1.00  0.00     0.034 C 
ENDBRANCH  17  18
ENDBRANCH   1  17
BRANCH   4  20
HETATM   20  C6  UNL     1      28.369   6.086  48.210  1.00  0.00     0.069 A 
HETATM   21  C7  UNL     1      29.527   5.530  48.172  1.00  0.00     0.007 A 
HETATM   22  C8  UNL     1      29.532   6.959  48.058  1.00  0.00     0.047 A 
ENDBRANCH   4  20
TORSDOF 6
ENDMDL
MODEL 3
REMARK VINA RESULT:      -6.8      1.449      2.669
REMARK  6 active torsions:
REMARK  status: ('A' for Active; 'I' for Inactive)
REMARK    1  A    between atoms: C2_2  and  O1_3 
REMARK    2  A    between atoms: O1_3  and  C3_4 
REMARK    3  A    between atoms: N1_7  and  C6_8 
REMARK    4  A    between atoms: C11_13  and  N2_14 
REMARK       I    between atoms: N2_14  and  C12_15 
REMARK    5  A    between atoms: C12_15  and  C13_17 
REMARK    6  A    between atoms: C14_18  and  C15_19 
ROOT
HETATM    1  C3  UNL     1      25.412   1.467  51.925  1.00  0.00     0.097 A 
HETATM    2  C4  UNL     1      24.442   0.809  52.568  1.00  0.00     0.066 A 
HETATM    3  C5  UNL     1      23.160   1.454  52.882  1.00  0.00     0.041 A 
HETATM    4  N1  UNL     1      22.109   1.015  53.478  1.00  0.00    -0.252 NA
HETATM    5  C9  UNL     1      22.877   2.866  52.506  1.00  0.00     0.088 A 
HETATM    6  C10 UNL     1      24.056   3.396  51.820  1.00  0.00     0.012 A 
HETATM    7  C11 UNL     1      25.205   2.843  51.527  1.00  0.00     0.065 A 
ENDROOT
BRANCH   7   8
HETATM    8  N2  UNL     1      26.293   3.426  50.861  1.00  0.00    -0.321 N 
HETATM    9  C12 UNL     1      26.295   4.095  49.628  1.00  0.00     0.245 C 
HETATM   10  O2  UNL     1      25.223   4.234  48.967  1.00  0.00    -0.268 OA
HETATM   11  H11 UNL     1      27.260   3.436  51.209  1.00  0.00     0.169 HD
BRANCH   9  12
HETATM   12  C13 UNL     1      27.431   4.686  48.965  1.00  0.00     0.071 C 
HETATM   13  C14 UNL     1      27.513   5.921  48.510  1.00  0.00    -0.017 C 
BRANCH  13  14
HETATM   14  C15 UNL     1      28.673   6.503  47.840  1.00  0.00    -0.000 C 
HETATM   15  C16 UNL     1      29.060   7.865  48.378  1.00  0.00     0.013 C 
HETATM   16  C17 UNL     1      29.875   5.609  48.020  1.00  0.00     0.013 C 
ENDBRANCH  13  14
ENDBRANCH   9  12
ENDBRANCH   7   8
BRANCH   1  17
HETATM   17  O1  UNL     1      26.392   0.564  51.830  1.00  0.00    -0.349 OA
BRANCH  17  18
HETATM   18  C2  UNL     1      27.411   0.161  52.641  1.00  0.00     0.171 C 
HETATM   19  C1  UNL     1      28.170   1.330  53.275  1.00  0.00     0.034 C 
ENDBRANCH  17  18
ENDBRANCH   1  17
BRANCH   4  20
HETATM   20  C6  UNL     1      22.108  -0.327  53.947  1.00  0.00     0.069 A 
HETATM   21  C7  UNL     1      21.882  -1.592  53.932  1.00  0.00     0.007 A 
HETATM   22  C8  UNL     1      22.544  -1.104  55.106  1.00  0.00     0.047 A 
ENDBRANCH   4  20
TORSDOF 6
ENDMDL
MODEL 4
REMARK VINA RESULT:      -6.8      3.740      7.713
REMARK  6 active torsions:
REMARK  status: ('A' for Active; 'I' for Inactive)
REMARK    1  A    between atoms: C2_2  and  O1_3 
REMARK    2  A    between atoms: O1_3  and  C3_4 
REMARK    3  A    between atoms: N1_7  and  C6_8 
REMARK    4  A    between atoms: C11_13  and  N2_14 
REMARK       I    between atoms: N2_14  and  C12_15 
REMARK    5  A    between atoms: C12_15  and  C13_17 
REMARK    6  A    between atoms: C14_18  and  C15_19 
ROOT
HETATM    1  C3  UNL     1      24.412   0.494  52.662  1.00  0.00     0.097 A 
HETATM    2  C4  UNL     1      25.660   0.538  53.139  1.00  0.00     0.066 A 
HETATM    3  C5  UNL     1      26.034  -0.181  54.364  1.00  0.00     0.041 A 
HETATM    4  N1  UNL     1      27.155  -0.277  54.985  1.00  0.00    -0.252 NA
HETATM    5  C9  UNL     1      25.051  -0.990  55.134  1.00  0.00     0.088 A 
HETATM    6  C10 UNL     1      23.760  -0.904  54.448  1.00  0.00     0.012 A 
HETATM    7  C11 UNL     1      23.402  -0.274  53.359  1.00  0.00     0.065 A 
ENDROOT
BRANCH   7   8
HETATM    8  N2  UNL     1      22.133  -0.244  52.764  1.00  0.00    -0.321 N 
HETATM    9  C12 UNL     1      20.909   0.111  53.352  1.00  0.00     0.245 C 
HETATM   10  O2  UNL     1      20.855   0.460  54.569  1.00  0.00    -0.268 OA
HETATM   11  H11 UNL     1      21.935  -0.487  51.785  1.00  0.00     0.169 HD
BRANCH   9  12
HETATM   12  C13 UNL     1      19.616   0.132  52.714  1.00  0.00     0.071 C 
HETATM   13  C14 UNL     1      18.581  -0.625  53.024  1.00  0.00    -0.017 C 
BRANCH  13  14
HETATM   14  C15 UNL     1      17.278  -0.589  52.366  1.00  0.00    -0.000 C 
HETATM   15  C16 UNL     1      17.358  -0.299  50.882  1.00  0.00     0.013 C 
HETATM   16  C17 UNL     1      16.592  -1.926  52.510  1.00  0.00     0.013 C 
ENDBRANCH  13  14
ENDBRANCH   9  12
ENDBRANCH   7   8
BRANCH   1  17
HETATM   17  O1  UNL     1      24.469   1.255  51.566  1.00  0.00    -0.349 OA
BRANCH  17  18
HETATM   18  C2  UNL     1      23.855   2.401  51.155  1.00  0.00     0.171 C 
HETATM   19  C1  UNL     1      23.327   3.247  52.318  1.00  0.00     0.034 C 
ENDBRANCH  17  18
ENDBRANCH   1  17
BRANCH   4  20
HETATM   20  C6  UNL     1      28.283   0.407  54.456  1.00  0.00     0.069 A 
HETATM   21  C7  UNL     1      29.045   1.402  54.174  1.00  0.00     0.007 A 
HETATM   22  C8  UNL     1      29.520   0.125  53.730  1.00  0.00     0.047 A 
ENDBRANCH   4  20
TORSDOF 6
ENDMDL
MODEL 5
REMARK VINA RESULT:      -6.7      1.634      2.411
REMARK  6 active torsions:
REMARK  status: ('A' for Active; 'I' for Inactive)
REMARK    1  A    between atoms: C2_2  and  O1_3 
REMARK    2  A    between atoms: O1_3  and  C3_4 
REMARK    3  A    between atoms: N1_7  and  C6_8 
REMARK    4  A    between atoms: C11_13  and  N2_14 
REMARK       I    between atoms: N2_14  and  C12_15 
REMARK    5  A    between atoms: C12_15  and  C13_17 
REMARK    6  A    between atoms: C14_18  and  C15_19 
ROOT
HETATM    1  C3  UNL     1      24.349   2.422  52.028  1.00  0.00     0.097 A 
HETATM    2  C4  UNL     1      23.563   1.523  52.629  1.00  0.00     0.066 A 
HETATM    3  C5  UNL     1      22.429   0.909  51.925  1.00  0.00     0.041 A 
HETATM    4  N1  UNL     1      21.563   0.037  52.303  1.00  0.00    -0.252 NA
HETATM    5  C9  UNL     1      22.096   1.256  50.516  1.00  0.00     0.088 A 
HETATM    6  C10 UNL     1      23.069   2.247  50.053  1.00  0.00     0.012 A 
HETATM    7  C11 UNL     1      24.085   2.807  50.657  1.00  0.00     0.065 A 
ENDROOT
BRANCH   7   8
HETATM    8  N2  UNL     1      24.976   3.756  50.137  1.00  0.00    -0.321 N 
HETATM    9  C12 UNL     1      26.289   3.556  49.685  1.00  0.00     0.245 C 
HETATM   10  O2  UNL     1      26.813   2.402  49.716  1.00  0.00    -0.268 OA
HETATM   11  H11 UNL     1      24.768   4.756  50.019  1.00  0.00     0.169 HD
BRANCH   9  12
HETATM   12  C13 UNL     1      27.184   4.553  49.154  1.00  0.00     0.071 C 
HETATM   13  C14 UNL     1      26.838   5.714  48.634  1.00  0.00    -0.017 C 
BRANCH  13  14
HETATM   14  C15 UNL     1      27.759   6.713  48.100  1.00  0.00    -0.000 C 
HETATM   15  C16 UNL     1      27.757   8.013  48.877  1.00  0.00     0.013 C 
HETATM   16  C17 UNL     1      29.172   6.186  48.142  1.00  0.00     0.013 C 
ENDBRANCH  13  14
ENDBRANCH   9  12
ENDBRANCH   7   8
BRANCH   1  17
HETATM   17  O1  UNL     1      25.242   2.736  52.971  1.00  0.00    -0.349 OA
BRANCH  17  18
HETATM   18  C2  UNL     1      26.142   2.033  53.716  1.00  0.00     0.171 C 
HETATM   19  C1  UNL     1      27.567   2.106  53.158  1.00  0.00     0.034 C 
ENDBRANCH  17  18
ENDBRANCH   1  17
BRANCH   4  20
HETATM   20  C6  UNL     1      21.651  -0.474  53.626  1.00  0.00     0.069 A 
HETATM   21  C7  UNL     1      21.859  -0.462  54.894  1.00  0.00     0.007 A 
HETATM   22  C8  UNL     1      21.462  -1.729  54.352  1.00  0.00     0.047 A 
ENDBRANCH   4  20
TORSDOF 6
ENDMDL
MODEL 6
REMARK VINA RESULT:      -6.6      3.293      7.423
REMARK  6 active torsions:
REMARK  status: ('A' for Active; 'I' for Inactive)
REMARK    1  A    between atoms: C2_2  and  O1_3 
REMARK    2  A    between atoms: O1_3  and  C3_4 
REMARK    3  A    between atoms: N1_7  and  C6_8 
REMARK    4  A    between atoms: C11_13  and  N2_14 
REMARK       I    between atoms: N2_14  and  C12_15 
REMARK    5  A    between atoms: C12_15  and  C13_17 
REMARK    6  A    between atoms: C14_18  and  C15_19 
ROOT
HETATM    1  C3  UNL     1      24.400   0.312  52.753  1.00  0.00     0.097 A 
HETATM    2  C4  UNL     1      25.691   0.464  53.063  1.00  0.00     0.066 A 
HETATM    3  C5  UNL     1      26.508   1.512  52.435  1.00  0.00     0.041 A 
HETATM    4  N1  UNL     1      27.744   1.832  52.586  1.00  0.00    -0.252 NA
HETATM    5  C9  UNL     1      25.946   2.450  51.427  1.00  0.00     0.088 A 
HETATM    6  C10 UNL     1      24.534   2.114  51.235  1.00  0.00     0.012 A 
HETATM    7  C11 UNL     1      23.785   1.190  51.781  1.00  0.00     0.065 A 
ENDROOT
BRANCH   7   8
HETATM    8  N2  UNL     1      22.428   0.933  51.539  1.00  0.00    -0.321 N 
HETATM    9  C12 UNL     1      21.317   1.685  51.950  1.00  0.00     0.245 C 
HETATM   10  O2  UNL     1      21.471   2.745  52.629  1.00  0.00    -0.268 OA
HETATM   11  H11 UNL     1      22.066   0.129  51.010  1.00  0.00     0.169 HD
BRANCH   9  12
HETATM   12  C13 UNL     1      19.930   1.396  51.687  1.00  0.00     0.071 C 
HETATM   13  C14 UNL     1      19.248   0.365  52.146  1.00  0.00    -0.017 C 
BRANCH  13  14
HETATM   14  C15 UNL     1      17.841   0.087  51.869  1.00  0.00    -0.000 C 
HETATM   15  C16 UNL     1      17.540  -0.094  50.396  1.00  0.00     0.013 C 
HETATM   16  C17 UNL     1      17.423  -1.189  52.557  1.00  0.00     0.013 C 
ENDBRANCH  13  14
ENDBRANCH   9  12
ENDBRANCH   7   8
BRANCH   1  17
HETATM   17  O1  UNL     1      24.016  -0.717  53.513  1.00  0.00    -0.349 OA
BRANCH  17  18
HETATM   18  C2  UNL     1      23.254  -0.853  54.636  1.00  0.00     0.171 C 
HETATM   19  C1  UNL     1      21.839  -1.361  54.342  1.00  0.00     0.034 C 
ENDBRANCH  17  18
ENDBRANCH   1  17
BRANCH   4  20
HETATM   20  C6  UNL     1      28.529   1.086  53.507  1.00  0.00     0.069 A 
HETATM   21  C7  UNL     1      29.016   0.735  54.643  1.00  0.00     0.007 A 
HETATM   22  C8  UNL     1      29.475  -0.028  53.520  1.00  0.00     0.047 A 
ENDBRANCH   4  20
TORSDOF 6
ENDMDL
MODEL 7
REMARK VINA RESULT:      -6.5      2.398      5.149
REMARK  6 active torsions:
REMARK  status: ('A' for Active; 'I' for Inactive)
REMARK    1  A    between atoms: C2_2  and  O1_3 
REMARK    2  A    between atoms: O1_3  and  C3_4 
REMARK    3  A    between atoms: N1_7  and  C6_8 
REMARK    4  A    between atoms: C11_13  and  N2_14 
REMARK       I    between atoms: N2_14  and  C12_15 
REMARK    5  A    between atoms: C12_15  and  C13_17 
REMARK    6  A    between atoms: C14_18  and  C15_19 
ROOT
HETATM    1  C3  UNL     1      25.846   2.088  51.779  1.00  0.00     0.097 A 
HETATM    2  C4  UNL     1      26.747   1.258  52.313  1.00  0.00     0.066 A 
HETATM    3  C5  UNL     1      26.343   0.166  53.209  1.00  0.00     0.041 A 
HETATM    4  N1  UNL     1      27.030  -0.733  53.818  1.00  0.00    -0.252 NA
HETATM    5  C9  UNL     1      24.919  -0.071  53.567  1.00  0.00     0.088 A 
HETATM    6  C10 UNL     1      24.107   0.937  52.884  1.00  0.00     0.012 A 
HETATM    7  C11 UNL     1      24.441   1.916  52.083  1.00  0.00     0.065 A 
ENDROOT
BRANCH   7   8
HETATM    8  N2  UNL     1      23.593   2.846  51.465  1.00  0.00    -0.321 N 
HETATM    9  C12 UNL     1      23.224   4.120  51.924  1.00  0.00     0.245 C 
HETATM   10  O2  UNL     1      23.668   4.563  53.025  1.00  0.00    -0.268 OA
HETATM   11  H11 UNL     1      23.118   2.703  50.565  1.00  0.00     0.169 HD
BRANCH   9  12
HETATM   12  C13 UNL     1      22.347   5.057  51.266  1.00  0.00     0.071 C 
HETATM   13  C14 UNL     1      21.895   4.967  50.031  1.00  0.00    -0.017 C 
BRANCH  13  14
HETATM   14  C15 UNL     1      21.007   5.927  49.380  1.00  0.00    -0.000 C 
HETATM   15  C16 UNL     1      19.556   5.492  49.364  1.00  0.00     0.013 C 
HETATM   16  C17 UNL     1      21.056   7.248  50.107  1.00  0.00     0.013 C 
ENDBRANCH  13  14
ENDBRANCH   9  12
ENDBRANCH   7   8
BRANCH   1  17
HETATM   17  O1  UNL     1      26.586   2.922  51.043  1.00  0.00    -0.349 OA
BRANCH  17  18
HETATM   18  C2  UNL     1      26.586   3.309  49.735  1.00  0.00     0.171 C 
HETATM   19  C1  UNL     1      26.043   4.727  49.531  1.00  0.00     0.034 C 
ENDBRANCH  17  18
ENDBRANCH   1  17
BRANCH   4  20
HETATM   20  C6  UNL     1      28.441  -0.739  53.646  1.00  0.00     0.069 A 
HETATM   21  C7  UNL     1      29.634  -0.266  53.588  1.00  0.00     0.007 A 
HETATM   22  C8  UNL     1      29.524  -1.673  53.340  1.00  0.00     0.047 A 
ENDBRANCH   4  20
TORSDOF 6
ENDMDL
MODEL 8
REMARK VINA RESULT:      -6.4      3.407      5.223
REMARK  6 active torsions:
REMARK  status: ('A' for Active; 'I' for Inactive)
REMARK    1  A    between atoms: C2_2  and  O1_3 
REMARK    2  A    between atoms: O1_3  and  C3_4 
REMARK    3  A    between atoms: N1_7  and  C6_8 
REMARK    4  A    between atoms: C11_13  and  N2_14 
REMARK       I    between atoms: N2_14  and  C12_15 
REMARK    5  A    between atoms: C12_15  and  C13_17 
REMARK    6  A    between atoms: C14_18  and  C15_19 
ROOT
HETATM    1  C3  UNL     1      22.359   0.514  51.962  1.00  0.00     0.097 A 
HETATM    2  C4  UNL     1      21.035   0.349  51.884  1.00  0.00     0.066 A 
HETATM    3  C5  UNL     1      20.275  -0.253  52.988  1.00  0.00     0.041 A 
HETATM    4  N1  UNL     1      19.020  -0.498  53.123  1.00  0.00    -0.252 NA
HETATM    5  C9  UNL     1      20.935  -0.710  54.241  1.00  0.00     0.088 A 
HETATM    6  C10 UNL     1      22.368  -0.440  54.121  1.00  0.00     0.012 A 
HETATM    7  C11 UNL     1      23.068   0.094  53.153  1.00  0.00     0.065 A 
ENDROOT
BRANCH   7   8
HETATM    8  N2  UNL     1      24.451   0.318  53.117  1.00  0.00    -0.321 N 
HETATM    9  C12 UNL     1      25.135   1.537  53.241  1.00  0.00     0.245 C 
HETATM   10  O2  UNL     1      24.497   2.620  53.410  1.00  0.00    -0.268 OA
HETATM   11  H11 UNL     1      25.163  -0.413  52.990  1.00  0.00     0.169 HD
BRANCH   9  12
HETATM   12  C13 UNL     1      26.562   1.739  53.200  1.00  0.00     0.071 C 
HETATM   13  C14 UNL     1      27.484   0.836  53.467  1.00  0.00    -0.017 C 
BRANCH  13  14
HETATM   14  C15 UNL     1      28.927   1.057  53.420  1.00  0.00    -0.000 C 
HETATM   15  C16 UNL     1      29.423   2.031  54.469  1.00  0.00     0.013 C 
HETATM   16  C17 UNL     1      29.656  -0.242  53.657  1.00  0.00     0.013 C 
ENDBRANCH  13  14
ENDBRANCH   9  12
ENDBRANCH   7   8
BRANCH   1  17
HETATM   17  O1  UNL     1      22.673   1.077  50.793  1.00  0.00    -0.349 OA
BRANCH  17  18
HETATM   18  C2  UNL     1      22.522   2.320  50.252  1.00  0.00     0.171 C 
HETATM   19  C1  UNL     1      23.854   2.977  49.879  1.00  0.00     0.034 C 
ENDBRANCH  17  18
ENDBRANCH   1  17
BRANCH   4  20
HETATM   20  C6  UNL     1      18.145  -0.154  52.058  1.00  0.00     0.069 A 
HETATM   21  C7  UNL     1      17.435  -0.324  51.000  1.00  0.00     0.007 A 
HETATM   22  C8  UNL     1      17.416   1.003  51.541  1.00  0.00     0.047 A 
ENDBRANCH   4  20
TORSDOF 6
ENDMDL
MODEL 9
REMARK VINA RESULT:      -6.0      2.039      8.149
REMARK  6 active torsions:
REMARK  status: ('A' for Active; 'I' for Inactive)
REMARK    1  A    between atoms: C2_2  and  O1_3 
REMARK    2  A    between atoms: O1_3  and  C3_4 
REMARK    3  A    between atoms: N1_7  and  C6_8 
REMARK    4  A    between atoms: C11_13  and  N2_14 
REMARK       I    between atoms: N2_14  and  C12_15 
REMARK    5  A    between atoms: C12_15  and  C13_17 
REMARK    6  A    between atoms: C14_18  and  C15_19 
ROOT
HETATM    1  C3  UNL     1      24.906   4.722  50.086  1.00  0.00     0.097 A 
HETATM    2  C4  UNL     1      25.671   5.755  49.719  1.00  0.00     0.066 A 
HETATM    3  C5  UNL     1      25.366   7.124  50.158  1.00  0.00     0.041 A 
HETATM    4  N1  UNL     1      25.958   8.242  49.930  1.00  0.00    -0.252 NA
HETATM    5  C9  UNL     1      24.198   7.430  51.028  1.00  0.00     0.088 A 
HETATM    6  C10 UNL     1      23.504   6.173  51.310  1.00  0.00     0.012 A 
HETATM    7  C11 UNL     1      23.754   4.945  50.934  1.00  0.00     0.065 A 
ENDROOT
BRANCH   7   8
HETATM    8  N2  UNL     1      23.031   3.787  51.251  1.00  0.00    -0.321 N 
HETATM    9  C12 UNL     1      23.207   2.930  52.348  1.00  0.00     0.245 C 
HETATM   10  O2  UNL     1      24.110   3.160  53.208  1.00  0.00    -0.268 OA
HETATM   11  H11 UNL     1      22.253   3.407  50.697  1.00  0.00     0.169 HD
BRANCH   9  12
HETATM   12  C13 UNL     1      22.448   1.742  52.650  1.00  0.00     0.071 C 
HETATM   13  C14 UNL     1      22.918   0.630  53.180  1.00  0.00    -0.017 C 
BRANCH  13  14
HETATM   14  C15 UNL     1      22.134  -0.566  53.479  1.00  0.00    -0.000 C 
HETATM   15  C16 UNL     1      22.337  -1.084  54.888  1.00  0.00     0.013 C 
HETATM   16  C17 UNL     1      20.662  -0.265  53.336  1.00  0.00     0.013 C 
ENDBRANCH  13  14
ENDBRANCH   9  12
ENDBRANCH   7   8
BRANCH   1  17
HETATM   17  O1  UNL     1      25.494   3.675  49.500  1.00  0.00    -0.349 OA
BRANCH  17  18
HETATM   18  C2  UNL     1      26.632   2.959  49.727  1.00  0.00     0.171 C 
HETATM   19  C1  UNL     1      26.611   2.208  51.062  1.00  0.00     0.034 C 
ENDBRANCH  17  18
ENDBRANCH   1  17
BRANCH   4  20
HETATM   20  C6  UNL     1      27.122   8.238  49.116  1.00  0.00     0.069 A 
HETATM   21  C7  UNL     1      27.864   7.965  48.102  1.00  0.00     0.007 A 
HETATM   22  C8  UNL     1      28.489   8.757  49.120  1.00  0.00     0.047 A 
ENDBRANCH   4  20
TORSDOF 6
ENDMDL
