MODEL 1
REMARK VINA RESULT:      -7.1      0.000      0.000
REMARK  6 active torsions:
REMARK  status: ('A' for Active; 'I' for Inactive)
REMARK    1  A    between atoms: C2_3  and  N2_4 
REMARK    2  A    between atoms: N2_4  and  C3_5 
REMARK    3  A    between atoms: C6_8  and  O1_9 
REMARK    4  A    between atoms: O1_9  and  C7_10 
REMARK    5  A    between atoms: C7_10  and  C8_11 
REMARK    6  A    between atoms: C14_18  and  C15_19 
ROOT
HETATM    1  C3  UNL     1      26.870   0.306  52.796  1.00  0.00     0.120 A 
HETATM    2  C4  UNL     1      27.671  -1.007  53.046  1.00  0.00     0.046 A 
HETATM    3  C5  UNL     1      26.646  -1.537  52.381  1.00  0.00     0.024 A 
HETATM    4  C6  UNL     1      25.578  -0.904  53.443  1.00  0.00     0.059 A 
HETATM    5  C12 UNL     1      26.545  -0.333  54.177  1.00  0.00     0.065 A 
HETATM    6  C13 UNL     1      27.768   0.400  54.724  1.00  0.00    -0.000 A 
HETATM    7  C14 UNL     1      28.705  -0.245  53.789  1.00  0.00    -0.038 A 
ENDROOT
BRANCH   4   8
HETATM    8  O1  UNL     1      24.414  -0.541  54.123  1.00  0.00    -0.352 OA
BRANCH   8   9
HETATM    9  C7  UNL     1      23.397   0.083  53.300  1.00  0.00     0.207 C 
BRANCH   9  10
HETATM   10  C8  UNL     1      22.221  -0.828  53.179  1.00  0.00     0.145 C 
HETATM   11  C9  UNL     1      21.629  -1.074  54.560  1.00  0.00     0.036 C 
HETATM   12  C10 UNL     1      20.769   0.165  54.680  1.00  0.00     0.029 C 
HETATM   13  C11 UNL     1      20.232   0.208  53.243  1.00  0.00     0.168 C 
HETATM   14  O2  UNL     1      21.203  -0.281  52.414  1.00  0.00    -0.384 OA
ENDBRANCH   9  10
ENDBRANCH   8   9
ENDBRANCH   4   8
BRANCH   1  15
HETATM   15  N2  UNL     1      27.595   1.510  52.807  1.00  0.00    -0.377 N 
HETATM   16  H5  UNL     1      28.461   1.764  53.381  1.00  0.00     0.160 HD
BRANCH  15  17
HETATM   17  C2  UNL     1      27.160   2.578  51.957  1.00  0.00     0.196 C 
HETATM   18  N1  UNL     1      26.757   2.231  50.746  1.00  0.00    -0.290 NA
HETATM   19  C1  UNL     1      26.322   3.370  49.922  1.00  0.00     0.179 C 
ENDBRANCH  15  17
ENDBRANCH   1  15
BRANCH   7  20
HETATM   20  C15 UNL     1      30.104  -0.546  53.481  1.00  0.00     0.257 C 
HETATM   21  F1  UNL     1      30.569  -1.649  54.167  1.00  0.00    -0.251 F 
ENDBRANCH   7  20
TORSDOF 6
ENDMDL
MODEL 2
REMARK VINA RESULT:      -6.9      2.428      5.168
REMARK  6 active torsions:
REMARK  status: ('A' for Active; 'I' for Inactive)
REMARK    1  A    between atoms: C2_3  and  N2_4 
REMARK    2  A    between atoms: N2_4  and  C3_5 
REMARK    3  A    between atoms: C6_8  and  O1_9 
REMARK    4  A    between atoms: O1_9  and  C7_10 
REMARK    5  A    between atoms: C7_10  and  C8_11 
REMARK    6  A    between atoms: C14_18  and  C15_19 
ROOT
HETATM    1  C3  UNL     1      26.464   0.559  53.730  1.00  0.00     0.120 A 
HETATM    2  C4  UNL     1      27.928   0.840  53.274  1.00  0.00     0.046 A 
HETATM    3  C5  UNL     1      27.539   2.103  53.442  1.00  0.00     0.024 A 
HETATM    4  C6  UNL     1      26.287   1.896  52.413  1.00  0.00     0.059 A 
HETATM    5  C12 UNL     1      26.603   0.613  52.181  1.00  0.00     0.065 A 
HETATM    6  C13 UNL     1      27.008  -0.858  52.237  1.00  0.00    -0.000 A 
HETATM    7  C14 UNL     1      28.166  -0.617  53.114  1.00  0.00    -0.038 A 
ENDROOT
BRANCH   4   8
HETATM    8  O1  UNL     1      25.157   2.089  51.618  1.00  0.00    -0.352 OA
BRANCH   8   9
HETATM    9  C7  UNL     1      24.999   3.434  51.100  1.00  0.00     0.207 C 
BRANCH   9  10
HETATM   10  C8  UNL     1      25.253   3.437  49.628  1.00  0.00     0.145 C 
HETATM   11  C9  UNL     1      24.832   4.779  49.046  1.00  0.00     0.036 C 
HETATM   12  C10 UNL     1      26.079   5.579  49.353  1.00  0.00     0.029 C 
HETATM   13  C11 UNL     1      27.125   4.509  49.010  1.00  0.00     0.168 C 
HETATM   14  O2  UNL     1      26.596   3.286  49.322  1.00  0.00    -0.384 OA
ENDBRANCH   9  10
ENDBRANCH   8   9
ENDBRANCH   4   8
BRANCH   1  15
HETATM   15  N2  UNL     1      26.202  -0.697  54.302  1.00  0.00    -0.377 N 
HETATM   16  H5  UNL     1      26.845  -1.549  54.369  1.00  0.00     0.160 HD
BRANCH  15  17
HETATM   17  C2  UNL     1      24.914  -0.928  54.886  1.00  0.00     0.196 C 
HETATM   18  N1  UNL     1      23.871  -0.679  54.112  1.00  0.00    -0.290 NA
HETATM   19  C1  UNL     1      22.579  -0.936  54.766  1.00  0.00     0.179 C 
ENDBRANCH  15  17
ENDBRANCH   1  15
BRANCH   7  20
HETATM   20  C15 UNL     1      29.419  -1.149  53.652  1.00  0.00     0.257 C 
HETATM   21  F1  UNL     1      30.482  -0.292  53.458  1.00  0.00    -0.251 F 
ENDBRANCH   7  20
TORSDOF 6
ENDMDL
MODEL 3
REMARK VINA RESULT:      -6.7      2.297      3.583
REMARK  6 active torsions:
REMARK  status: ('A' for Active; 'I' for Inactive)
REMARK    1  A    between atoms: C2_3  and  N2_4 
REMARK    2  A    between atoms: N2_4  and  C3_5 
REMARK    3  A    between atoms: C6_8  and  O1_9 
REMARK    4  A    between atoms: O1_9  and  C7_10 
REMARK    5  A    between atoms: C7_10  and  C8_11 
REMARK    6  A    between atoms: C14_18  and  C15_19 
ROOT
HETATM    1  C3  UNL     1      26.365   0.503  53.781  1.00  0.00     0.120 A 
HETATM    2  C4  UNL     1      27.813   0.766  53.266  1.00  0.00     0.046 A 
HETATM    3  C5  UNL     1      27.458   2.032  53.483  1.00  0.00     0.024 A 
HETATM    4  C6  UNL     1      26.157   1.877  52.507  1.00  0.00     0.059 A 
HETATM    5  C12 UNL     1      26.435   0.594  52.228  1.00  0.00     0.065 A 
HETATM    6  C13 UNL     1      26.811  -0.886  52.229  1.00  0.00    -0.000 A 
HETATM    7  C14 UNL     1      28.012  -0.690  53.059  1.00  0.00    -0.038 A 
ENDROOT
BRANCH   4   8
HETATM    8  O1  UNL     1      24.997   2.112  51.769  1.00  0.00    -0.352 OA
BRANCH   8   9
HETATM    9  C7  UNL     1      23.889   2.655  52.532  1.00  0.00     0.207 C 
BRANCH   9  10
HETATM   10  C8  UNL     1      22.693   2.792  51.649  1.00  0.00     0.145 C 
HETATM   11  C9  UNL     1      22.604   1.584  50.727  1.00  0.00     0.036 C 
HETATM   12  C10 UNL     1      21.914   0.615  51.660  1.00  0.00     0.029 C 
HETATM   13  C11 UNL     1      20.914   1.588  52.299  1.00  0.00     0.168 C 
HETATM   14  O2  UNL     1      21.506   2.820  52.365  1.00  0.00    -0.384 OA
ENDBRANCH   9  10
ENDBRANCH   8   9
ENDBRANCH   4   8
BRANCH   1  15
HETATM   15  N2  UNL     1      26.102  -0.763  54.332  1.00  0.00    -0.377 N 
HETATM   16  H5  UNL     1      26.714  -1.640  54.315  1.00  0.00     0.160 HD
BRANCH  15  17
HETATM   17  C2  UNL     1      24.862  -0.966  55.019  1.00  0.00     0.196 C 
HETATM   18  N1  UNL     1      23.766  -0.846  54.288  1.00  0.00    -0.290 NA
HETATM   19  C1  UNL     1      22.525  -1.067  55.047  1.00  0.00     0.179 C 
ENDBRANCH  15  17
ENDBRANCH   1  15
BRANCH   7  20
HETATM   20  C15 UNL     1      29.277  -1.261  53.525  1.00  0.00     0.257 C 
HETATM   21  F1  UNL     1      30.335  -0.389  53.379  1.00  0.00    -0.251 F 
ENDBRANCH   7  20
TORSDOF 6
ENDMDL
MODEL 4
REMARK VINA RESULT:      -6.5      3.757      6.786
REMARK  6 active torsions:
REMARK  status: ('A' for Active; 'I' for Inactive)
REMARK    1  A    between atoms: C2_3  and  N2_4 
REMARK    2  A    between atoms: N2_4  and  C3_5 
REMARK    3  A    between atoms: C6_8  and  O1_9 
REMARK    4  A    between atoms: O1_9  and  C7_10 
REMARK    5  A    between atoms: C7_10  and  C8_11 
REMARK    6  A    between atoms: C14_18  and  C15_19 
ROOT
HETATM    1  C3  UNL     1      21.298   1.190  53.101  1.00  0.00     0.120 A 
HETATM    2  C4  UNL     1      20.606  -0.187  53.343  1.00  0.00     0.046 A 
HETATM    3  C5  UNL     1      21.393  -0.180  54.419  1.00  0.00     0.024 A 
HETATM    4  C6  UNL     1      22.724   0.021  53.493  1.00  0.00     0.059 A 
HETATM    5  C12 UNL     1      22.014   0.026  52.355  1.00  0.00     0.065 A 
HETATM    6  C13 UNL     1      21.004   0.223  51.227  1.00  0.00    -0.000 A 
HETATM    7  C14 UNL     1      19.834  -0.029  52.086  1.00  0.00    -0.038 A 
ENDROOT
BRANCH   4   8
HETATM    8  O1  UNL     1      24.035   0.184  53.043  1.00  0.00    -0.352 OA
BRANCH   8   9
HETATM    9  C7  UNL     1      25.049  -0.399  53.901  1.00  0.00     0.207 C 
BRANCH   9  10
HETATM   10  C8  UNL     1      26.139  -0.983  53.063  1.00  0.00     0.145 C 
HETATM   11  C9  UNL     1      26.570   0.035  52.015  1.00  0.00     0.036 C 
HETATM   12  C10 UNL     1      27.530   0.852  52.851  1.00  0.00     0.029 C 
HETATM   13  C11 UNL     1      28.203  -0.298  53.613  1.00  0.00     0.168 C 
HETATM   14  O2  UNL     1      27.272  -1.283  53.800  1.00  0.00    -0.384 OA
ENDBRANCH   9  10
ENDBRANCH   8   9
ENDBRANCH   4   8
BRANCH   1  15
HETATM   15  N2  UNL     1      20.606   2.122  52.310  1.00  0.00    -0.377 N 
HETATM   16  H5  UNL     1      19.755   1.966  51.681  1.00  0.00     0.160 HD
BRANCH  15  17
HETATM   17  C2  UNL     1      21.057   3.482  52.303  1.00  0.00     0.196 C 
HETATM   18  N1  UNL     1      22.354   3.663  52.113  1.00  0.00    -0.290 NA
HETATM   19  C1  UNL     1      22.756   5.078  52.113  1.00  0.00     0.179 C 
ENDBRANCH  15  17
ENDBRANCH   1  15
BRANCH   7  20
HETATM   20  C15 UNL     1      18.407  -0.350  52.137  1.00  0.00     0.257 C 
HETATM   21  F1  UNL     1      18.122  -1.339  53.055  1.00  0.00    -0.251 F 
ENDBRANCH   7  20
TORSDOF 6
ENDMDL
MODEL 5
REMARK VINA RESULT:      -6.1      3.598      6.447
REMARK  6 active torsions:
REMARK  status: ('A' for Active; 'I' for Inactive)
REMARK    1  A    between atoms: C2_3  and  N2_4 
REMARK    2  A    between atoms: N2_4  and  C3_5 
REMARK    3  A    between atoms: C6_8  and  O1_9 
REMARK    4  A    between atoms: O1_9  and  C7_10 
REMARK    5  A    between atoms: C7_10  and  C8_11 
REMARK    6  A    between atoms: C14_18  and  C15_19 
ROOT
HETATM    1  C3  UNL     1      24.806   1.442  52.159  1.00  0.00     0.120 A 
HETATM    2  C4  UNL     1      24.947   2.537  51.058  1.00  0.00     0.046 A 
HETATM    3  C5  UNL     1      26.142   1.967  50.910  1.00  0.00     0.024 A 
HETATM    4  C6  UNL     1      26.497   2.207  52.486  1.00  0.00     0.059 A 
HETATM    5  C12 UNL     1      25.318   2.796  52.731  1.00  0.00     0.065 A 
HETATM    6  C13 UNL     1      23.855   3.225  52.830  1.00  0.00    -0.000 A 
HETATM    7  C14 UNL     1      23.597   3.057  51.390  1.00  0.00    -0.038 A 
ENDROOT
BRANCH   4   8
HETATM    8  O1  UNL     1      27.129   2.244  53.730  1.00  0.00    -0.352 OA
BRANCH   8   9
HETATM    9  C7  UNL     1      28.573   2.115  53.683  1.00  0.00     0.207 C 
BRANCH   9  10
HETATM   10  C8  UNL     1      29.002   0.975  54.547  1.00  0.00     0.145 C 
HETATM   11  C9  UNL     1      27.863  -0.030  54.658  1.00  0.00     0.036 C 
HETATM   12  C10 UNL     1      28.092  -0.800  53.376  1.00  0.00     0.029 C 
HETATM   13  C11 UNL     1      29.625  -0.863  53.420  1.00  0.00     0.168 C 
HETATM   14  O2  UNL     1      30.078   0.283  54.016  1.00  0.00    -0.384 OA
ENDBRANCH   9  10
ENDBRANCH   8   9
ENDBRANCH   4   8
BRANCH   1  15
HETATM   15  N2  UNL     1      23.502   1.054  52.511  1.00  0.00    -0.377 N 
HETATM   16  H5  UNL     1      22.573   1.518  52.254  1.00  0.00     0.160 HD
BRANCH  15  17
HETATM   17  C2  UNL     1      23.332  -0.111  53.327  1.00  0.00     0.196 C 
HETATM   18  N1  UNL     1      22.133  -0.277  53.862  1.00  0.00    -0.290 NA
HETATM   19  C1  UNL     1      22.020  -1.490  54.686  1.00  0.00     0.179 C 
ENDBRANCH  15  17
ENDBRANCH   1  15
BRANCH   7  20
HETATM   20  C15 UNL     1      22.707   3.359  50.268  1.00  0.00     0.257 C 
HETATM   21  F1  UNL     1      23.393   3.549  49.087  1.00  0.00    -0.251 F 
ENDBRANCH   7  20
TORSDOF 6
ENDMDL
MODEL 6
REMARK VINA RESULT:      -6.1      3.736      6.359
REMARK  6 active torsions:
REMARK  status: ('A' for Active; 'I' for Inactive)
REMARK    1  A    between atoms: C2_3  and  N2_4 
REMARK    2  A    between atoms: N2_4  and  C3_5 
REMARK    3  A    between atoms: C6_8  and  O1_9 
REMARK    4  A    between atoms: O1_9  and  C7_10 
REMARK    5  A    between atoms: C7_10  and  C8_11 
REMARK    6  A    between atoms: C14_18  and  C15_19 
ROOT
HETATM    1  C3  UNL     1      23.188   2.326  52.427  1.00  0.00     0.120 A 
HETATM    2  C4  UNL     1      22.521   0.918  52.364  1.00  0.00     0.046 A 
HETATM    3  C5  UNL     1      23.459   0.640  53.268  1.00  0.00     0.024 A 
HETATM    4  C6  UNL     1      24.640   1.136  52.253  1.00  0.00     0.059 A 
HETATM    5  C12 UNL     1      23.767   1.445  51.282  1.00  0.00     0.065 A 
HETATM    6  C13 UNL     1      22.602   1.926  50.419  1.00  0.00    -0.000 A 
HETATM    7  C14 UNL     1      21.571   1.405  51.333  1.00  0.00    -0.038 A 
ENDROOT
BRANCH   4   8
HETATM    8  O1  UNL     1      25.871   1.458  51.680  1.00  0.00    -0.352 OA
BRANCH   8   9
HETATM    9  C7  UNL     1      27.023   0.892  52.355  1.00  0.00     0.207 C 
BRANCH   9  10
HETATM   10  C8  UNL     1      27.104   1.432  53.745  1.00  0.00     0.145 C 
HETATM   11  C9  UNL     1      27.338   0.285  54.719  1.00  0.00     0.036 C 
HETATM   12  C10 UNL     1      28.839   0.155  54.587  1.00  0.00     0.029 C 
HETATM   13  C11 UNL     1      29.192   1.647  54.538  1.00  0.00     0.168 C 
HETATM   14  O2  UNL     1      28.167   2.304  53.913  1.00  0.00    -0.384 OA
ENDBRANCH   9  10
ENDBRANCH   8   9
ENDBRANCH   4   8
BRANCH   1  15
HETATM   15  N2  UNL     1      22.399   3.425  52.048  1.00  0.00    -0.377 N 
HETATM   16  H5  UNL     1      21.410   3.430  51.641  1.00  0.00     0.160 HD
BRANCH  15  17
HETATM   17  C2  UNL     1      22.942   4.741  52.200  1.00  0.00     0.196 C 
HETATM   18  N1  UNL     1      23.522   5.259  51.129  1.00  0.00    -0.290 NA
HETATM   19  C1  UNL     1      24.058   6.612  51.347  1.00  0.00     0.179 C 
ENDBRANCH  15  17
ENDBRANCH   1  15
BRANCH   7  20
HETATM   20  C15 UNL     1      20.163   1.042  51.500  1.00  0.00     0.257 C 
HETATM   21  F1  UNL     1      20.004  -0.215  52.044  1.00  0.00    -0.251 F 
ENDBRANCH   7  20
TORSDOF 6
ENDMDL
MODEL 7
REMARK VINA RESULT:      -6.1      3.688      6.303
REMARK  6 active torsions:
REMARK  status: ('A' for Active; 'I' for Inactive)
REMARK    1  A    between atoms: C2_3  and  N2_4 
REMARK    2  A    between atoms: N2_4  and  C3_5 
REMARK    3  A    between atoms: C6_8  and  O1_9 
REMARK    4  A    between atoms: O1_9  and  C7_10 
REMARK    5  A    between atoms: C7_10  and  C8_11 
REMARK    6  A    between atoms: C14_18  and  C15_19 
ROOT
HETATM    1  C3  UNL     1      23.271   1.881  51.075  1.00  0.00     0.120 A 
HETATM    2  C4  UNL     1      22.893   2.371  52.506  1.00  0.00     0.046 A 
HETATM    3  C5  UNL     1      23.790   3.313  52.217  1.00  0.00     0.024 A 
HETATM    4  C6  UNL     1      24.933   2.186  51.910  1.00  0.00     0.059 A 
HETATM    5  C12 UNL     1      24.101   1.171  52.184  1.00  0.00     0.065 A 
HETATM    6  C13 UNL     1      22.940   0.187  52.322  1.00  0.00    -0.000 A 
HETATM    7  C14 UNL     1      21.956   1.231  52.659  1.00  0.00    -0.038 A 
ENDROOT
BRANCH   4   8
HETATM    8  O1  UNL     1      26.123   1.535  51.582  1.00  0.00    -0.352 OA
BRANCH   8   9
HETATM    9  C7  UNL     1      27.176   1.656  52.571  1.00  0.00     0.207 C 
BRANCH   9  10
HETATM   10  C8  UNL     1      26.966   0.650  53.654  1.00  0.00     0.145 C 
HETATM   11  C9  UNL     1      27.380  -0.726  53.152  1.00  0.00     0.036 C 
HETATM   12  C10 UNL     1      28.869  -0.639  53.402  1.00  0.00     0.029 C 
HETATM   13  C11 UNL     1      28.829   0.072  54.762  1.00  0.00     0.168 C 
HETATM   14  O2  UNL     1      27.743   0.904  54.772  1.00  0.00    -0.384 OA
ENDBRANCH   9  10
ENDBRANCH   8   9
ENDBRANCH   4   8
BRANCH   1  15
HETATM   15  N2  UNL     1      22.320   1.102  50.394  1.00  0.00    -0.377 N 
HETATM   16  H5  UNL     1      21.853   0.193  50.707  1.00  0.00     0.160 HD
BRANCH  15  17
HETATM   17  C2  UNL     1      21.881   1.535  49.101  1.00  0.00     0.196 C 
HETATM   18  N1  UNL     1      22.584   2.506  48.543  1.00  0.00    -0.290 NA
HETATM   19  C1  UNL     1      22.088   2.905  47.217  1.00  0.00     0.179 C 
ENDBRANCH  15  17
ENDBRANCH   1  15
BRANCH   7  20
HETATM   20  C15 UNL     1      20.635   1.525  53.215  1.00  0.00     0.257 C 
HETATM   21  F1  UNL     1      20.411   0.876  54.412  1.00  0.00    -0.251 F 
ENDBRANCH   7  20
TORSDOF 6
ENDMDL
MODEL 8
REMARK VINA RESULT:      -6.0      2.944      4.806
REMARK  6 active torsions:
REMARK  status: ('A' for Active; 'I' for Inactive)
REMARK    1  A    between atoms: C2_3  and  N2_4 
REMARK    2  A    between atoms: N2_4  and  C3_5 
REMARK    3  A    between atoms: C6_8  and  O1_9 
REMARK    4  A    between atoms: O1_9  and  C7_10 
REMARK    5  A    between atoms: C7_10  and  C8_11 
REMARK    6  A    between atoms: C14_18  and  C15_19 
ROOT
HETATM    1  C3  UNL     1      25.435   3.404  51.342  1.00  0.00     0.120 A 
HETATM    2  C4  UNL     1      24.989   4.523  50.353  1.00  0.00     0.046 A 
HETATM    3  C5  UNL     1      23.964   4.603  51.200  1.00  0.00     0.024 A 
HETATM    4  C6  UNL     1      23.622   3.018  50.999  1.00  0.00     0.059 A 
HETATM    5  C12 UNL     1      24.632   2.842  50.133  1.00  0.00     0.065 A 
HETATM    6  C13 UNL     1      25.948   2.821  49.360  1.00  0.00    -0.000 A 
HETATM    7  C14 UNL     1      26.184   4.267  49.511  1.00  0.00    -0.038 A 
ENDROOT
BRANCH   4   8
HETATM    8  O1  UNL     1      23.049   1.748  51.072  1.00  0.00    -0.352 OA
BRANCH   8   9
HETATM    9  C7  UNL     1      22.376   1.455  52.323  1.00  0.00     0.207 C 
BRANCH   9  10
HETATM   10  C8  UNL     1      21.869   0.051  52.302  1.00  0.00     0.145 C 
HETATM   11  C9  UNL     1      22.410  -0.699  53.512  1.00  0.00     0.036 C 
HETATM   12  C10 UNL     1      21.399  -0.255  54.546  1.00  0.00     0.029 C 
HETATM   13  C11 UNL     1      20.137  -0.332  53.677  1.00  0.00     0.168 C 
HETATM   14  O2  UNL     1      20.488  -0.015  52.393  1.00  0.00    -0.384 OA
ENDBRANCH   9  10
ENDBRANCH   8   9
ENDBRANCH   4   8
BRANCH   1  15
HETATM   15  N2  UNL     1      26.807   3.103  51.390  1.00  0.00    -0.377 N 
HETATM   16  H5  UNL     1      27.586   3.426  50.733  1.00  0.00     0.160 HD
BRANCH  15  17
HETATM   17  C2  UNL     1      27.283   2.248  52.436  1.00  0.00     0.196 C 
HETATM   18  N1  UNL     1      28.499   2.506  52.890  1.00  0.00    -0.290 NA
HETATM   19  C1  UNL     1      28.931   1.597  53.963  1.00  0.00     0.179 C 
ENDBRANCH  15  17
ENDBRANCH   1  15
BRANCH   7  20
HETATM   20  C15 UNL     1      26.930   5.435  49.041  1.00  0.00     0.257 C 
HETATM   21  F1  UNL     1      27.957   5.095  48.186  1.00  0.00    -0.251 F 
ENDBRANCH   7  20
TORSDOF 6
ENDMDL
MODEL 9
REMARK VINA RESULT:      -6.0      3.961      6.452
REMARK  6 active torsions:
REMARK  status: ('A' for Active; 'I' for Inactive)
REMARK    1  A    between atoms: C2_3  and  N2_4 
REMARK    2  A    between atoms: N2_4  and  C3_5 
REMARK    3  A    between atoms: C6_8  and  O1_9 
REMARK    4  A    between atoms: O1_9  and  C7_10 
REMARK    5  A    between atoms: C7_10  and  C8_11 
REMARK    6  A    between atoms: C14_18  and  C15_19 
ROOT
HETATM    1  C3  UNL     1      24.195   3.694  51.203  1.00  0.00     0.120 A 
HETATM    2  C4  UNL     1      23.071   3.228  52.177  1.00  0.00     0.046 A 
HETATM    3  C5  UNL     1      24.027   3.436  53.081  1.00  0.00     0.024 A 
HETATM    4  C6  UNL     1      25.039   2.416  52.302  1.00  0.00     0.059 A 
HETATM    5  C12 UNL     1      24.138   2.145  51.347  1.00  0.00     0.065 A 
HETATM    6  C13 UNL     1      23.059   2.156  50.265  1.00  0.00    -0.000 A 
HETATM    7  C14 UNL     1      22.150   3.026  51.031  1.00  0.00    -0.038 A 
ENDROOT
BRANCH   4   8
HETATM    8  O1  UNL     1      26.136   1.640  51.927  1.00  0.00    -0.352 OA
BRANCH   8   9
HETATM    9  C7  UNL     1      27.326   1.836  52.732  1.00  0.00     0.207 C 
BRANCH   9  10
HETATM   10  C8  UNL     1      27.242   0.996  53.963  1.00  0.00     0.145 C 
HETATM   11  C9  UNL     1      27.019  -0.458  53.568  1.00  0.00     0.036 C 
HETATM   12  C10 UNL     1      28.452  -0.856  53.287  1.00  0.00     0.029 C 
HETATM   13  C11 UNL     1      29.124  -0.123  54.456  1.00  0.00     0.168 C 
HETATM   14  O2  UNL     1      28.413   1.020  54.703  1.00  0.00    -0.384 OA
ENDBRANCH   9  10
ENDBRANCH   8   9
ENDBRANCH   4   8
BRANCH   1  15
HETATM   15  N2  UNL     1      23.790   4.234  49.970  1.00  0.00    -0.377 N 
HETATM   16  H5  UNL     1      22.843   4.149  49.481  1.00  0.00     0.160 HD
BRANCH  15  17
HETATM   17  C2  UNL     1      24.733   5.010  49.221  1.00  0.00     0.196 C 
HETATM   18  N1  UNL     1      26.007   4.839  49.535  1.00  0.00    -0.290 NA
HETATM   19  C1  UNL     1      26.925   5.661  48.731  1.00  0.00     0.179 C 
ENDBRANCH  15  17
ENDBRANCH   1  15
BRANCH   7  20
HETATM   20  C15 UNL     1      20.785   3.534  51.176  1.00  0.00     0.257 C 
HETATM   21  F1  UNL     1      20.397   3.632  52.495  1.00  0.00    -0.251 F 
ENDBRANCH   7  20
TORSDOF 6
ENDMDL
