MODEL 1
REMARK VINA RESULT:      -8.0      0.000      0.000
REMARK  5 active torsions:
REMARK  status: ('A' for Active; 'I' for Inactive)
REMARK    1  A    between atoms: C2_2  and  C3_3 
REMARK    2  A    between atoms: C4_4  and  N1_5 
REMARK    3  A    between atoms: C5_6  and  N2_7 
REMARK    4  A    between atoms: C12_17  and  O2_18 
REMARK    5  A    between atoms: O2_18  and  C13_19 
ROOT
HETATM    1  N2  UNL     1      24.263   0.367  52.435  1.00  0.00    -0.345 N 
HETATM    2  C6  UNL     1      24.146   1.566  51.587  1.00  0.00     0.276 C 
HETATM    3  N3  UNL     1      24.634   2.680  52.382  1.00  0.00    -0.266 NA
HETATM    4  C7  UNL     1      23.946   3.788  52.468  1.00  0.00     0.190 C 
HETATM    5  N4  UNL     1      22.729   4.235  51.937  1.00  0.00    -0.379 NA
HETATM    6  C8  UNL     1      21.547   3.919  52.304  1.00  0.00     0.471 C 
HETATM    7  O1  UNL     1      20.148   3.906  52.311  1.00  0.00    -0.331 OA
HETATM    8  C9  UNL     1      19.509   3.320  51.212  1.00  0.00     0.134 C 
HETATM    9  C10 UNL     1      19.414   2.018  51.548  1.00  0.00     0.006 C 
HETATM   10  C11 UNL     1      19.540   0.819  52.309  1.00  0.00     0.059 C 
HETATM   11  C12 UNL     1      19.941   0.223  53.415  1.00  0.00     0.108 C 
HETATM   12  C15 UNL     1      20.504  -0.018  54.733  1.00  0.00     0.061 C 
HETATM   13  C16 UNL     1      21.715  -0.863  54.858  1.00  0.00     0.118 C 
HETATM   14  N5  UNL     1      22.915  -0.364  54.267  1.00  0.00    -0.406 N 
HETATM   15  C17 UNL     1      23.026  -0.314  52.864  1.00  0.00     0.243 C 
HETATM   16  H20 UNL     1      23.324   0.412  54.795  1.00  0.00     0.154 HD
ENDROOT
BRANCH   1  17
HETATM   17  C5  UNL     1      25.569  -0.022  52.775  1.00  0.00     0.061 A 
HETATM   18  C4  UNL     1      26.522   0.557  53.713  1.00  0.00     0.062 A 
HETATM   19  C3  UNL     1      27.389  -0.375  53.403  1.00  0.00    -0.009 A 
HETATM   20  C18 UNL     1      26.458  -0.971  52.463  1.00  0.00     0.045 A 
BRANCH  18  21
HETATM   21  N1  UNL     1      26.729   1.601  54.648  1.00  0.00    -0.397 N 
HETATM   22  H4  UNL     1      27.177   1.475  55.587  1.00  0.00     0.156 HD
HETATM   23  H5  UNL     1      26.463   2.592  54.510  1.00  0.00     0.156 HD
ENDBRANCH  18  21
BRANCH  19  24
HETATM   24  C2  UNL     1      28.735  -0.740  53.784  1.00  0.00    -0.013 C 
HETATM   25  C1  UNL     1      29.807  -0.016  53.510  1.00  0.00     0.032 C 
ENDBRANCH  19  24
ENDBRANCH   1  17
BRANCH  11  26
HETATM   26  O2  UNL     1      19.434  -0.901  52.777  1.00  0.00    -0.311 OA
BRANCH  26  27
HETATM   27  C13 UNL     1      18.113  -1.340  52.993  1.00  0.00     0.351 C 
HETATM   28  C14 UNL     1      18.129  -2.714  53.621  1.00  0.00     0.126 C 
HETATM   29  F1  UNL     1      17.535  -1.496  51.730  1.00  0.00    -0.176 F 
HETATM   30  F2  UNL     1      17.418  -0.454  53.758  1.00  0.00    -0.176 F 
ENDBRANCH  26  27
ENDBRANCH  11  26
TORSDOF 5
ENDMDL
MODEL 2
REMARK VINA RESULT:      -7.8      2.787      4.880
REMARK  5 active torsions:
REMARK  status: ('A' for Active; 'I' for Inactive)
REMARK    1  A    between atoms: C2_2  and  C3_3 
REMARK    2  A    between atoms: C4_4  and  N1_5 
REMARK    3  A    between atoms: C5_6  and  N2_7 
REMARK    4  A    between atoms: C12_17  and  O2_18 
REMARK    5  A    between atoms: O2_18  and  C13_19 
ROOT
HETATM    1  N2  UNL     1      24.077   3.148  51.123  1.00  0.00    -0.345 N 
HETATM    2  C6  UNL     1      24.532   2.759  52.469  1.00  0.00     0.276 C 
HETATM    3  N3  UNL     1      25.609   1.802  52.277  1.00  0.00    -0.266 NA
HETATM    4  C7  UNL     1      25.624   0.676  52.940  1.00  0.00     0.190 C 
HETATM    5  N4  UNL     1      24.784   0.082  53.891  1.00  0.00    -0.379 NA
HETATM    6  C8  UNL     1      23.655  -0.484  53.699  1.00  0.00     0.471 C 
HETATM    7  O1  UNL     1      22.469  -1.158  54.012  1.00  0.00    -0.331 OA
HETATM    8  C9  UNL     1      21.516  -0.459  54.762  1.00  0.00     0.134 C 
HETATM    9  C10 UNL     1      20.778   0.182  53.833  1.00  0.00     0.006 C 
HETATM   10  C11 UNL     1      20.322   0.623  52.557  1.00  0.00     0.059 C 
HETATM   11  C12 UNL     1      20.450   0.600  51.244  1.00  0.00     0.108 C 
HETATM   12  C15 UNL     1      20.922   0.297  49.904  1.00  0.00     0.061 C 
HETATM   13  C16 UNL     1      21.508   1.383  49.082  1.00  0.00     0.118 C 
HETATM   14  N5  UNL     1      22.728   1.961  49.549  1.00  0.00    -0.406 N 
HETATM   15  C17 UNL     1      22.714   2.766  50.704  1.00  0.00     0.243 C 
HETATM   16  H20 UNL     1      23.533   1.342  49.420  1.00  0.00     0.154 HD
ENDROOT
BRANCH   1  17
HETATM   17  C5  UNL     1      25.004   3.852  50.338  1.00  0.00     0.061 A 
HETATM   18  C4  UNL     1      25.326   5.273  50.286  1.00  0.00     0.062 A 
HETATM   19  C3  UNL     1      26.219   5.034  49.359  1.00  0.00    -0.009 A 
HETATM   20  C18 UNL     1      25.918   3.615  49.391  1.00  0.00     0.045 A 
BRANCH  18  21
HETATM   21  N1  UNL     1      25.017   6.545  50.829  1.00  0.00    -0.397 N 
HETATM   22  H4  UNL     1      25.116   6.796  51.841  1.00  0.00     0.156 HD
HETATM   23  H5  UNL     1      24.662   7.356  50.293  1.00  0.00     0.156 HD
ENDBRANCH  18  21
BRANCH  19  24
HETATM   24  C2  UNL     1      27.161   5.798  48.571  1.00  0.00    -0.013 C 
HETATM   25  C1  UNL     1      28.419   5.443  48.369  1.00  0.00     0.032 C 
ENDBRANCH  19  24
ENDBRANCH   1  17
BRANCH  11  26
HETATM   26  O2  UNL     1      19.368   1.467  51.306  1.00  0.00    -0.311 OA
BRANCH  26  27
HETATM   27  C13 UNL     1      18.082   1.074  50.883  1.00  0.00     0.351 C 
HETATM   28  C14 UNL     1      17.731   1.783  49.596  1.00  0.00     0.126 C 
HETATM   29  F1  UNL     1      17.185   1.548  51.845  1.00  0.00    -0.176 F 
HETATM   30  F2  UNL     1      18.001  -0.277  50.741  1.00  0.00    -0.176 F 
ENDBRANCH  26  27
ENDBRANCH  11  26
TORSDOF 5
ENDMDL
MODEL 3
REMARK VINA RESULT:      -7.6      3.250      5.367
REMARK  5 active torsions:
REMARK  status: ('A' for Active; 'I' for Inactive)
REMARK    1  A    between atoms: C2_2  and  C3_3 
REMARK    2  A    between atoms: C4_4  and  N1_5 
REMARK    3  A    between atoms: C5_6  and  N2_7 
REMARK    4  A    between atoms: C12_17  and  O2_18 
REMARK    5  A    between atoms: O2_18  and  C13_19 
ROOT
HETATM    1  N2  UNL     1      24.741   1.578  53.299  1.00  0.00    -0.345 N 
HETATM    2  C6  UNL     1      23.515   0.916  53.778  1.00  0.00     0.276 C 
HETATM    3  N3  UNL     1      23.415  -0.339  53.050  1.00  0.00    -0.266 NA
HETATM    4  C7  UNL     1      22.292  -0.691  52.482  1.00  0.00     0.190 C 
HETATM    5  N4  UNL     1      21.018  -0.115  52.378  1.00  0.00    -0.379 NA
HETATM    6  C8  UNL     1      20.652   0.856  51.632  1.00  0.00     0.471 C 
HETATM    7  O1  UNL     1      19.799   1.806  51.062  1.00  0.00    -0.331 OA
HETATM    8  C9  UNL     1      19.327   2.825  51.899  1.00  0.00     0.134 C 
HETATM    9  C10 UNL     1      20.273   3.782  51.810  1.00  0.00     0.006 C 
HETATM   10  C11 UNL     1      21.467   4.451  51.412  1.00  0.00     0.059 C 
HETATM   11  C12 UNL     1      22.578   4.447  50.700  1.00  0.00     0.108 C 
HETATM   12  C15 UNL     1      23.642   4.045  49.796  1.00  0.00     0.061 C 
HETATM   13  C16 UNL     1      25.004   3.823  50.337  1.00  0.00     0.118 C 
HETATM   14  N5  UNL     1      25.166   2.741  51.256  1.00  0.00    -0.406 N 
HETATM   15  C17 UNL     1      24.608   2.840  52.545  1.00  0.00     0.243 C 
HETATM   16  H20 UNL     1      25.127   1.825  50.799  1.00  0.00     0.154 HD
ENDROOT
BRANCH   1  17
HETATM   17  C5  UNL     1      25.949   0.929  53.597  1.00  0.00     0.061 A 
HETATM   18  C4  UNL     1      27.286   1.462  53.827  1.00  0.00     0.062 A 
HETATM   19  C3  UNL     1      27.735   0.247  54.017  1.00  0.00    -0.009 A 
HETATM   20  C18 UNL     1      26.414  -0.310  53.793  1.00  0.00     0.045 A 
BRANCH  18  21
HETATM   21  N1  UNL     1      28.059   2.648  53.887  1.00  0.00    -0.397 N 
HETATM   22  H4  UNL     1      28.308   3.236  53.056  1.00  0.00     0.156 HD
HETATM   23  H5  UNL     1      28.458   3.061  54.749  1.00  0.00     0.156 HD
ENDBRANCH  18  21
BRANCH  19  24
HETATM   24  C2  UNL     1      29.001  -0.380  54.327  1.00  0.00    -0.013 C 
HETATM   25  C1  UNL     1      29.890  -0.745  53.419  1.00  0.00     0.032 C 
ENDBRANCH  19  24
ENDBRANCH   1  17
BRANCH  11  26
HETATM   26  O2  UNL     1      22.739   5.697  51.282  1.00  0.00    -0.311 OA
BRANCH  26  27
HETATM   27  C13 UNL     1      22.529   6.884  50.552  1.00  0.00     0.351 C 
HETATM   28  C14 UNL     1      23.759   7.757  50.635  1.00  0.00     0.126 C 
HETATM   29  F1  UNL     1      21.513   7.581  51.212  1.00  0.00    -0.176 F 
HETATM   30  F2  UNL     1      22.198   6.616  49.260  1.00  0.00    -0.176 F 
ENDBRANCH  26  27
ENDBRANCH  11  26
TORSDOF 5
ENDMDL
MODEL 4
REMARK VINA RESULT:      -7.4      3.881      7.851
REMARK  5 active torsions:
REMARK  status: ('A' for Active; 'I' for Inactive)
REMARK    1  A    between atoms: C2_2  and  C3_3 
REMARK    2  A    between atoms: C4_4  and  N1_5 
REMARK    3  A    between atoms: C5_6  and  N2_7 
REMARK    4  A    between atoms: C12_17  and  O2_18 
REMARK    5  A    between atoms: O2_18  and  C13_19 
ROOT
HETATM    1  N2  UNL     1      21.428  -0.132  52.340  1.00  0.00    -0.345 N 
HETATM    2  C6  UNL     1      22.129  -1.254  52.988  1.00  0.00     0.276 C 
HETATM    3  N3  UNL     1      21.828  -1.162  54.407  1.00  0.00    -0.266 NA
HETATM    4  C7  UNL     1      22.782  -1.244  55.296  1.00  0.00     0.190 C 
HETATM    5  N4  UNL     1      24.171  -1.417  55.237  1.00  0.00    -0.379 NA
HETATM    6  C8  UNL     1      25.058  -0.554  54.920  1.00  0.00     0.471 C 
HETATM    7  O1  UNL     1      26.332  -0.031  54.670  1.00  0.00    -0.331 OA
HETATM    8  C9  UNL     1      27.014  -0.522  53.550  1.00  0.00     0.134 C 
HETATM    9  C10 UNL     1      26.607   0.279  52.545  1.00  0.00     0.006 C 
HETATM   10  C11 UNL     1      25.921   1.325  51.860  1.00  0.00     0.059 C 
HETATM   11  C12 UNL     1      25.083   2.342  51.907  1.00  0.00     0.108 C 
HETATM   12  C15 UNL     1      24.155   3.351  52.388  1.00  0.00     0.061 C 
HETATM   13  C16 UNL     1      22.751   3.326  51.914  1.00  0.00     0.118 C 
HETATM   14  N5  UNL     1      21.961   2.197  52.292  1.00  0.00    -0.406 N 
HETATM   15  C17 UNL     1      22.236   0.939  51.723  1.00  0.00     0.243 C 
HETATM   16  H20 UNL     1      21.695   2.214  53.281  1.00  0.00     0.154 HD
ENDROOT
BRANCH   1  17
HETATM   17  C5  UNL     1      20.026  -0.175  52.380  1.00  0.00     0.061 A 
HETATM   18  C4  UNL     1      19.119  -1.006  53.162  1.00  0.00     0.062 A 
HETATM   19  C3  UNL     1      18.095  -0.412  52.602  1.00  0.00    -0.009 A 
HETATM   20  C18 UNL     1      18.976   0.428  51.812  1.00  0.00     0.045 A 
BRANCH  18  21
HETATM   21  N1  UNL     1      19.048  -2.036  54.133  1.00  0.00    -0.397 N 
HETATM   22  H4  UNL     1      19.686  -2.115  54.961  1.00  0.00     0.156 HD
HETATM   23  H5  UNL     1      18.368  -2.816  54.131  1.00  0.00     0.156 HD
ENDBRANCH  18  21
BRANCH  19  24
HETATM   24  C2  UNL     1      16.653  -0.490  52.675  1.00  0.00    -0.013 C 
HETATM   25  C1  UNL     1      15.940  -1.506  52.217  1.00  0.00     0.032 C 
ENDBRANCH  19  24
ENDBRANCH   1  17
BRANCH  11  26
HETATM   26  O2  UNL     1      25.358   2.395  50.547  1.00  0.00    -0.311 OA
BRANCH  26  27
HETATM   27  C13 UNL     1      26.333   3.267  50.024  1.00  0.00     0.351 C 
HETATM   28  C14 UNL     1      25.664   4.497  49.456  1.00  0.00     0.126 C 
HETATM   29  F1  UNL     1      26.917   2.606  48.940  1.00  0.00    -0.176 F 
HETATM   30  F2  UNL     1      27.256   3.597  50.968  1.00  0.00    -0.176 F 
ENDBRANCH  26  27
ENDBRANCH  11  26
TORSDOF 5
ENDMDL
MODEL 5
REMARK VINA RESULT:      -7.3      3.322      6.483
REMARK  5 active torsions:
REMARK  status: ('A' for Active; 'I' for Inactive)
REMARK    1  A    between atoms: C2_2  and  C3_3 
REMARK    2  A    between atoms: C4_4  and  N1_5 
REMARK    3  A    between atoms: C5_6  and  N2_7 
REMARK    4  A    between atoms: C12_17  and  O2_18 
REMARK    5  A    between atoms: O2_18  and  C13_19 
ROOT
HETATM    1  N2  UNL     1      23.142   4.661  51.226  1.00  0.00    -0.345 N 
HETATM    2  C6  UNL     1      24.576   4.662  51.562  1.00  0.00     0.276 C 
HETATM    3  N3  UNL     1      25.293   4.592  50.299  1.00  0.00    -0.266 NA
HETATM    4  C7  UNL     1      26.265   3.733  50.133  1.00  0.00     0.190 C 
HETATM    5  N4  UNL     1      26.865   2.757  50.939  1.00  0.00    -0.379 NA
HETATM    6  C8  UNL     1      26.409   1.604  51.250  1.00  0.00     0.471 C 
HETATM    7  O1  UNL     1      26.371   0.340  51.847  1.00  0.00    -0.331 OA
HETATM    8  C9  UNL     1      26.257   0.295  53.242  1.00  0.00     0.134 C 
HETATM    9  C10 UNL     1      24.926   0.318  53.459  1.00  0.00     0.006 C 
HETATM   10  C11 UNL     1      23.526   0.357  53.192  1.00  0.00     0.059 C 
HETATM   11  C12 UNL     1      22.549   0.402  52.308  1.00  0.00     0.108 C 
HETATM   12  C15 UNL     1      21.815   0.444  51.054  1.00  0.00     0.061 C 
HETATM   13  C16 UNL     1      21.011   1.645  50.729  1.00  0.00     0.118 C 
HETATM   14  N5  UNL     1      21.723   2.868  50.533  1.00  0.00    -0.406 N 
HETATM   15  C17 UNL     1      22.326   3.501  51.637  1.00  0.00     0.243 C 
HETATM   16  H20 UNL     1      22.234   2.890  49.646  1.00  0.00     0.154 HD
ENDROOT
BRANCH   1  17
HETATM   17  C5  UNL     1      22.672   5.780  50.521  1.00  0.00     0.061 A 
HETATM   18  C4  UNL     1      23.076   7.180  50.575  1.00  0.00     0.062 A 
HETATM   19  C3  UNL     1      22.183   7.469  49.662  1.00  0.00    -0.009 A 
HETATM   20  C18 UNL     1      21.762   6.082  49.589  1.00  0.00     0.045 A 
BRANCH  18  21
HETATM   21  N1  UNL     1      23.957   8.101  51.192  1.00  0.00    -0.397 N 
HETATM   22  H4  UNL     1      24.967   8.215  50.940  1.00  0.00     0.156 HD
HETATM   23  H5  UNL     1      23.703   8.757  51.953  1.00  0.00     0.156 HD
ENDBRANCH  18  21
BRANCH  19  24
HETATM   24  C2  UNL     1      21.730   8.648  48.958  1.00  0.00    -0.013 C 
HETATM   25  C1  UNL     1      20.727   9.412  49.356  1.00  0.00     0.032 C 
ENDBRANCH  19  24
ENDBRANCH   1  17
BRANCH  11  26
HETATM   26  O2  UNL     1      21.760   0.396  53.451  1.00  0.00    -0.311 OA
BRANCH  26  27
HETATM   27  C13 UNL     1      21.196  -0.793  53.954  1.00  0.00     0.351 C 
HETATM   28  C14 UNL     1      19.715  -0.819  53.656  1.00  0.00     0.126 C 
HETATM   29  F1  UNL     1      21.312  -0.730  55.345  1.00  0.00    -0.176 F 
HETATM   30  F2  UNL     1      21.822  -1.889  53.446  1.00  0.00    -0.176 F 
ENDBRANCH  26  27
ENDBRANCH  11  26
TORSDOF 5
ENDMDL
MODEL 6
REMARK VINA RESULT:      -7.1      1.859      2.232
REMARK  5 active torsions:
REMARK  status: ('A' for Active; 'I' for Inactive)
REMARK    1  A    between atoms: C2_2  and  C3_3 
REMARK    2  A    between atoms: C4_4  and  N1_5 
REMARK    3  A    between atoms: C5_6  and  N2_7 
REMARK    4  A    between atoms: C12_17  and  O2_18 
REMARK    5  A    between atoms: O2_18  and  C13_19 
ROOT
HETATM    1  N2  UNL     1      24.280   1.774  51.314  1.00  0.00    -0.345 N 
HETATM    2  C6  UNL     1      24.375   2.927  50.402  1.00  0.00     0.276 C 
HETATM    3  N3  UNL     1      24.802   4.056  51.211  1.00  0.00    -0.266 NA
HETATM    4  C7  UNL     1      24.182   5.204  51.131  1.00  0.00     0.190 C 
HETATM    5  N4  UNL     1      23.095   5.687  50.389  1.00  0.00    -0.379 NA
HETATM    6  C8  UNL     1      21.852   5.458  50.575  1.00  0.00     0.471 C 
HETATM    7  O1  UNL     1      20.472   5.524  50.357  1.00  0.00    -0.331 OA
HETATM    8  C9  UNL     1      19.978   4.912  49.198  1.00  0.00     0.134 C 
HETATM    9  C10 UNL     1      19.748   3.638  49.577  1.00  0.00     0.006 C 
HETATM   10  C11 UNL     1      19.674   2.480  50.406  1.00  0.00     0.059 C 
HETATM   11  C12 UNL     1      19.857   1.929  51.590  1.00  0.00     0.108 C 
HETATM   12  C15 UNL     1      20.187   1.734  52.991  1.00  0.00     0.061 C 
HETATM   13  C16 UNL     1      21.306   0.831  53.351  1.00  0.00     0.118 C 
HETATM   14  N5  UNL     1      22.614   1.227  52.938  1.00  0.00    -0.406 N 
HETATM   15  C17 UNL     1      22.948   1.190  51.570  1.00  0.00     0.243 C 
HETATM   16  H20 UNL     1      22.983   2.009  53.487  1.00  0.00     0.154 HD
ENDROOT
BRANCH   1  17
HETATM   17  C5  UNL     1      25.487   1.334  51.879  1.00  0.00     0.061 A 
HETATM   18  C4  UNL     1      26.260   1.852  53.001  1.00  0.00     0.062 A 
HETATM   19  C3  UNL     1      27.146   0.904  52.825  1.00  0.00    -0.009 A 
HETATM   20  C18 UNL     1      26.395   0.368  51.704  1.00  0.00     0.045 A 
BRANCH  18  21
HETATM   21  N1  UNL     1      26.312   2.858  53.997  1.00  0.00    -0.397 N 
HETATM   22  H4  UNL     1      27.191   3.330  54.317  1.00  0.00     0.156 HD
HETATM   23  H5  UNL     1      25.496   3.234  54.513  1.00  0.00     0.156 HD
ENDBRANCH  18  21
BRANCH  19  24
HETATM   24  C2  UNL     1      28.386   0.484  53.438  1.00  0.00    -0.013 C 
HETATM   25  C1  UNL     1      28.474  -0.049  54.645  1.00  0.00     0.032 C 
ENDBRANCH  19  24
ENDBRANCH   1  17
BRANCH  11  26
HETATM   26  O2  UNL     1      19.386   0.800  50.933  1.00  0.00    -0.311 OA
BRANCH  26  27
HETATM   27  C13 UNL     1      18.178   0.178  51.306  1.00  0.00     0.351 C 
HETATM   28  C14 UNL     1      17.393  -0.192  50.069  1.00  0.00     0.126 C 
HETATM   29  F1  UNL     1      17.421   1.148  51.970  1.00  0.00    -0.176 F 
HETATM   30  F2  UNL     1      18.404  -0.909  52.093  1.00  0.00    -0.176 F 
ENDBRANCH  26  27
ENDBRANCH  11  26
TORSDOF 5
ENDMDL
MODEL 7
REMARK VINA RESULT:      -7.0      3.947      7.756
REMARK  5 active torsions:
REMARK  status: ('A' for Active; 'I' for Inactive)
REMARK    1  A    between atoms: C2_2  and  C3_3 
REMARK    2  A    between atoms: C4_4  and  N1_5 
REMARK    3  A    between atoms: C5_6  and  N2_7 
REMARK    4  A    between atoms: C12_17  and  O2_18 
REMARK    5  A    between atoms: O2_18  and  C13_19 
ROOT
HETATM    1  N2  UNL     1      21.245   0.734  51.532  1.00  0.00    -0.345 N 
HETATM    2  C6  UNL     1      22.279  -0.280  51.796  1.00  0.00     0.276 C 
HETATM    3  N3  UNL     1      22.206  -0.580  53.217  1.00  0.00    -0.266 NA
HETATM    4  C7  UNL     1      23.289  -0.602  53.948  1.00  0.00     0.190 C 
HETATM    5  N4  UNL     1      24.652  -0.391  53.697  1.00  0.00    -0.379 NA
HETATM    6  C8  UNL     1      25.255   0.720  53.514  1.00  0.00     0.471 C 
HETATM    7  O1  UNL     1      26.316   1.597  53.267  1.00  0.00    -0.331 OA
HETATM    8  C9  UNL     1      26.896   1.556  51.992  1.00  0.00     0.134 C 
HETATM    9  C10 UNL     1      26.155   2.422  51.271  1.00  0.00     0.006 C 
HETATM   10  C11 UNL     1      25.146   3.376  50.950  1.00  0.00     0.059 C 
HETATM   11  C12 UNL     1      24.119   4.105  51.341  1.00  0.00     0.108 C 
HETATM   12  C15 UNL     1      23.080   4.710  52.158  1.00  0.00     0.061 C 
HETATM   13  C16 UNL     1      21.660   4.423  51.848  1.00  0.00     0.118 C 
HETATM   14  N5  UNL     1      21.221   3.074  52.014  1.00  0.00    -0.406 N 
HETATM   15  C17 UNL     1      21.675   2.085  51.120  1.00  0.00     0.243 C 
HETATM   16  H20 UNL     1      21.127   2.807  52.998  1.00  0.00     0.154 HD
ENDROOT
BRANCH   1  17
HETATM   17  C5  UNL     1      19.915   0.320  51.711  1.00  0.00     0.061 A 
HETATM   18  C4  UNL     1      19.273  -0.373  52.820  1.00  0.00     0.062 A 
HETATM   19  C3  UNL     1      18.133  -0.343  52.176  1.00  0.00    -0.009 A 
HETATM   20  C18 UNL     1      18.748   0.348  51.058  1.00  0.00     0.045 A 
BRANCH  18  21
HETATM   21  N1  UNL     1      19.485  -0.939  54.102  1.00  0.00    -0.397 N 
HETATM   22  H4  UNL     1      19.300  -0.443  55.006  1.00  0.00     0.156 HD
HETATM   23  H5  UNL     1      19.841  -1.894  54.285  1.00  0.00     0.156 HD
ENDBRANCH  18  21
BRANCH  19  24
HETATM   24  C2  UNL     1      16.776  -0.785  52.402  1.00  0.00    -0.013 C 
HETATM   25  C1  UNL     1      15.743   0.029  52.542  1.00  0.00     0.032 C 
ENDBRANCH  19  24
ENDBRANCH   1  17
BRANCH  11  26
HETATM   26  O2  UNL     1      24.144   4.521  50.017  1.00  0.00    -0.311 OA
BRANCH  26  27
HETATM   27  C13 UNL     1      24.723   5.749  49.639  1.00  0.00     0.351 C 
HETATM   28  C14 UNL     1      23.673   6.637  49.013  1.00  0.00     0.126 C 
HETATM   29  F1  UNL     1      25.642   5.460  48.626  1.00  0.00    -0.176 F 
HETATM   30  F2  UNL     1      25.319   6.360  50.699  1.00  0.00    -0.176 F 
ENDBRANCH  26  27
ENDBRANCH  11  26
TORSDOF 5
ENDMDL
MODEL 8
REMARK VINA RESULT:      -6.6      8.680     10.462
REMARK  5 active torsions:
REMARK  status: ('A' for Active; 'I' for Inactive)
REMARK    1  A    between atoms: C2_2  and  C3_3 
REMARK    2  A    between atoms: C4_4  and  N1_5 
REMARK    3  A    between atoms: C5_6  and  N2_7 
REMARK    4  A    between atoms: C12_17  and  O2_18 
REMARK    5  A    between atoms: O2_18  and  C13_19 
ROOT
HETATM    1  N2  UNL     1      30.031   7.283  47.393  1.00  0.00    -0.345 N 
HETATM    2  C6  UNL     1      30.338   8.714  47.222  1.00  0.00     0.276 C 
HETATM    3  N3  UNL     1      31.014   9.136  48.438  1.00  0.00    -0.266 NA
HETATM    4  C7  UNL     1      30.645  10.225  49.060  1.00  0.00     0.190 C 
HETATM    5  N4  UNL     1      29.662  11.200  48.841  1.00  0.00    -0.379 NA
HETATM    6  C8  UNL     1      28.405  11.109  49.047  1.00  0.00     0.471 C 
HETATM    7  O1  UNL     1      27.063  11.503  49.087  1.00  0.00    -0.331 OA
HETATM    8  C9  UNL     1      26.420  11.707  47.860  1.00  0.00     0.134 C 
HETATM    9  C10 UNL     1      25.940  10.488  47.539  1.00  0.00     0.006 C 
HETATM   10  C11 UNL     1      25.650   9.095  47.634  1.00  0.00     0.059 C 
HETATM   11  C12 UNL     1      25.747   7.968  48.311  1.00  0.00     0.108 C 
HETATM   12  C15 UNL     1      26.069   6.993  49.339  1.00  0.00     0.061 C 
HETATM   13  C16 UNL     1      26.985   5.875  49.012  1.00  0.00     0.118 C 
HETATM   14  N5  UNL     1      28.335   6.216  48.695  1.00  0.00    -0.406 N 
HETATM   15  C17 UNL     1      28.615   6.875  47.482  1.00  0.00     0.243 C 
HETATM   16  H20 UNL     1      28.874   6.503  49.517  1.00  0.00     0.154 HD
ENDROOT
BRANCH   1  17
HETATM   17  C5  UNL     1      31.135   6.420  47.470  1.00  0.00     0.061 A 
HETATM   18  C4  UNL     1      31.785   5.803  48.620  1.00  0.00     0.062 A 
HETATM   19  C3  UNL     1      32.640   5.218  47.819  1.00  0.00    -0.009 A 
HETATM   20  C18 UNL     1      32.011   5.820  46.658  1.00  0.00     0.045 A 
BRANCH  18  21
HETATM   21  N1  UNL     1      31.760   5.685  50.032  1.00  0.00    -0.397 N 
HETATM   22  H4  UNL     1      31.690   6.496  50.693  1.00  0.00     0.156 HD
HETATM   23  H5  UNL     1      31.806   4.796  50.560  1.00  0.00     0.156 HD
ENDBRANCH  18  21
BRANCH  19  24
HETATM   24  C2  UNL     1      33.772   4.328  47.944  1.00  0.00    -0.013 C 
HETATM   25  C1  UNL     1      33.720   3.025  47.721  1.00  0.00     0.032 C 
ENDBRANCH  19  24
ENDBRANCH   1  17
BRANCH  11  26
HETATM   26  O2  UNL     1      25.033   7.470  47.230  1.00  0.00    -0.311 OA
BRANCH  26  27
HETATM   27  C13 UNL     1      23.718   6.984  47.374  1.00  0.00     0.351 C 
HETATM   28  C14 UNL     1      22.970   7.144  46.071  1.00  0.00     0.126 C 
HETATM   29  F1  UNL     1      23.083   7.823  48.293  1.00  0.00    -0.176 F 
HETATM   30  F2  UNL     1      23.714   5.688  47.790  1.00  0.00    -0.176 F 
ENDBRANCH  26  27
ENDBRANCH  11  26
TORSDOF 5
ENDMDL
MODEL 9
REMARK VINA RESULT:      -6.6      2.554      5.601
REMARK  5 active torsions:
REMARK  status: ('A' for Active; 'I' for Inactive)
REMARK    1  A    between atoms: C2_2  and  C3_3 
REMARK    2  A    between atoms: C4_4  and  N1_5 
REMARK    3  A    between atoms: C5_6  and  N2_7 
REMARK    4  A    between atoms: C12_17  and  O2_18 
REMARK    5  A    between atoms: O2_18  and  C13_19 
ROOT
HETATM    1  N2  UNL     1      22.181   4.308  51.748  1.00  0.00    -0.345 N 
HETATM    2  C6  UNL     1      23.245   3.908  52.684  1.00  0.00     0.276 C 
HETATM    3  N3  UNL     1      24.427   3.652  51.877  1.00  0.00    -0.266 NA
HETATM    4  C7  UNL     1      25.124   2.559  52.046  1.00  0.00     0.190 C 
HETATM    5  N4  UNL     1      25.022   1.448  52.893  1.00  0.00    -0.379 NA
HETATM    6  C8  UNL     1      24.210   0.465  52.807  1.00  0.00     0.471 C 
HETATM    7  O1  UNL     1      23.594  -0.745  53.145  1.00  0.00    -0.331 OA
HETATM    8  C9  UNL     1      22.836  -0.768  54.322  1.00  0.00     0.134 C 
HETATM    9  C10 UNL     1      21.607  -0.379  53.925  1.00  0.00     0.006 C 
HETATM   10  C11 UNL     1      20.550   0.050  53.070  1.00  0.00     0.059 C 
HETATM   11  C12 UNL     1      20.141   0.372  51.858  1.00  0.00     0.108 C 
HETATM   12  C15 UNL     1      20.112   0.627  50.428  1.00  0.00     0.061 C 
HETATM   13  C16 UNL     1      19.869   2.008  49.946  1.00  0.00     0.118 C 
HETATM   14  N5  UNL     1      20.862   2.986  50.257  1.00  0.00    -0.406 N 
HETATM   15  C17 UNL     1      21.014   3.417  51.589  1.00  0.00     0.243 C 
HETATM   16  H20 UNL     1      21.716   2.873  49.703  1.00  0.00     0.154 HD
ENDROOT
BRANCH   1  17
HETATM   17  C5  UNL     1      22.381   5.519  51.068  1.00  0.00     0.061 A 
HETATM   18  C4  UNL     1      23.388   6.558  51.245  1.00  0.00     0.062 A 
HETATM   19  C3  UNL     1      22.850   7.243  50.267  1.00  0.00    -0.009 A 
HETATM   20  C18 UNL     1      21.836   6.224  50.070  1.00  0.00     0.045 A 
BRANCH  18  21
HETATM   21  N1  UNL     1      24.522   6.946  52.001  1.00  0.00    -0.397 N 
HETATM   22  H4  UNL     1      25.498   6.611  51.818  1.00  0.00     0.156 HD
HETATM   23  H5  UNL     1      24.512   7.595  52.807  1.00  0.00     0.156 HD
ENDBRANCH  18  21
BRANCH  19  24
HETATM   24  C2  UNL     1      23.093   8.498  49.593  1.00  0.00    -0.013 C 
HETATM   25  C1  UNL     1      23.989   8.665  48.634  1.00  0.00     0.032 C 
ENDBRANCH  19  24
ENDBRANCH   1  17
BRANCH  11  26
HETATM   26  O2  UNL     1      18.936   0.576  52.517  1.00  0.00    -0.311 OA
BRANCH  26  27
HETATM   27  C13 UNL     1      17.799  -0.206  52.236  1.00  0.00     0.351 C 
HETATM   28  C14 UNL     1      17.707  -1.345  53.225  1.00  0.00     0.126 C 
HETATM   29  F1  UNL     1      18.019  -0.793  50.987  1.00  0.00    -0.176 F 
HETATM   30  F2  UNL     1      16.666   0.548  52.244  1.00  0.00    -0.176 F 
ENDBRANCH  26  27
ENDBRANCH  11  26
TORSDOF 5
ENDMDL
