MODEL 1
REMARK VINA RESULT:      -8.5      0.000      0.000
REMARK  5 active torsions:
REMARK  status: ('A' for Active; 'I' for Inactive)
REMARK    1  A    between atoms: O1_1  and  C1_2 
REMARK    2  A    between atoms: S1_4  and  C3_5 
REMARK    3  A    between atoms: C3_5  and  N1_6 
REMARK    4  A    between atoms: C4_8  and  C5_9 
REMARK    5  A    between atoms: C11_16  and  C12_17 
ROOT
HETATM    1  N1  UNL     1      24.924   1.177  52.917  1.00  0.00    -0.280 N 
HETATM    2  N2  UNL     1      25.032   1.301  51.531  1.00  0.00    -0.177 NA
HETATM    3  C4  UNL     1      23.799   1.669  51.467  1.00  0.00     0.093 A 
HETATM    4  C11 UNL     1      23.551   1.579  52.917  1.00  0.00     0.192 A 
ENDROOT
BRANCH   1   5
HETATM    5  C3  UNL     1      26.028   0.759  53.766  1.00  0.00     0.231 C 
BRANCH   5   6
HETATM    6  S1  UNL     1      27.303   0.096  52.700  1.00  0.00    -0.086 SA
HETATM    7  C2  UNL     1      27.114  -1.656  52.605  1.00  0.00     0.086 A 
HETATM    8  C1  UNL     1      28.217  -2.094  53.177  1.00  0.00     0.065 A 
HETATM    9  C18 UNL     1      29.176  -1.088  53.671  1.00  0.00     0.186 A 
HETATM   10  N3  UNL     1      28.683   0.216  53.414  1.00  0.00    -0.178 NA
BRANCH   8  11
HETATM   11  O1  UNL     1      28.629  -3.424  53.393  1.00  0.00    -0.363 OA
HETATM   12  H1  UNL     1      28.190  -4.111  52.788  1.00  0.00     0.217 HD
ENDBRANCH   8  11
ENDBRANCH   5   6
ENDBRANCH   1   5
BRANCH   4  13
HETATM   13  C12 UNL     1      22.613   0.504  53.317  1.00  0.00    -0.028 A 
HETATM   14  C13 UNL     1      21.291   0.952  53.413  1.00  0.00     0.012 A 
HETATM   15  C14 UNL     1      20.294   0.069  53.778  1.00  0.00     0.043 A 
HETATM   16  C15 UNL     1      20.632  -1.236  54.036  1.00  0.00     0.116 A 
HETATM   17  F2  UNL     1      19.653  -2.099  54.393  1.00  0.00    -0.206 F 
HETATM   18  C16 UNL     1      21.939  -1.712  53.949  1.00  0.00     0.043 A 
HETATM   19  C17 UNL     1      22.936  -0.829  53.585  1.00  0.00     0.012 A 
ENDBRANCH   4  13
BRANCH   3  20
HETATM   20  C5  UNL     1      22.906   2.053  50.369  1.00  0.00    -0.007 A 
HETATM   21  C6  UNL     1      22.858   3.307  49.795  1.00  0.00     0.016 A 
HETATM   22  C7  UNL     1      21.993   3.604  48.763  1.00  0.00     0.043 A 
HETATM   23  C8  UNL     1      21.132   2.642  48.259  1.00  0.00     0.116 A 
HETATM   24  F1  UNL     1      20.256   2.875  47.240  1.00  0.00    -0.206 F 
HETATM   25  C9  UNL     1      21.143   1.372  48.800  1.00  0.00     0.043 A 
HETATM   26  C10 UNL     1      22.016   1.126  49.820  1.00  0.00     0.016 A 
ENDBRANCH   3  20
TORSDOF 5
ENDMDL
MODEL 2
REMARK VINA RESULT:      -8.4      3.633      6.352
REMARK  5 active torsions:
REMARK  status: ('A' for Active; 'I' for Inactive)
REMARK    1  A    between atoms: O1_1  and  C1_2 
REMARK    2  A    between atoms: S1_4  and  C3_5 
REMARK    3  A    between atoms: C3_5  and  N1_6 
REMARK    4  A    between atoms: C4_8  and  C5_9 
REMARK    5  A    between atoms: C11_16  and  C12_17 
ROOT
HETATM    1  N1  UNL     1      24.465   2.522  52.640  1.00  0.00    -0.280 N 
HETATM    2  N2  UNL     1      25.736   2.380  53.201  1.00  0.00    -0.177 NA
HETATM    3  C4  UNL     1      25.761   1.145  52.833  1.00  0.00     0.093 A 
HETATM    4  C11 UNL     1      24.428   1.160  52.204  1.00  0.00     0.192 A 
ENDROOT
BRANCH   1   5
HETATM    5  C3  UNL     1      23.719   3.769  52.668  1.00  0.00     0.231 C 
BRANCH   5   6
HETATM    6  S1  UNL     1      23.664   4.399  50.994  1.00  0.00    -0.086 SA
HETATM    7  C2  UNL     1      25.282   4.307  50.296  1.00  0.00     0.086 A 
HETATM    8  C1  UNL     1      25.587   5.576  50.114  1.00  0.00     0.065 A 
HETATM    9  C18 UNL     1      24.585   6.583  50.508  1.00  0.00     0.186 A 
HETATM   10  N3  UNL     1      23.435   5.940  51.032  1.00  0.00    -0.178 NA
BRANCH   8  11
HETATM   11  O1  UNL     1      26.768   6.129  49.580  1.00  0.00    -0.363 OA
HETATM   12  H1  UNL     1      26.961   5.876  48.616  1.00  0.00     0.217 HD
ENDBRANCH   8  11
ENDBRANCH   5   6
ENDBRANCH   1   5
BRANCH   4  13
HETATM   13  C12 UNL     1      23.409   0.337  52.897  1.00  0.00    -0.028 A 
HETATM   14  C13 UNL     1      22.189   0.305  52.214  1.00  0.00     0.012 A 
HETATM   15  C14 UNL     1      21.134  -0.420  52.731  1.00  0.00     0.043 A 
HETATM   16  C15 UNL     1      21.316  -1.096  53.912  1.00  0.00     0.116 A 
HETATM   17  F2  UNL     1      20.280  -1.806  54.417  1.00  0.00    -0.206 F 
HETATM   18  C16 UNL     1      22.519  -1.084  54.615  1.00  0.00     0.043 A 
HETATM   19  C17 UNL     1      23.574  -0.358  54.098  1.00  0.00     0.012 A 
ENDBRANCH   4  13
BRANCH   3  20
HETATM   20  C5  UNL     1      26.740   0.063  52.966  1.00  0.00    -0.007 A 
HETATM   21  C6  UNL     1      26.585  -1.208  52.450  1.00  0.00     0.016 A 
HETATM   22  C7  UNL     1      27.547  -2.183  52.610  1.00  0.00     0.043 A 
HETATM   23  C8  UNL     1      28.717  -1.919  53.305  1.00  0.00     0.116 A 
HETATM   24  F1  UNL     1      29.703  -2.841  53.495  1.00  0.00    -0.206 F 
HETATM   25  C9  UNL     1      28.919  -0.662  53.840  1.00  0.00     0.043 A 
HETATM   26  C10 UNL     1      27.939   0.270  53.654  1.00  0.00     0.016 A 
ENDBRANCH   3  20
TORSDOF 5
ENDMDL
MODEL 3
REMARK VINA RESULT:      -8.3      3.949      6.530
REMARK  5 active torsions:
REMARK  status: ('A' for Active; 'I' for Inactive)
REMARK    1  A    between atoms: O1_1  and  C1_2 
REMARK    2  A    between atoms: S1_4  and  C3_5 
REMARK    3  A    between atoms: C3_5  and  N1_6 
REMARK    4  A    between atoms: C4_8  and  C5_9 
REMARK    5  A    between atoms: C11_16  and  C12_17 
ROOT
HETATM    1  N1  UNL     1      24.958   2.761  51.208  1.00  0.00    -0.280 N 
HETATM    2  N2  UNL     1      23.766   2.141  50.830  1.00  0.00    -0.177 NA
HETATM    3  C4  UNL     1      23.650   1.641  52.012  1.00  0.00     0.093 A 
HETATM    4  C11 UNL     1      24.891   2.238  52.538  1.00  0.00     0.192 A 
ENDROOT
BRANCH   1   5
HETATM    5  C3  UNL     1      25.746   3.586  50.306  1.00  0.00     0.231 C 
BRANCH   5   6
HETATM    6  S1  UNL     1      24.714   4.956  49.795  1.00  0.00    -0.086 SA
HETATM    7  C2  UNL     1      25.744   6.342  49.431  1.00  0.00     0.086 A 
HETATM    8  C1  UNL     1      25.389   7.213  50.354  1.00  0.00     0.065 A 
HETATM    9  C18 UNL     1      24.345   6.805  51.312  1.00  0.00     0.186 A 
HETATM   10  N3  UNL     1      23.915   5.485  51.025  1.00  0.00    -0.178 NA
BRANCH   8  11
HETATM   11  O1  UNL     1      25.876   8.518  50.567  1.00  0.00    -0.363 OA
HETATM   12  H1  UNL     1      26.129   8.728  51.527  1.00  0.00     0.217 HD
ENDBRANCH   8  11
ENDBRANCH   5   6
ENDBRANCH   1   5
BRANCH   4  13
HETATM   13  C12 UNL     1      25.961   1.262  52.852  1.00  0.00    -0.028 A 
HETATM   14  C13 UNL     1      26.540   1.483  54.106  1.00  0.00     0.012 A 
HETATM   15  C14 UNL     1      27.555   0.658  54.546  1.00  0.00     0.043 A 
HETATM   16  C15 UNL     1      27.969  -0.368  53.733  1.00  0.00     0.116 A 
HETATM   17  F2  UNL     1      28.964  -1.176  54.168  1.00  0.00    -0.206 F 
HETATM   18  C16 UNL     1      27.412  -0.614  52.480  1.00  0.00     0.043 A 
HETATM   19  C17 UNL     1      26.397   0.212  52.039  1.00  0.00     0.012 A 
ENDBRANCH   4  13
BRANCH   3  20
HETATM   20  C5  UNL     1      22.659   0.778  52.660  1.00  0.00    -0.007 A 
HETATM   21  C6  UNL     1      21.373   1.160  52.983  1.00  0.00     0.016 A 
HETATM   22  C7  UNL     1      20.487   0.297  53.593  1.00  0.00     0.043 A 
HETATM   23  C8  UNL     1      20.861  -1.000  53.907  1.00  0.00     0.116 A 
HETATM   24  F1  UNL     1      20.030  -1.898  54.509  1.00  0.00    -0.206 F 
HETATM   25  C9  UNL     1      22.138  -1.430  53.604  1.00  0.00     0.043 A 
HETATM   26  C10 UNL     1      22.978  -0.540  53.000  1.00  0.00     0.016 A 
ENDBRANCH   3  20
TORSDOF 5
ENDMDL
MODEL 4
REMARK VINA RESULT:      -8.2      2.036      4.289
REMARK  5 active torsions:
REMARK  status: ('A' for Active; 'I' for Inactive)
REMARK    1  A    between atoms: O1_1  and  C1_2 
REMARK    2  A    between atoms: S1_4  and  C3_5 
REMARK    3  A    between atoms: C3_5  and  N1_6 
REMARK    4  A    between atoms: C4_8  and  C5_9 
REMARK    5  A    between atoms: C11_16  and  C12_17 
ROOT
HETATM    1  N1  UNL     1      24.684   0.564  53.218  1.00  0.00    -0.280 N 
HETATM    2  N2  UNL     1      23.540   0.029  53.814  1.00  0.00    -0.177 NA
HETATM    3  C4  UNL     1      22.850   0.343  52.773  1.00  0.00     0.093 A 
HETATM    4  C11 UNL     1      23.976   0.940  52.033  1.00  0.00     0.192 A 
ENDROOT
BRANCH   1   5
HETATM    5  C3  UNL     1      25.987   0.571  53.863  1.00  0.00     0.231 C 
BRANCH   5   6
HETATM    6  S1  UNL     1      27.170  -0.082  52.689  1.00  0.00    -0.086 SA
HETATM    7  C2  UNL     1      27.006  -1.838  52.632  1.00  0.00     0.086 A 
HETATM    8  C1  UNL     1      28.166  -2.249  53.103  1.00  0.00     0.065 A 
HETATM    9  C18 UNL     1      29.147  -1.220  53.494  1.00  0.00     0.186 A 
HETATM   10  N3  UNL     1      28.608   0.072  53.269  1.00  0.00    -0.178 NA
BRANCH   8  11
HETATM   11  O1  UNL     1      28.621  -3.569  53.293  1.00  0.00    -0.363 OA
HETATM   12  H1  UNL     1      29.090  -3.736  54.178  1.00  0.00     0.217 HD
ENDBRANCH   8  11
ENDBRANCH   5   6
ENDBRANCH   1   5
BRANCH   4  13
HETATM   13  C12 UNL     1      23.877   2.406  51.835  1.00  0.00    -0.028 A 
HETATM   14  C13 UNL     1      24.097   2.784  50.506  1.00  0.00     0.012 A 
HETATM   15  C14 UNL     1      24.040   4.119  50.157  1.00  0.00     0.043 A 
HETATM   16  C15 UNL     1      23.766   5.044  51.133  1.00  0.00     0.116 A 
HETATM   17  F2  UNL     1      23.711   6.351  50.787  1.00  0.00    -0.206 F 
HETATM   18  C16 UNL     1      23.543   4.698  52.464  1.00  0.00     0.043 A 
HETATM   19  C17 UNL     1      23.600   3.363  52.814  1.00  0.00     0.012 A 
ENDBRANCH   4  13
BRANCH   3  20
HETATM   20  C5  UNL     1      21.441   0.188  52.400  1.00  0.00    -0.007 A 
HETATM   21  C6  UNL     1      20.906   0.539  51.178  1.00  0.00     0.016 A 
HETATM   22  C7  UNL     1      19.568   0.367  50.889  1.00  0.00     0.043 A 
HETATM   23  C8  UNL     1      18.703  -0.172  51.830  1.00  0.00     0.116 A 
HETATM   24  F1  UNL     1      17.373  -0.368  51.603  1.00  0.00    -0.206 F 
HETATM   25  C9  UNL     1      19.191  -0.540  53.068  1.00  0.00     0.043 A 
HETATM   26  C10 UNL     1      20.521  -0.350  53.306  1.00  0.00     0.016 A 
ENDBRANCH   3  20
TORSDOF 5
ENDMDL
MODEL 5
REMARK VINA RESULT:      -8.1      4.062      7.632
REMARK  5 active torsions:
REMARK  status: ('A' for Active; 'I' for Inactive)
REMARK    1  A    between atoms: O1_1  and  C1_2 
REMARK    2  A    between atoms: S1_4  and  C3_5 
REMARK    3  A    between atoms: C3_5  and  N1_6 
REMARK    4  A    between atoms: C4_8  and  C5_9 
REMARK    5  A    between atoms: C11_16  and  C12_17 
ROOT
HETATM    1  N1  UNL     1      23.364   1.327  52.896  1.00  0.00    -0.280 N 
HETATM    2  N2  UNL     1      23.942   0.061  53.004  1.00  0.00    -0.177 NA
HETATM    3  C4  UNL     1      25.100   0.603  53.164  1.00  0.00     0.093 A 
HETATM    4  C11 UNL     1      24.619   1.992  53.067  1.00  0.00     0.192 A 
ENDROOT
BRANCH   1   5
HETATM    5  C3  UNL     1      21.941   1.536  52.683  1.00  0.00     0.231 C 
BRANCH   5   6
HETATM    6  S1  UNL     1      21.433   0.450  51.354  1.00  0.00    -0.086 SA
HETATM    7  C2  UNL     1      21.781   1.235  49.812  1.00  0.00     0.086 A 
HETATM    8  C1  UNL     1      20.578   1.417  49.305  1.00  0.00     0.065 A 
HETATM    9  C18 UNL     1      19.425   0.956  50.101  1.00  0.00     0.186 A 
HETATM   10  N3  UNL     1      19.876   0.380  51.315  1.00  0.00    -0.178 NA
BRANCH   8  11
HETATM   11  O1  UNL     1      20.221   2.006  48.076  1.00  0.00    -0.363 OA
HETATM   12  H1  UNL     1      20.865   1.827  47.313  1.00  0.00     0.217 HD
ENDBRANCH   8  11
ENDBRANCH   5   6
ENDBRANCH   1   5
BRANCH   4  13
HETATM   13  C12 UNL     1      25.079   2.723  51.863  1.00  0.00    -0.028 A 
HETATM   14  C13 UNL     1      24.319   3.870  51.607  1.00  0.00     0.012 A 
HETATM   15  C14 UNL     1      24.622   4.661  50.517  1.00  0.00     0.043 A 
HETATM   16  C15 UNL     1      25.670   4.297  49.709  1.00  0.00     0.116 A 
HETATM   17  F2  UNL     1      25.963   5.075  48.641  1.00  0.00    -0.206 F 
HETATM   18  C16 UNL     1      26.444   3.161  49.937  1.00  0.00     0.043 A 
HETATM   19  C17 UNL     1      26.141   2.369  51.028  1.00  0.00     0.012 A 
ENDBRANCH   4  13
BRANCH   3  20
HETATM   20  C5  UNL     1      26.451   0.075  53.371  1.00  0.00    -0.007 A 
HETATM   21  C6  UNL     1      27.004  -0.975  52.667  1.00  0.00     0.016 A 
HETATM   22  C7  UNL     1      28.284  -1.425  52.911  1.00  0.00     0.043 A 
HETATM   23  C8  UNL     1      29.072  -0.831  53.885  1.00  0.00     0.116 A 
HETATM   24  F1  UNL     1      30.344  -1.230  54.171  1.00  0.00    -0.206 F 
HETATM   25  C9  UNL     1      28.564   0.224  54.617  1.00  0.00     0.043 A 
HETATM   26  C10 UNL     1      27.292   0.633  54.339  1.00  0.00     0.016 A 
ENDBRANCH   3  20
TORSDOF 5
ENDMDL
MODEL 6
REMARK VINA RESULT:      -8.0      3.995      6.396
REMARK  5 active torsions:
REMARK  status: ('A' for Active; 'I' for Inactive)
REMARK    1  A    between atoms: O1_1  and  C1_2 
REMARK    2  A    between atoms: S1_4  and  C3_5 
REMARK    3  A    between atoms: C3_5  and  N1_6 
REMARK    4  A    between atoms: C4_8  and  C5_9 
REMARK    5  A    between atoms: C11_16  and  C12_17 
ROOT
HETATM    1  N1  UNL     1      23.103   3.484  52.273  1.00  0.00    -0.280 N 
HETATM    2  N2  UNL     1      24.267   3.500  53.043  1.00  0.00    -0.177 NA
HETATM    3  C4  UNL     1      24.498   2.274  52.721  1.00  0.00     0.093 A 
HETATM    4  C11 UNL     1      23.299   2.123  51.878  1.00  0.00     0.192 A 
ENDROOT
BRANCH   1   5
HETATM    5  C3  UNL     1      22.223   4.633  52.139  1.00  0.00     0.231 C 
BRANCH   5   6
HETATM    6  S1  UNL     1      22.737   5.535  50.681  1.00  0.00    -0.086 SA
HETATM    7  C2  UNL     1      24.498   5.507  50.584  1.00  0.00     0.086 A 
HETATM    8  C1  UNL     1      24.813   6.778  50.735  1.00  0.00     0.065 A 
HETATM    9  C18 UNL     1      23.709   7.737  50.919  1.00  0.00     0.186 A 
HETATM   10  N3  UNL     1      22.467   7.055  50.895  1.00  0.00    -0.178 NA
BRANCH   8  11
HETATM   11  O1  UNL     1      26.090   7.373  50.746  1.00  0.00    -0.363 OA
HETATM   12  H1  UNL     1      26.261   8.032  49.993  1.00  0.00     0.217 HD
ENDBRANCH   8  11
ENDBRANCH   5   6
ENDBRANCH   1   5
BRANCH   4  13
HETATM   13  C12 UNL     1      22.280   1.191  52.414  1.00  0.00    -0.028 A 
HETATM   14  C13 UNL     1      21.177   1.053  51.563  1.00  0.00     0.012 A 
HETATM   15  C14 UNL     1      20.138   0.218  51.921  1.00  0.00     0.043 A 
HETATM   16  C15 UNL     1      20.218  -0.460  53.112  1.00  0.00     0.116 A 
HETATM   17  F2  UNL     1      19.197  -1.278  53.460  1.00  0.00    -0.206 F 
HETATM   18  C16 UNL     1      21.302  -0.344  53.980  1.00  0.00     0.043 A 
HETATM   19  C17 UNL     1      22.342   0.492  53.622  1.00  0.00     0.012 A 
ENDBRANCH   4  13
BRANCH   3  20
HETATM   20  C5  UNL     1      25.559   1.317  53.049  1.00  0.00    -0.007 A 
HETATM   21  C6  UNL     1      26.115   1.156  54.302  1.00  0.00     0.016 A 
HETATM   22  C7  UNL     1      27.112   0.235  54.544  1.00  0.00     0.043 A 
HETATM   23  C8  UNL     1      27.599  -0.570  53.526  1.00  0.00     0.116 A 
HETATM   24  F1  UNL     1      28.582  -1.497  53.704  1.00  0.00    -0.206 F 
HETATM   25  C9  UNL     1      27.075  -0.445  52.255  1.00  0.00     0.043 A 
HETATM   26  C10 UNL     1      26.089   0.479  52.064  1.00  0.00     0.016 A 
ENDBRANCH   3  20
TORSDOF 5
ENDMDL
MODEL 7
REMARK VINA RESULT:      -7.8      4.385      6.441
REMARK  5 active torsions:
REMARK  status: ('A' for Active; 'I' for Inactive)
REMARK    1  A    between atoms: O1_1  and  C1_2 
REMARK    2  A    between atoms: S1_4  and  C3_5 
REMARK    3  A    between atoms: C3_5  and  N1_6 
REMARK    4  A    between atoms: C4_8  and  C5_9 
REMARK    5  A    between atoms: C11_16  and  C12_17 
ROOT
HETATM    1  N1  UNL     1      23.443   1.947  52.149  1.00  0.00    -0.280 N 
HETATM    2  N2  UNL     1      23.457   3.283  51.744  1.00  0.00    -0.177 NA
HETATM    3  C4  UNL     1      24.540   3.072  51.080  1.00  0.00     0.093 A 
HETATM    4  C11 UNL     1      24.644   1.644  51.432  1.00  0.00     0.192 A 
ENDROOT
BRANCH   1   5
HETATM    5  C3  UNL     1      22.411   1.387  53.006  1.00  0.00     0.231 C 
BRANCH   5   6
HETATM    6  S1  UNL     1      21.566   0.117  52.070  1.00  0.00    -0.086 SA
HETATM    7  C2  UNL     1      21.266   0.717  50.438  1.00  0.00     0.086 A 
HETATM    8  C1  UNL     1      19.950   0.770  50.391  1.00  0.00     0.065 A 
HETATM    9  C18 UNL     1      19.206   0.355  51.594  1.00  0.00     0.186 A 
HETATM   10  N3  UNL     1      20.113  -0.039  52.610  1.00  0.00    -0.178 NA
BRANCH   8  11
HETATM   11  O1  UNL     1      19.123   1.179  49.325  1.00  0.00    -0.363 OA
HETATM   12  H1  UNL     1      18.781   2.133  49.392  1.00  0.00     0.217 HD
ENDBRANCH   8  11
ENDBRANCH   5   6
ENDBRANCH   1   5
BRANCH   4  13
HETATM   13  C12 UNL     1      25.792   1.306  52.306  1.00  0.00    -0.028 A 
HETATM   14  C13 UNL     1      26.350   0.059  52.001  1.00  0.00     0.012 A 
HETATM   15  C14 UNL     1      27.430  -0.402  52.727  1.00  0.00     0.043 A 
HETATM   16  C15 UNL     1      27.931   0.383  53.735  1.00  0.00     0.116 A 
HETATM   17  F2  UNL     1      28.989  -0.072  54.444  1.00  0.00    -0.206 F 
HETATM   18  C16 UNL     1      27.397   1.628  54.062  1.00  0.00     0.043 A 
HETATM   19  C17 UNL     1      26.316   2.090  53.336  1.00  0.00     0.012 A 
ENDBRANCH   4  13
BRANCH   3  20
HETATM   20  C5  UNL     1      25.407   3.913  50.250  1.00  0.00    -0.007 A 
HETATM   21  C6  UNL     1      26.579   3.493  49.656  1.00  0.00     0.016 A 
HETATM   22  C7  UNL     1      27.350   4.337  48.884  1.00  0.00     0.043 A 
HETATM   23  C8  UNL     1      26.970   5.654  48.677  1.00  0.00     0.116 A 
HETATM   24  F1  UNL     1      27.690   6.534  47.924  1.00  0.00    -0.206 F 
HETATM   25  C9  UNL     1      25.805   6.122  49.250  1.00  0.00     0.043 A 
HETATM   26  C10 UNL     1      25.076   5.249  50.004  1.00  0.00     0.016 A 
ENDBRANCH   3  20
TORSDOF 5
ENDMDL
MODEL 8
REMARK VINA RESULT:      -7.6      4.794      8.331
REMARK  5 active torsions:
REMARK  status: ('A' for Active; 'I' for Inactive)
REMARK    1  A    between atoms: O1_1  and  C1_2 
REMARK    2  A    between atoms: S1_4  and  C3_5 
REMARK    3  A    between atoms: C3_5  and  N1_6 
REMARK    4  A    between atoms: C4_8  and  C5_9 
REMARK    5  A    between atoms: C11_16  and  C12_17 
ROOT
HETATM    1  N1  UNL     1      23.093   2.671  50.650  1.00  0.00    -0.280 N 
HETATM    2  N2  UNL     1      23.451   1.372  51.016  1.00  0.00    -0.177 NA
HETATM    3  C4  UNL     1      24.472   1.831  51.653  1.00  0.00     0.093 A 
HETATM    4  C11 UNL     1      24.208   3.247  51.339  1.00  0.00     0.192 A 
ENDROOT
BRANCH   1   5
HETATM    5  C3  UNL     1      21.925   2.976  49.841  1.00  0.00     0.231 C 
BRANCH   5   6
HETATM    6  S1  UNL     1      21.017   4.272  50.677  1.00  0.00    -0.086 SA
HETATM    7  C2  UNL     1      19.959   3.540  51.885  1.00  0.00     0.086 A 
HETATM    8  C1  UNL     1      18.758   3.832  51.429  1.00  0.00     0.065 A 
HETATM    9  C18 UNL     1      18.673   4.602  50.175  1.00  0.00     0.186 A 
HETATM   10  N3  UNL     1      19.975   4.886  49.693  1.00  0.00    -0.178 NA
BRANCH   8  11
HETATM   11  O1  UNL     1      17.504   3.504  51.981  1.00  0.00    -0.363 OA
HETATM   12  H1  UNL     1      16.714   3.643  51.358  1.00  0.00     0.217 HD
ENDBRANCH   8  11
ENDBRANCH   5   6
ENDBRANCH   1   5
BRANCH   4  13
HETATM   13  C12 UNL     1      25.205   3.877  50.441  1.00  0.00    -0.028 A 
HETATM   14  C13 UNL     1      24.957   5.238  50.233  1.00  0.00     0.012 A 
HETATM   15  C14 UNL     1      25.798   5.969  49.419  1.00  0.00     0.043 A 
HETATM   16  C15 UNL     1      26.864   5.334  48.832  1.00  0.00     0.116 A 
HETATM   17  F2  UNL     1      27.686   6.054  48.034  1.00  0.00    -0.206 F 
HETATM   18  C16 UNL     1      27.137   3.980  49.020  1.00  0.00     0.043 A 
HETATM   19  C17 UNL     1      26.295   3.248  49.835  1.00  0.00     0.012 A 
ENDBRANCH   4  13
BRANCH   3  20
HETATM   20  C5  UNL     1      25.549   1.213  52.432  1.00  0.00    -0.007 A 
HETATM   21  C6  UNL     1      26.447   0.290  51.939  1.00  0.00     0.016 A 
HETATM   22  C7  UNL     1      27.440  -0.255  52.726  1.00  0.00     0.043 A 
HETATM   23  C8  UNL     1      27.572   0.110  54.057  1.00  0.00     0.116 A 
HETATM   24  F1  UNL     1      28.532  -0.392  54.884  1.00  0.00    -0.206 F 
HETATM   25  C9  UNL     1      26.697   1.032  54.597  1.00  0.00     0.043 A 
HETATM   26  C10 UNL     1      25.731   1.543  53.779  1.00  0.00     0.016 A 
ENDBRANCH   3  20
TORSDOF 5
ENDMDL
MODEL 9
REMARK VINA RESULT:      -7.6      2.141      2.669
REMARK  5 active torsions:
REMARK  status: ('A' for Active; 'I' for Inactive)
REMARK    1  A    between atoms: O1_1  and  C1_2 
REMARK    2  A    between atoms: S1_4  and  C3_5 
REMARK    3  A    between atoms: C3_5  and  N1_6 
REMARK    4  A    between atoms: C4_8  and  C5_9 
REMARK    5  A    between atoms: C11_16  and  C12_17 
ROOT
HETATM    1  N1  UNL     1      25.014   1.585  52.377  1.00  0.00    -0.280 N 
HETATM    2  N2  UNL     1      25.668   2.124  51.268  1.00  0.00    -0.177 NA
HETATM    3  C4  UNL     1      24.719   2.984  51.125  1.00  0.00     0.093 A 
HETATM    4  C11 UNL     1      23.928   2.511  52.276  1.00  0.00     0.192 A 
ENDROOT
BRANCH   1   5
HETATM    5  C3  UNL     1      25.539   0.466  53.143  1.00  0.00     0.231 C 
BRANCH   5   6
HETATM    6  S1  UNL     1      26.954  -0.175  52.254  1.00  0.00    -0.086 SA
HETATM    7  C2  UNL     1      26.924  -1.938  52.329  1.00  0.00     0.086 A 
HETATM    8  C1  UNL     1      28.007  -2.212  53.027  1.00  0.00     0.065 A 
HETATM    9  C18 UNL     1      28.830  -1.078  53.487  1.00  0.00     0.186 A 
HETATM   10  N3  UNL     1      28.251   0.143  53.057  1.00  0.00    -0.178 NA
BRANCH   8  11
HETATM   11  O1  UNL     1      28.511  -3.471  53.412  1.00  0.00    -0.363 OA
HETATM   12  H1  UNL     1      28.326  -4.224  52.757  1.00  0.00     0.217 HD
ENDBRANCH   8  11
ENDBRANCH   5   6
ENDBRANCH   1   5
BRANCH   4  13
HETATM   13  C12 UNL     1      22.635   1.881  51.919  1.00  0.00    -0.028 A 
HETATM   14  C13 UNL     1      21.557   2.430  52.621  1.00  0.00     0.012 A 
HETATM   15  C14 UNL     1      20.282   1.950  52.401  1.00  0.00     0.043 A 
HETATM   16  C15 UNL     1      20.107   0.938  51.490  1.00  0.00     0.116 A 
HETATM   17  F2  UNL     1      18.855   0.469  51.278  1.00  0.00    -0.206 F 
HETATM   18  C16 UNL     1      21.160   0.370  50.776  1.00  0.00     0.043 A 
HETATM   19  C17 UNL     1      22.436   0.851  50.996  1.00  0.00     0.012 A 
ENDBRANCH   4  13
BRANCH   3  20
HETATM   20  C5  UNL     1      24.463   4.070  50.175  1.00  0.00    -0.007 A 
HETATM   21  C6  UNL     1      25.114   5.287  50.175  1.00  0.00     0.016 A 
HETATM   22  C7  UNL     1      24.826   6.269  49.251  1.00  0.00     0.043 A 
HETATM   23  C8  UNL     1      23.860   6.066  48.277  1.00  0.00     0.116 A 
HETATM   24  F1  UNL     1      23.532   6.998  47.338  1.00  0.00    -0.206 F 
HETATM   25  C9  UNL     1      23.181   4.865  48.236  1.00  0.00     0.043 A 
HETATM   26  C10 UNL     1      23.501   3.924  49.171  1.00  0.00     0.016 A 
ENDBRANCH   3  20
TORSDOF 5
ENDMDL
