MODEL 1
REMARK VINA RESULT:      -6.8      0.000      0.000
REMARK  9 active torsions:
REMARK  status: ('A' for Active; 'I' for Inactive)
REMARK    1  A    between atoms: C2_2  and  O1_3 
REMARK    2  A    between atoms: O1_3  and  C3_4 
REMARK    3  A    between atoms: C3_4  and  C4_5 
REMARK    4  A    between atoms: C4_5  and  N1_6 
REMARK    5  A    between atoms: C5_7  and  C6_8 
REMARK    6  A    between atoms: C5_7  and  C12_15 
REMARK    7  A    between atoms: C6_8  and  C7_9 
REMARK    8  A    between atoms: C15_18  and  C16_19 
REMARK    9  A    between atoms: C16_19  and  N3_20 
ROOT
HETATM    1  C4  UNL     1      23.431   0.371  53.214  1.00  0.00     0.030 C 
HETATM    2  C5  UNL     1      24.428   0.861  52.401  1.00  0.00    -0.040 C 
ENDROOT
BRANCH   2   3
HETATM    3  C6  UNL     1      25.787   0.335  52.231  1.00  0.00     0.075 C 
BRANCH   3   4
HETATM    4  C7  UNL     1      26.907   0.879  53.004  1.00  0.00    -0.051 A 
HETATM    5  C8  UNL     1      27.373   0.016  54.005  1.00  0.00     0.026 A 
HETATM    6  C9  UNL     1      28.454   0.391  54.782  1.00  0.00     0.116 A 
HETATM    7  N2  UNL     1      29.100   1.538  54.645  1.00  0.00    -0.273 NA
HETATM    8  C10 UNL     1      28.732   2.463  53.699  1.00  0.00     0.116 A 
HETATM    9  C11 UNL     1      27.656   2.049  52.953  1.00  0.00     0.026 A 
ENDBRANCH   3   4
ENDBRANCH   2   3
BRANCH   2  10
HETATM   10  C12 UNL     1      24.498   2.086  51.500  1.00  0.00     0.087 C 
HETATM   11  C13 UNL     1      23.342   2.016  50.479  1.00  0.00     0.018 C 
HETATM   12  C14 UNL     1      23.219   3.500  50.049  1.00  0.00     0.015 C 
HETATM   13  C15 UNL     1      24.382   4.127  50.812  1.00  0.00     0.084 C 
HETATM   14  C17 UNL     1      24.307   3.393  52.127  1.00  0.00     0.141 C 
HETATM   15  O2  UNL     1      24.214   3.089  53.262  1.00  0.00    -0.297 OA
BRANCH  13  16
HETATM   16  C16 UNL     1      24.208   5.600  51.002  1.00  0.00     0.278 C 
BRANCH  16  17
HETATM   17  N3  UNL     1      23.925   5.890  52.405  1.00  0.00     0.079 N 
HETATM   18  H24 UNL     1      24.626   6.607  52.720  1.00  0.00     0.312 HD
HETATM   19  H25 UNL     1      22.990   6.325  52.549  1.00  0.00     0.312 HD
ENDBRANCH  16  17
ENDBRANCH  13  16
ENDBRANCH   2  10
BRANCH   1  20
HETATM   20  C3  UNL     1      22.118   0.258  53.861  1.00  0.00     0.224 C 
BRANCH  20  21
HETATM   21  O1  UNL     1      21.242   1.148  53.203  1.00  0.00    -0.386 OA
BRANCH  21  22
HETATM   22  C2  UNL     1      20.106   0.456  52.829  1.00  0.00     0.163 C 
HETATM   23  C1  UNL     1      20.092   0.405  51.308  1.00  0.00     0.033 C 
ENDBRANCH  21  22
ENDBRANCH  20  21
ENDBRANCH   1  20
BRANCH   1  24
HETATM   24  N1  UNL     1      24.030  -0.680  54.034  1.00  0.00    -0.400 N 
HETATM   25  H8  UNL     1      23.524  -1.348  54.672  1.00  0.00     0.156 HD
HETATM   26  H9  UNL     1      25.051  -0.471  53.760  1.00  0.00     0.156 HD
ENDBRANCH   1  24
TORSDOF 9
ENDMDL
MODEL 2
REMARK VINA RESULT:      -6.7      2.272      5.473
REMARK  9 active torsions:
REMARK  status: ('A' for Active; 'I' for Inactive)
REMARK    1  A    between atoms: C2_2  and  O1_3 
REMARK    2  A    between atoms: O1_3  and  C3_4 
REMARK    3  A    between atoms: C3_4  and  C4_5 
REMARK    4  A    between atoms: C4_5  and  N1_6 
REMARK    5  A    between atoms: C5_7  and  C6_8 
REMARK    6  A    between atoms: C5_7  and  C12_15 
REMARK    7  A    between atoms: C6_8  and  C7_9 
REMARK    8  A    between atoms: C15_18  and  C16_19 
REMARK    9  A    between atoms: C16_19  and  N3_20 
ROOT
HETATM    1  C4  UNL     1      25.859   0.267  54.139  1.00  0.00     0.030 C 
HETATM    2  C5  UNL     1      24.866   0.381  53.192  1.00  0.00    -0.040 C 
ENDROOT
BRANCH   2   3
HETATM    3  C6  UNL     1      23.864  -0.623  52.816  1.00  0.00     0.075 C 
BRANCH   3   4
HETATM    4  C7  UNL     1      22.433  -0.308  52.855  1.00  0.00    -0.051 A 
HETATM    5  C8  UNL     1      21.919  -0.174  54.152  1.00  0.00     0.026 A 
HETATM    6  C9  UNL     1      20.590   0.163  54.330  1.00  0.00     0.116 A 
HETATM    7  N2  UNL     1      19.742   0.376  53.337  1.00  0.00    -0.273 NA
HETATM    8  C10 UNL     1      20.131   0.273  52.023  1.00  0.00     0.116 A 
HETATM    9  C11 UNL     1      21.457  -0.064  51.896  1.00  0.00     0.026 A 
ENDBRANCH   3   4
ENDBRANCH   2   3
BRANCH   2  10
HETATM   10  C12 UNL     1      24.519   1.490  52.209  1.00  0.00     0.087 C 
HETATM   11  C13 UNL     1      24.108   2.746  53.004  1.00  0.00     0.018 C 
HETATM   12  C14 UNL     1      24.328   3.865  51.954  1.00  0.00     0.015 C 
HETATM   13  C15 UNL     1      24.721   3.046  50.727  1.00  0.00     0.084 C 
HETATM   14  C17 UNL     1      25.593   1.983  51.345  1.00  0.00     0.141 C 
HETATM   15  O2  UNL     1      26.476   1.262  51.647  1.00  0.00    -0.297 OA
BRANCH  13  16
HETATM   16  C16 UNL     1      25.478   3.854  49.724  1.00  0.00     0.278 C 
BRANCH  16  17
HETATM   17  N3  UNL     1      26.837   4.095  50.205  1.00  0.00     0.079 N 
HETATM   18  H24 UNL     1      27.477   3.477  49.644  1.00  0.00     0.312 HD
HETATM   19  H25 UNL     1      27.161   5.070  50.034  1.00  0.00     0.312 HD
ENDBRANCH  16  17
ENDBRANCH  13  16
ENDBRANCH   2  10
BRANCH   1  20
HETATM   20  C3  UNL     1      27.004   0.636  54.979  1.00  0.00     0.224 C 
BRANCH  20  21
HETATM   21  O1  UNL     1      27.972  -0.383  54.851  1.00  0.00    -0.386 OA
BRANCH  21  22
HETATM   22  C2  UNL     1      29.119   0.161  54.305  1.00  0.00     0.163 C 
HETATM   23  C1  UNL     1      29.798  -0.941  53.504  1.00  0.00     0.033 C 
ENDBRANCH  21  22
ENDBRANCH  20  21
ENDBRANCH   1  20
BRANCH   1  24
HETATM   24  N1  UNL     1      25.857  -1.124  54.589  1.00  0.00    -0.400 N 
HETATM   25  H8  UNL     1      26.163  -1.967  54.036  1.00  0.00     0.156 HD
HETATM   26  H9  UNL     1      25.441  -0.929  55.564  1.00  0.00     0.156 HD
ENDBRANCH   1  24
TORSDOF 9
ENDMDL
MODEL 3
REMARK VINA RESULT:      -6.6      1.982      5.041
REMARK  9 active torsions:
REMARK  status: ('A' for Active; 'I' for Inactive)
REMARK    1  A    between atoms: C2_2  and  O1_3 
REMARK    2  A    between atoms: O1_3  and  C3_4 
REMARK    3  A    between atoms: C3_4  and  C4_5 
REMARK    4  A    between atoms: C4_5  and  N1_6 
REMARK    5  A    between atoms: C5_7  and  C6_8 
REMARK    6  A    between atoms: C5_7  and  C12_15 
REMARK    7  A    between atoms: C6_8  and  C7_9 
REMARK    8  A    between atoms: C15_18  and  C16_19 
REMARK    9  A    between atoms: C16_19  and  N3_20 
ROOT
HETATM    1  C4  UNL     1      22.280   3.411  51.903  1.00  0.00     0.030 C 
HETATM    2  C5  UNL     1      22.969   2.236  51.701  1.00  0.00    -0.040 C 
ENDROOT
BRANCH   2   3
HETATM    3  C6  UNL     1      22.425   0.874  51.649  1.00  0.00     0.075 C 
BRANCH   3   4
HETATM    4  C7  UNL     1      22.304   0.066  52.865  1.00  0.00    -0.051 A 
HETATM    5  C8  UNL     1      21.007  -0.412  53.099  1.00  0.00     0.026 A 
HETATM    6  C9  UNL     1      20.764  -1.223  54.192  1.00  0.00     0.116 A 
HETATM    7  N2  UNL     1      21.692  -1.593  55.059  1.00  0.00    -0.273 NA
HETATM    8  C10 UNL     1      22.998  -1.185  54.934  1.00  0.00     0.116 A 
HETATM    9  C11 UNL     1      23.192  -0.383  53.836  1.00  0.00     0.026 A 
ENDBRANCH   3   4
ENDBRANCH   2   3
BRANCH   2  10
HETATM   10  C12 UNL     1      24.454   1.940  51.541  1.00  0.00     0.087 C 
HETATM   11  C13 UNL     1      24.993   2.747  50.342  1.00  0.00     0.018 C 
HETATM   12  C14 UNL     1      26.512   2.779  50.649  1.00  0.00     0.015 C 
HETATM   13  C15 UNL     1      26.581   1.905  51.898  1.00  0.00     0.084 C 
HETATM   14  C17 UNL     1      25.340   2.339  52.635  1.00  0.00     0.141 C 
HETATM   15  O2  UNL     1      24.562   2.750  53.420  1.00  0.00    -0.297 OA
BRANCH  13  16
HETATM   16  C16 UNL     1      27.811   2.165  52.705  1.00  0.00     0.278 C 
BRANCH  16  17
HETATM   17  N3  UNL     1      27.441   2.533  54.070  1.00  0.00     0.079 N 
HETATM   18  H24 UNL     1      28.189   3.178  54.429  1.00  0.00     0.312 HD
HETATM   19  H25 UNL     1      26.552   3.074  54.117  1.00  0.00     0.312 HD
ENDBRANCH  16  17
ENDBRANCH  13  16
ENDBRANCH   2  10
BRANCH   1  20
HETATM   20  C3  UNL     1      22.037   4.850  52.064  1.00  0.00     0.224 C 
BRANCH  20  21
HETATM   21  O1  UNL     1      23.294   5.492  52.103  1.00  0.00    -0.386 OA
BRANCH  21  22
HETATM   22  C2  UNL     1      23.350   6.420  51.081  1.00  0.00     0.163 C 
HETATM   23  C1  UNL     1      24.765   6.385  50.524  1.00  0.00     0.033 C 
ENDBRANCH  21  22
ENDBRANCH  20  21
ENDBRANCH   1  20
BRANCH   1  24
HETATM   24  N1  UNL     1      20.908   3.045  52.245  1.00  0.00    -0.400 N 
HETATM   25  H8  UNL     1      20.323   3.445  53.025  1.00  0.00     0.156 HD
HETATM   26  H9  UNL     1      20.798   2.287  51.486  1.00  0.00     0.156 HD
ENDBRANCH   1  24
TORSDOF 9
ENDMDL
MODEL 4
REMARK VINA RESULT:      -6.4      2.251      5.284
REMARK  9 active torsions:
REMARK  status: ('A' for Active; 'I' for Inactive)
REMARK    1  A    between atoms: C2_2  and  O1_3 
REMARK    2  A    between atoms: O1_3  and  C3_4 
REMARK    3  A    between atoms: C3_4  and  C4_5 
REMARK    4  A    between atoms: C4_5  and  N1_6 
REMARK    5  A    between atoms: C5_7  and  C6_8 
REMARK    6  A    between atoms: C5_7  and  C12_15 
REMARK    7  A    between atoms: C6_8  and  C7_9 
REMARK    8  A    between atoms: C15_18  and  C16_19 
REMARK    9  A    between atoms: C16_19  and  N3_20 
ROOT
HETATM    1  C4  UNL     1      24.186   0.968  52.479  1.00  0.00     0.030 C 
HETATM    2  C5  UNL     1      25.469   1.211  52.039  1.00  0.00    -0.040 C 
ENDROOT
BRANCH   2   3
HETATM    3  C6  UNL     1      25.885   1.745  50.738  1.00  0.00     0.075 C 
BRANCH   3   4
HETATM    4  C7  UNL     1      25.762   3.174  50.437  1.00  0.00    -0.051 A 
HETATM    5  C8  UNL     1      26.679   3.631  49.480  1.00  0.00     0.026 A 
HETATM    6  C9  UNL     1      26.643   4.952  49.074  1.00  0.00     0.116 A 
HETATM    7  N2  UNL     1      25.781   5.844  49.534  1.00  0.00    -0.273 NA
HETATM    8  C10 UNL     1      24.836   5.512  50.476  1.00  0.00     0.116 A 
HETATM    9  C11 UNL     1      24.910   4.192  50.849  1.00  0.00     0.026 A 
ENDBRANCH   3   4
ENDBRANCH   2   3
BRANCH   2  10
HETATM   10  C12 UNL     1      26.828   0.963  52.678  1.00  0.00     0.087 C 
HETATM   11  C13 UNL     1      26.716   1.215  54.195  1.00  0.00     0.018 C 
HETATM   12  C14 UNL     1      27.934   0.423  54.733  1.00  0.00     0.015 C 
HETATM   13  C15 UNL     1      28.578  -0.049  53.432  1.00  0.00     0.084 C 
HETATM   14  C17 UNL     1      27.365  -0.397  52.607  1.00  0.00     0.141 C 
HETATM   15  O2  UNL     1      26.540  -0.933  51.958  1.00  0.00    -0.297 OA
BRANCH  13  16
HETATM   16  C16 UNL     1      29.458  -1.240  53.633  1.00  0.00     0.278 C 
BRANCH  16  17
HETATM   17  N3  UNL     1      28.719  -2.461  53.321  1.00  0.00     0.079 N 
HETATM   18  H24 UNL     1      28.179  -2.724  54.184  1.00  0.00     0.312 HD
HETATM   19  H25 UNL     1      28.009  -2.326  52.571  1.00  0.00     0.312 HD
ENDBRANCH  16  17
ENDBRANCH  13  16
ENDBRANCH   2  10
BRANCH   1  20
HETATM   20  C3  UNL     1      23.094   0.562  53.372  1.00  0.00     0.224 C 
BRANCH  20  21
HETATM   21  O1  UNL     1      23.432  -0.697  53.912  1.00  0.00    -0.386 OA
BRANCH  21  22
HETATM   22  C2  UNL     1      22.311  -1.239  54.509  1.00  0.00     0.163 C 
HETATM   23  C1  UNL     1      21.294  -0.115  54.652  1.00  0.00     0.033 C 
ENDBRANCH  21  22
ENDBRANCH  20  21
ENDBRANCH   1  20
BRANCH   1  24
HETATM   24  N1  UNL     1      23.301   1.167  51.333  1.00  0.00    -0.400 N 
HETATM   25  H8  UNL     1      22.872   2.076  51.018  1.00  0.00     0.156 HD
HETATM   26  H9  UNL     1      23.268   0.133  51.031  1.00  0.00     0.156 HD
ENDBRANCH   1  24
TORSDOF 9
ENDMDL
MODEL 5
REMARK VINA RESULT:      -6.4      2.076      6.117
REMARK  9 active torsions:
REMARK  status: ('A' for Active; 'I' for Inactive)
REMARK    1  A    between atoms: C2_2  and  O1_3 
REMARK    2  A    between atoms: O1_3  and  C3_4 
REMARK    3  A    between atoms: C3_4  and  C4_5 
REMARK    4  A    between atoms: C4_5  and  N1_6 
REMARK    5  A    between atoms: C5_7  and  C6_8 
REMARK    6  A    between atoms: C5_7  and  C12_15 
REMARK    7  A    between atoms: C6_8  and  C7_9 
REMARK    8  A    between atoms: C15_18  and  C16_19 
REMARK    9  A    between atoms: C16_19  and  N3_20 
ROOT
HETATM    1  C4  UNL     1      24.953   2.509  51.031  1.00  0.00     0.030 C 
HETATM    2  C5  UNL     1      24.790   1.847  52.227  1.00  0.00    -0.040 C 
ENDROOT
BRANCH   2   3
HETATM    3  C6  UNL     1      23.672   1.961  53.171  1.00  0.00     0.075 C 
BRANCH   3   4
HETATM    4  C7  UNL     1      22.726   0.857  53.354  1.00  0.00    -0.051 A 
HETATM    5  C8  UNL     1      21.447   1.120  52.844  1.00  0.00     0.026 A 
HETATM    6  C9  UNL     1      20.469   0.145  52.915  1.00  0.00     0.116 A 
HETATM    7  N2  UNL     1      20.657  -1.054  53.442  1.00  0.00    -0.273 NA
HETATM    8  C10 UNL     1      21.869  -1.425  53.973  1.00  0.00     0.116 A 
HETATM    9  C11 UNL     1      22.807  -0.426  53.882  1.00  0.00     0.026 A 
ENDBRANCH   3   4
ENDBRANCH   2   3
BRANCH   2  10
HETATM   10  C12 UNL     1      25.686   0.877  52.985  1.00  0.00     0.087 C 
HETATM   11  C13 UNL     1      26.332  -0.093  51.974  1.00  0.00     0.018 C 
HETATM   12  C14 UNL     1      27.559  -0.600  52.772  1.00  0.00     0.015 C 
HETATM   13  C15 UNL     1      27.340   0.082  54.119  1.00  0.00     0.084 C 
HETATM   14  C17 UNL     1      26.839   1.438  53.689  1.00  0.00     0.141 C 
HETATM   15  O2  UNL     1      26.682   2.591  53.500  1.00  0.00    -0.297 OA
BRANCH  13  16
HETATM   16  C16 UNL     1      28.603   0.196  54.910  1.00  0.00     0.278 C 
BRANCH  16  17
HETATM   17  N3  UNL     1      29.111   1.563  54.840  1.00  0.00     0.079 N 
HETATM   18  H24 UNL     1      28.834   2.042  55.734  1.00  0.00     0.312 HD
HETATM   19  H25 UNL     1      30.151   1.609  54.804  1.00  0.00     0.312 HD
ENDBRANCH  16  17
ENDBRANCH  13  16
ENDBRANCH   2  10
BRANCH   1  20
HETATM   20  C3  UNL     1      25.565   2.921  49.762  1.00  0.00     0.224 C 
BRANCH  20  21
HETATM   21  O1  UNL     1      26.594   3.839  50.065  1.00  0.00    -0.386 OA
BRANCH  21  22
HETATM   22  C2  UNL     1      26.542   4.879  49.156  1.00  0.00     0.163 C 
HETATM   23  C1  UNL     1      27.933   5.016  48.554  1.00  0.00     0.033 C 
ENDBRANCH  21  22
ENDBRANCH  20  21
ENDBRANCH   1  20
BRANCH   1  24
HETATM   24  N1  UNL     1      23.885   3.503  50.947  1.00  0.00    -0.400 N 
HETATM   25  H8  UNL     1      23.985   4.517  50.678  1.00  0.00     0.156 HD
HETATM   26  H9  UNL     1      23.091   2.846  51.264  1.00  0.00     0.156 HD
ENDBRANCH   1  24
TORSDOF 9
ENDMDL
MODEL 6
REMARK VINA RESULT:      -6.2      2.273      4.647
REMARK  9 active torsions:
REMARK  status: ('A' for Active; 'I' for Inactive)
REMARK    1  A    between atoms: C2_2  and  O1_3 
REMARK    2  A    between atoms: O1_3  and  C3_4 
REMARK    3  A    between atoms: C3_4  and  C4_5 
REMARK    4  A    between atoms: C4_5  and  N1_6 
REMARK    5  A    between atoms: C5_7  and  C6_8 
REMARK    6  A    between atoms: C5_7  and  C12_15 
REMARK    7  A    between atoms: C6_8  and  C7_9 
REMARK    8  A    between atoms: C15_18  and  C16_19 
REMARK    9  A    between atoms: C16_19  and  N3_20 
ROOT
HETATM    1  C4  UNL     1      25.711   2.527  51.649  1.00  0.00     0.030 C 
HETATM    2  C5  UNL     1      25.224   1.552  52.491  1.00  0.00    -0.040 C 
ENDROOT
BRANCH   2   3
HETATM    3  C6  UNL     1      25.897   0.942  53.643  1.00  0.00     0.075 C 
BRANCH   3   4
HETATM    4  C7  UNL     1      26.918  -0.092  53.457  1.00  0.00    -0.051 A 
HETATM    5  C8  UNL     1      28.124   0.180  54.119  1.00  0.00     0.026 A 
HETATM    6  C9  UNL     1      29.158  -0.736  54.059  1.00  0.00     0.116 A 
HETATM    7  N2  UNL     1      29.092  -1.884  53.405  1.00  0.00    -0.273 NA
HETATM    8  C10 UNL     1      27.962  -2.258  52.718  1.00  0.00     0.116 A 
HETATM    9  C11 UNL     1      26.964  -1.319  52.805  1.00  0.00     0.026 A 
ENDBRANCH   3   4
ENDBRANCH   2   3
BRANCH   2  10
HETATM   10  C12 UNL     1      23.926   0.757  52.484  1.00  0.00     0.087 C 
HETATM   11  C13 UNL     1      23.896  -0.153  53.729  1.00  0.00     0.018 C 
HETATM   12  C14 UNL     1      22.379  -0.441  53.867  1.00  0.00     0.015 C 
HETATM   13  C15 UNL     1      21.831   0.262  52.628  1.00  0.00     0.084 C 
HETATM   14  C17 UNL     1      22.676   1.510  52.594  1.00  0.00     0.141 C 
HETATM   15  O2  UNL     1      23.077   2.618  52.587  1.00  0.00    -0.297 OA
BRANCH  13  16
HETATM   16  C16 UNL     1      20.379   0.592  52.759  1.00  0.00     0.278 C 
BRANCH  16  17
HETATM   17  N3  UNL     1      20.200   2.042  52.772  1.00  0.00     0.079 N 
HETATM   18  H24 UNL     1      21.022   2.450  53.283  1.00  0.00     0.312 HD
HETATM   19  H25 UNL     1      20.220   2.462  51.819  1.00  0.00     0.312 HD
ENDBRANCH  16  17
ENDBRANCH  13  16
ENDBRANCH   2  10
BRANCH   1  20
HETATM   20  C3  UNL     1      25.752   3.491  50.543  1.00  0.00     0.224 C 
BRANCH  20  21
HETATM   21  O1  UNL     1      27.047   3.444  49.985  1.00  0.00    -0.386 OA
BRANCH  21  22
HETATM   22  C2  UNL     1      27.145   4.416  49.008  1.00  0.00     0.163 C 
HETATM   23  C1  UNL     1      25.942   5.334  49.169  1.00  0.00     0.033 C 
ENDBRANCH  21  22
ENDBRANCH  20  21
ENDBRANCH   1  20
BRANCH   1  24
HETATM   24  N1  UNL     1      27.116   2.727  52.000  1.00  0.00    -0.400 N 
HETATM   25  H8  UNL     1      27.499   3.410  52.704  1.00  0.00     0.156 HD
HETATM   26  H9  UNL     1      27.512   2.003  51.306  1.00  0.00     0.156 HD
ENDBRANCH   1  24
TORSDOF 9
ENDMDL
MODEL 7
REMARK VINA RESULT:      -6.2      2.287      4.276
REMARK  9 active torsions:
REMARK  status: ('A' for Active; 'I' for Inactive)
REMARK    1  A    between atoms: C2_2  and  O1_3 
REMARK    2  A    between atoms: O1_3  and  C3_4 
REMARK    3  A    between atoms: C3_4  and  C4_5 
REMARK    4  A    between atoms: C4_5  and  N1_6 
REMARK    5  A    between atoms: C5_7  and  C6_8 
REMARK    6  A    between atoms: C5_7  and  C12_15 
REMARK    7  A    between atoms: C6_8  and  C7_9 
REMARK    8  A    between atoms: C15_18  and  C16_19 
REMARK    9  A    between atoms: C16_19  and  N3_20 
ROOT
HETATM    1  C4  UNL     1      25.189   4.443  50.626  1.00  0.00     0.030 C 
HETATM    2  C5  UNL     1      25.205   3.081  50.832  1.00  0.00    -0.040 C 
ENDROOT
BRANCH   2   3
HETATM    3  C6  UNL     1      26.330   2.159  50.647  1.00  0.00     0.075 C 
BRANCH   3   4
HETATM    4  C7  UNL     1      26.791   1.304  51.745  1.00  0.00    -0.051 A 
HETATM    5  C8  UNL     1      27.488   1.997  52.745  1.00  0.00     0.026 A 
HETATM    6  C9  UNL     1      27.941   1.316  53.859  1.00  0.00     0.116 A 
HETATM    7  N2  UNL     1      27.761   0.020  54.058  1.00  0.00    -0.273 NA
HETATM    8  C10 UNL     1      27.093  -0.762  53.147  1.00  0.00     0.116 A 
HETATM    9  C11 UNL     1      26.663  -0.044  52.058  1.00  0.00     0.026 A 
ENDBRANCH   3   4
ENDBRANCH   2   3
BRANCH   2  10
HETATM   10  C12 UNL     1      24.112   2.099  51.229  1.00  0.00     0.087 C 
HETATM   11  C13 UNL     1      23.511   2.545  52.577  1.00  0.00     0.018 C 
HETATM   12  C14 UNL     1      22.136   1.829  52.556  1.00  0.00     0.015 C 
HETATM   13  C15 UNL     1      22.240   1.027  51.262  1.00  0.00     0.084 C 
HETATM   14  C17 UNL     1      22.940   2.009  50.357  1.00  0.00     0.141 C 
HETATM   15  O2  UNL     1      23.246   2.743  49.488  1.00  0.00    -0.297 OA
BRANCH  13  16
HETATM   16  C16 UNL     1      20.899   0.649  50.720  1.00  0.00     0.278 C 
BRANCH  16  17
HETATM   17  N3  UNL     1      20.773   1.115  49.341  1.00  0.00     0.079 N 
HETATM   18  H24 UNL     1      21.270   2.039  49.280  1.00  0.00     0.312 HD
HETATM   19  H25 UNL     1      21.248   0.490  48.656  1.00  0.00     0.312 HD
ENDBRANCH  16  17
ENDBRANCH  13  16
ENDBRANCH   2  10
BRANCH   1  20
HETATM   20  C3  UNL     1      24.676   5.817  50.569  1.00  0.00     0.224 C 
BRANCH  20  21
HETATM   21  O1  UNL     1      23.578   5.898  51.452  1.00  0.00    -0.386 OA
BRANCH  21  22
HETATM   22  C2  UNL     1      22.436   6.155  50.717  1.00  0.00     0.163 C 
HETATM   23  C1  UNL     1      21.334   5.268  51.278  1.00  0.00     0.033 C 
ENDBRANCH  21  22
ENDBRANCH  20  21
ENDBRANCH   1  20
BRANCH   1  24
HETATM   24  N1  UNL     1      26.465   4.793  50.005  1.00  0.00    -0.400 N 
HETATM   25  H8  UNL     1      27.240   5.363  50.433  1.00  0.00     0.156 HD
HETATM   26  H9  UNL     1      26.268   4.311  49.061  1.00  0.00     0.156 HD
ENDBRANCH   1  24
TORSDOF 9
ENDMDL
MODEL 8
REMARK VINA RESULT:      -6.1      2.005      6.012
REMARK  9 active torsions:
REMARK  status: ('A' for Active; 'I' for Inactive)
REMARK    1  A    between atoms: C2_2  and  O1_3 
REMARK    2  A    between atoms: O1_3  and  C3_4 
REMARK    3  A    between atoms: C3_4  and  C4_5 
REMARK    4  A    between atoms: C4_5  and  N1_6 
REMARK    5  A    between atoms: C5_7  and  C6_8 
REMARK    6  A    between atoms: C5_7  and  C12_15 
REMARK    7  A    between atoms: C6_8  and  C7_9 
REMARK    8  A    between atoms: C15_18  and  C16_19 
REMARK    9  A    between atoms: C16_19  and  N3_20 
ROOT
HETATM    1  C4  UNL     1      25.618   1.491  52.339  1.00  0.00     0.030 C 
HETATM    2  C5  UNL     1      24.408   2.082  52.633  1.00  0.00    -0.040 C 
ENDROOT
BRANCH   2   3
HETATM    3  C6  UNL     1      24.163   3.469  53.043  1.00  0.00     0.075 C 
BRANCH   3   4
HETATM    4  C7  UNL     1      23.505   4.415  52.139  1.00  0.00    -0.051 A 
HETATM    5  C8  UNL     1      24.249   4.704  50.986  1.00  0.00     0.026 A 
HETATM    6  C9  UNL     1      23.724   5.553  50.028  1.00  0.00     0.116 A 
HETATM    7  N2  UNL     1      22.536   6.128  50.122  1.00  0.00    -0.273 NA
HETATM    8  C10 UNL     1      21.719   5.921  51.207  1.00  0.00     0.116 A 
HETATM    9  C11 UNL     1      22.281   5.074  52.130  1.00  0.00     0.026 A 
ENDBRANCH   3   4
ENDBRANCH   2   3
BRANCH   2  10
HETATM   10  C12 UNL     1      22.994   1.524  52.701  1.00  0.00     0.087 C 
HETATM   11  C13 UNL     1      22.557   1.105  51.283  1.00  0.00     0.018 C 
HETATM   12  C14 UNL     1      21.413   0.107  51.593  1.00  0.00     0.015 C 
HETATM   13  C15 UNL     1      21.330   0.214  53.113  1.00  0.00     0.084 C 
HETATM   14  C17 UNL     1      22.788   0.306  53.485  1.00  0.00     0.141 C 
HETATM   15  O2  UNL     1      23.867   0.137  53.929  1.00  0.00    -0.297 OA
BRANCH  13  16
HETATM   16  C16 UNL     1      20.687  -0.985  53.732  1.00  0.00     0.278 C 
BRANCH  16  17
HETATM   17  N3  UNL     1      21.616  -1.622  54.662  1.00  0.00     0.079 N 
HETATM   18  H24 UNL     1      22.034  -0.859  55.253  1.00  0.00     0.312 HD
HETATM   19  H25 UNL     1      21.144  -2.270  55.327  1.00  0.00     0.312 HD
ENDBRANCH  16  17
ENDBRANCH  13  16
ENDBRANCH   2  10
BRANCH   1  20
HETATM   20  C3  UNL     1      26.580   0.456  51.944  1.00  0.00     0.224 C 
BRANCH  20  21
HETATM   21  O1  UNL     1      27.542   0.355  52.972  1.00  0.00    -0.386 OA
BRANCH  21  22
HETATM   22  C2  UNL     1      27.940  -0.964  53.078  1.00  0.00     0.163 C 
HETATM   23  C1  UNL     1      29.413  -0.957  53.461  1.00  0.00     0.033 C 
ENDBRANCH  21  22
ENDBRANCH  20  21
ENDBRANCH   1  20
BRANCH   1  24
HETATM   24  N1  UNL     1      26.657   2.457  52.691  1.00  0.00    -0.400 N 
HETATM   25  H8  UNL     1      27.689   2.372  52.496  1.00  0.00     0.156 HD
HETATM   26  H9  UNL     1      26.002   3.157  53.183  1.00  0.00     0.156 HD
ENDBRANCH   1  24
TORSDOF 9
ENDMDL
MODEL 9
REMARK VINA RESULT:      -5.5      7.757     10.678
REMARK  9 active torsions:
REMARK  status: ('A' for Active; 'I' for Inactive)
REMARK    1  A    between atoms: C2_2  and  O1_3 
REMARK    2  A    between atoms: O1_3  and  C3_4 
REMARK    3  A    between atoms: C3_4  and  C4_5 
REMARK    4  A    between atoms: C4_5  and  N1_6 
REMARK    5  A    between atoms: C5_7  and  C6_8 
REMARK    6  A    between atoms: C5_7  and  C12_15 
REMARK    7  A    between atoms: C6_8  and  C7_9 
REMARK    8  A    between atoms: C15_18  and  C16_19 
REMARK    9  A    between atoms: C16_19  and  N3_20 
ROOT
HETATM    1  C4  UNL     1      31.574   6.497  48.400  1.00  0.00     0.030 C 
HETATM    2  C5  UNL     1      30.447   7.195  48.027  1.00  0.00    -0.040 C 
ENDROOT
BRANCH   2   3
HETATM    3  C6  UNL     1      29.233   6.667  47.394  1.00  0.00     0.075 C 
BRANCH   3   4
HETATM    4  C7  UNL     1      28.042   6.361  48.191  1.00  0.00    -0.051 A 
HETATM    5  C8  UNL     1      27.896   4.998  48.487  1.00  0.00     0.026 A 
HETATM    6  C9  UNL     1      26.836   4.578  49.268  1.00  0.00     0.116 A 
HETATM    7  N2  UNL     1      25.921   5.391  49.772  1.00  0.00    -0.273 NA
HETATM    8  C10 UNL     1      25.960   6.746  49.548  1.00  0.00     0.116 A 
HETATM    9  C11 UNL     1      27.028   7.116  48.768  1.00  0.00     0.026 A 
ENDBRANCH   3   4
ENDBRANCH   2   3
BRANCH   2  10
HETATM   10  C12 UNL     1      30.108   8.678  48.068  1.00  0.00     0.087 C 
HETATM   11  C13 UNL     1      30.481   9.233  49.458  1.00  0.00     0.018 C 
HETATM   12  C14 UNL     1      30.602  10.750  49.164  1.00  0.00     0.015 C 
HETATM   13  C15 UNL     1      30.179  10.802  47.699  1.00  0.00     0.084 C 
HETATM   14  C17 UNL     1      30.835   9.559  47.154  1.00  0.00     0.141 C 
HETATM   15  O2  UNL     1      31.481   8.779  46.551  1.00  0.00    -0.297 OA
BRANCH  13  16
HETATM   16  C16 UNL     1      30.680  12.029  47.007  1.00  0.00     0.278 C 
BRANCH  16  17
HETATM   17  N3  UNL     1      32.121  11.925  46.795  1.00  0.00     0.079 N 
HETATM   18  H24 UNL     1      32.434  11.023  47.234  1.00  0.00     0.312 HD
HETATM   19  H25 UNL     1      32.380  11.856  45.788  1.00  0.00     0.312 HD
ENDBRANCH  16  17
ENDBRANCH  13  16
ENDBRANCH   2  10
BRANCH   1  20
HETATM   20  C3  UNL     1      32.910   6.239  48.951  1.00  0.00     0.224 C 
BRANCH  20  21
HETATM   21  O1  UNL     1      33.697   7.385  48.711  1.00  0.00    -0.386 OA
BRANCH  21  22
HETATM   22  C2  UNL     1      35.000   6.988  48.477  1.00  0.00     0.163 C 
HETATM   23  C1  UNL     1      35.113   5.539  48.930  1.00  0.00     0.033 C 
ENDBRANCH  21  22
ENDBRANCH  20  21
ENDBRANCH   1  20
BRANCH   1  24
HETATM   24  N1  UNL     1      31.423   5.139  47.881  1.00  0.00    -0.400 N 
HETATM   25  H8  UNL     1      32.186   4.424  47.752  1.00  0.00     0.156 HD
HETATM   26  H9  UNL     1      30.364   5.205  47.693  1.00  0.00     0.156 HD
ENDBRANCH   1  24
TORSDOF 9
ENDMDL
