MODEL 1
REMARK VINA RESULT:      -8.6      0.000      0.000
REMARK  4 active torsions:
REMARK  status: ('A' for Active; 'I' for Inactive)
REMARK    1  A    between atoms: N1_2  and  C2_3 
REMARK    2  A    between atoms: C8_10  and  N3_11 
REMARK    3  A    between atoms: N3_11  and  C9_12 
REMARK    4  A    between atoms: C9_12  and  C10_13 
ROOT
HETATM    1  C2  UNL     1      22.757   0.013  53.030  1.00  0.00     0.132 A 
HETATM    2  N2  UNL     1      23.419  -0.736  53.892  1.00  0.00    -0.242 NA
HETATM    3  C3  UNL     1      24.722  -0.608  54.091  1.00  0.00     0.126 A 
HETATM    4  C4  UNL     1      25.310   0.369  53.319  1.00  0.00    -0.031 A 
HETATM    5  C5  UNL     1      26.775   0.570  53.491  1.00  0.00     0.050 C 
HETATM    6  C6  UNL     1      24.605   1.132  52.433  1.00  0.00     0.018 A 
HETATM    7  C7  UNL     1      23.212   1.042  52.180  1.00  0.00     0.036 A 
HETATM    8  C8  UNL     1      22.254   1.720  51.277  1.00  0.00     0.280 C 
HETATM    9  C11 UNL     1      21.470   2.813  51.905  1.00  0.00     0.118 C 
HETATM   10  C12 UNL     1      20.055   2.388  52.102  1.00  0.00     0.029 C 
HETATM   11  C13 UNL     1      19.124   3.520  51.818  1.00  0.00     0.021 C 
HETATM   12  C14 UNL     1      19.895   4.414  50.935  1.00  0.00     0.118 C 
HETATM   13  N4  UNL     1      21.321   4.091  51.182  1.00  0.00    -0.394 N 
HETATM   14  C15 UNL     1      22.442   4.979  50.752  1.00  0.00     0.052 A 
HETATM   15  C16 UNL     1      22.419   4.715  49.423  1.00  0.00     0.059 A 
HETATM   16  C17 UNL     1      23.619   4.884  48.754  1.00  0.00    -0.024 A 
HETATM   17  C18 UNL     1      23.733   5.171  50.088  1.00  0.00     0.079 A 
HETATM   18  C19 UNL     1      23.708   5.427  51.432  1.00  0.00     0.060 A 
HETATM   19  C20 UNL     1      22.502   5.251  52.069  1.00  0.00    -0.014 A 
HETATM   20  C21 UNL     1      25.046   4.597  50.397  1.00  0.00     0.298 A 
HETATM   21  O1  UNL     1      25.073   3.378  50.304  1.00  0.00    -0.128 OA
HETATM   22  N5  UNL     1      26.360   4.039  50.707  1.00  0.00     0.108 N 
HETATM   23  C22 UNL     1      26.441   2.537  50.672  1.00  0.00     0.349 C 
HETATM   24  C23 UNL     1      25.508   2.050  51.667  1.00  0.00     0.125 C 
HETATM   25  O2  UNL     1      25.140   2.926  52.556  1.00  0.00    -0.194 OA
HETATM   26  H26 UNL     1      27.029   4.843  50.903  1.00  0.00     0.328 HD
ENDROOT
BRANCH   8  27
HETATM   27  N3  UNL     1      21.357   0.699  50.703  1.00  0.00     0.095 N 
HETATM   28  H10 UNL     1      21.623  -0.206  51.184  1.00  0.00     0.316 HD
BRANCH  27  29
HETATM   29  C9  UNL     1      21.404   0.507  49.321  1.00  0.00     0.285 C 
BRANCH  29  30
HETATM   30  C10 UNL     1      21.312   1.663  48.398  1.00  0.00     0.144 C 
HETATM   31 CL1  UNL     1      22.591   1.940  47.263  1.00  0.00    -0.129 Cl
ENDBRANCH  29  30
ENDBRANCH  27  29
ENDBRANCH   8  27
BRANCH   1  32
HETATM   32  N1  UNL     1      21.388  -0.452  53.050  1.00  0.00    -0.379 N 
HETATM   33  C1  UNL     1      20.811  -1.304  54.081  1.00  0.00     0.147 C 
HETATM   34  H4  UNL     1      20.510  -0.400  52.505  1.00  0.00     0.160 HD
ENDBRANCH   1  32
TORSDOF 4
ENDMDL
MODEL 2
REMARK VINA RESULT:      -8.6      2.247      4.858
REMARK  4 active torsions:
REMARK  status: ('A' for Active; 'I' for Inactive)
REMARK    1  A    between atoms: N1_2  and  C2_3 
REMARK    2  A    between atoms: C8_10  and  N3_11 
REMARK    3  A    between atoms: N3_11  and  C9_12 
REMARK    4  A    between atoms: C9_12  and  C10_13 
ROOT
HETATM    1  C2  UNL     1      25.348   1.318  53.194  1.00  0.00     0.132 A 
HETATM    2  N2  UNL     1      26.033   0.438  53.901  1.00  0.00    -0.242 NA
HETATM    3  C3  UNL     1      25.451  -0.544  54.571  1.00  0.00     0.126 A 
HETATM    4  C4  UNL     1      24.078  -0.556  54.461  1.00  0.00    -0.031 A 
HETATM    5  C5  UNL     1      23.356  -1.636  55.188  1.00  0.00     0.050 C 
HETATM    6  C6  UNL     1      23.390   0.364  53.724  1.00  0.00     0.018 A 
HETATM    7  C7  UNL     1      23.958   1.433  52.986  1.00  0.00     0.036 A 
HETATM    8  C8  UNL     1      23.435   2.543  52.156  1.00  0.00     0.280 C 
HETATM    9  C11 UNL     1      23.465   2.296  50.691  1.00  0.00     0.118 C 
HETATM   10  C12 UNL     1      24.529   3.119  50.050  1.00  0.00     0.029 C 
HETATM   11  C13 UNL     1      24.063   3.640  48.730  1.00  0.00     0.021 C 
HETATM   12  C14 UNL     1      22.593   3.618  48.827  1.00  0.00     0.118 C 
HETATM   13  N4  UNL     1      22.274   2.629  49.886  1.00  0.00    -0.394 N 
HETATM   14  C15 UNL     1      20.910   2.053  50.076  1.00  0.00     0.052 A 
HETATM   15  C16 UNL     1      20.305   3.128  50.638  1.00  0.00     0.059 A 
HETATM   16  C17 UNL     1      19.231   2.852  51.466  1.00  0.00    -0.024 A 
HETATM   17  C18 UNL     1      19.781   1.711  50.944  1.00  0.00     0.079 A 
HETATM   18  C19 UNL     1      20.422   0.657  50.353  1.00  0.00     0.060 A 
HETATM   19  C20 UNL     1      21.484   0.962  49.537  1.00  0.00    -0.014 A 
HETATM   20  C21 UNL     1      19.716   0.806  52.095  1.00  0.00     0.298 A 
HETATM   21  O1  UNL     1      20.442   1.147  53.017  1.00  0.00    -0.128 OA
HETATM   22  N5  UNL     1      19.642  -0.105  53.234  1.00  0.00     0.108 N 
HETATM   23  C22 UNL     1      20.561   0.226  54.378  1.00  0.00     0.349 C 
HETATM   24  C23 UNL     1      21.910   0.167  53.853  1.00  0.00     0.125 C 
HETATM   25  O2  UNL     1      22.040  -0.481  52.732  1.00  0.00    -0.194 OA
HETATM   26  H26 UNL     1      18.917  -0.854  53.019  1.00  0.00     0.328 HD
ENDROOT
BRANCH   8  27
HETATM   27  N3  UNL     1      24.185   3.767  52.492  1.00  0.00     0.095 N 
HETATM   28  H10 UNL     1      24.736   3.523  53.363  1.00  0.00     0.316 HD
BRANCH  27  29
HETATM   29  C9  UNL     1      23.445   4.926  52.736  1.00  0.00     0.285 C 
BRANCH  29  30
HETATM   30  C10 UNL     1      23.293   5.956  51.681  1.00  0.00     0.144 C 
HETATM   31 CL1  UNL     1      21.705   6.360  51.119  1.00  0.00    -0.129 Cl
ENDBRANCH  29  30
ENDBRANCH  27  29
ENDBRANCH   8  27
BRANCH   1  32
HETATM   32  N1  UNL     1      26.311   2.255  52.662  1.00  0.00    -0.379 N 
HETATM   33  C1  UNL     1      27.753   2.161  52.839  1.00  0.00     0.147 C 
HETATM   34  H4  UNL     1      26.367   3.127  52.106  1.00  0.00     0.160 HD
ENDBRANCH   1  32
TORSDOF 4
ENDMDL
MODEL 3
REMARK VINA RESULT:      -8.3      1.731      3.345
REMARK  4 active torsions:
REMARK  status: ('A' for Active; 'I' for Inactive)
REMARK    1  A    between atoms: N1_2  and  C2_3 
REMARK    2  A    between atoms: C8_10  and  N3_11 
REMARK    3  A    between atoms: N3_11  and  C9_12 
REMARK    4  A    between atoms: C9_12  and  C10_13 
ROOT
HETATM    1  C2  UNL     1      19.564   0.466  51.702  1.00  0.00     0.132 A 
HETATM    2  N2  UNL     1      18.859  -0.345  52.469  1.00  0.00    -0.242 NA
HETATM    3  C3  UNL     1      19.404  -1.057  53.443  1.00  0.00     0.126 A 
HETATM    4  C4  UNL     1      20.763  -0.873  53.573  1.00  0.00    -0.031 A 
HETATM    5  C5  UNL     1      21.445  -1.641  54.650  1.00  0.00     0.050 C 
HETATM    6  C6  UNL     1      21.473  -0.029  52.768  1.00  0.00     0.018 A 
HETATM    7  C7  UNL     1      20.943   0.759  51.714  1.00  0.00     0.036 A 
HETATM    8  C8  UNL     1      21.497   1.702  50.715  1.00  0.00     0.280 C 
HETATM    9  C11 UNL     1      21.358   3.138  51.067  1.00  0.00     0.118 C 
HETATM   10  C12 UNL     1      20.322   3.783  50.210  1.00  0.00     0.029 C 
HETATM   11  C13 UNL     1      20.744   5.163  49.828  1.00  0.00     0.021 C 
HETATM   12  C14 UNL     1      22.212   5.146  49.961  1.00  0.00     0.118 C 
HETATM   13  N4  UNL     1      22.519   4.032  50.891  1.00  0.00    -0.394 N 
HETATM   14  C15 UNL     1      23.845   3.873  51.560  1.00  0.00     0.052 A 
HETATM   15  C16 UNL     1      24.563   3.432  50.497  1.00  0.00     0.059 A 
HETATM   16  C17 UNL     1      25.662   2.646  50.797  1.00  0.00    -0.024 A 
HETATM   17  C18 UNL     1      24.996   3.045  51.925  1.00  0.00     0.079 A 
HETATM   18  C19 UNL     1      24.241   3.514  52.966  1.00  0.00     0.060 A 
HETATM   19  C20 UNL     1      23.157   4.292  52.637  1.00  0.00    -0.014 A 
HETATM   20  C21 UNL     1      25.062   1.832  52.745  1.00  0.00     0.298 A 
HETATM   21  O1  UNL     1      24.422   0.900  52.280  1.00  0.00    -0.128 OA
HETATM   22  N5  UNL     1      25.137   0.630  53.572  1.00  0.00     0.108 N 
HETATM   23  C22 UNL     1      24.317  -0.533  53.085  1.00  0.00     0.349 C 
HETATM   24  C23 UNL     1      22.938  -0.091  53.074  1.00  0.00     0.125 C 
HETATM   25  O2  UNL     1      22.691   0.967  53.790  1.00  0.00    -0.194 OA
HETATM   26  H26 UNL     1      25.788   0.825  54.391  1.00  0.00     0.328 HD
ENDROOT
BRANCH   8  27
HETATM   27  N3  UNL     1      20.864   1.421  49.413  1.00  0.00     0.095 N 
HETATM   28  H10 UNL     1      20.209   0.609  49.593  1.00  0.00     0.316 HD
BRANCH  27  29
HETATM   29  C9  UNL     1      21.706   1.095  48.348  1.00  0.00     0.285 C 
BRANCH  29  30
HETATM   30  C10 UNL     1      22.531   2.138  47.695  1.00  0.00     0.144 C 
HETATM   31 CL1  UNL     1      21.749   3.369  46.759  1.00  0.00    -0.129 Cl
ENDBRANCH  29  30
ENDBRANCH  27  29
ENDBRANCH   8  27
BRANCH   1  32
HETATM   32  N1  UNL     1      18.644   1.016  50.732  1.00  0.00    -0.379 N 
HETATM   33  C1  UNL     1      17.545   0.285  50.117  1.00  0.00     0.147 C 
HETATM   34  H4  UNL     1      18.442   1.890  50.216  1.00  0.00     0.160 HD
ENDBRANCH   1  32
TORSDOF 4
ENDMDL
MODEL 4
REMARK VINA RESULT:      -7.4      2.368      3.955
REMARK  4 active torsions:
REMARK  status: ('A' for Active; 'I' for Inactive)
REMARK    1  A    between atoms: N1_2  and  C2_3 
REMARK    2  A    between atoms: C8_10  and  N3_11 
REMARK    3  A    between atoms: N3_11  and  C9_12 
REMARK    4  A    between atoms: C9_12  and  C10_13 
ROOT
HETATM    1  C2  UNL     1      20.069   3.931  51.203  1.00  0.00     0.132 A 
HETATM    2  N2  UNL     1      19.737   3.035  52.114  1.00  0.00    -0.242 NA
HETATM    3  C3  UNL     1      20.632   2.267  52.716  1.00  0.00     0.126 A 
HETATM    4  C4  UNL     1      21.927   2.492  52.303  1.00  0.00    -0.031 A 
HETATM    5  C5  UNL     1      22.988   1.664  52.940  1.00  0.00     0.050 C 
HETATM    6  C6  UNL     1      22.247   3.424  51.358  1.00  0.00     0.018 A 
HETATM    7  C7  UNL     1      21.334   4.274  50.683  1.00  0.00     0.036 A 
HETATM    8  C8  UNL     1      21.434   5.314  49.633  1.00  0.00     0.280 C 
HETATM    9  C11 UNL     1      21.447   6.711  50.137  1.00  0.00     0.118 C 
HETATM   10  C12 UNL     1      20.152   7.383  49.834  1.00  0.00     0.029 C 
HETATM   11  C13 UNL     1      20.381   8.805  49.438  1.00  0.00     0.021 C 
HETATM   12  C14 UNL     1      21.776   8.832  48.965  1.00  0.00     0.118 C 
HETATM   13  N4  UNL     1      22.436   7.659  49.587  1.00  0.00    -0.394 N 
HETATM   14  C15 UNL     1      23.919   7.496  49.647  1.00  0.00     0.052 A 
HETATM   15  C16 UNL     1      24.144   7.170  48.350  1.00  0.00     0.059 A 
HETATM   16  C17 UNL     1      25.272   6.404  48.109  1.00  0.00    -0.024 A 
HETATM   17  C18 UNL     1      25.121   6.686  49.441  1.00  0.00     0.079 A 
HETATM   18  C19 UNL     1      24.853   7.040  50.735  1.00  0.00     0.060 A 
HETATM   19  C20 UNL     1      23.727   7.801  50.943  1.00  0.00    -0.014 A 
HETATM   20  C21 UNL     1      25.516   5.413  50.052  1.00  0.00     0.298 A 
HETATM   21  O1  UNL     1      24.743   4.499  49.804  1.00  0.00    -0.128 OA
HETATM   22  N5  UNL     1      25.922   4.153  50.668  1.00  0.00     0.108 N 
HETATM   23  C22 UNL     1      24.977   3.003  50.452  1.00  0.00     0.349 C 
HETATM   24  C23 UNL     1      23.711   3.392  51.039  1.00  0.00     0.125 C 
HETATM   25  O2  UNL     1      23.774   4.379  51.885  1.00  0.00    -0.194 OA
HETATM   26  H26 UNL     1      26.849   4.305  51.168  1.00  0.00     0.328 HD
ENDROOT
BRANCH   8  27
HETATM   27  N3  UNL     1      20.327   5.116  48.679  1.00  0.00     0.095 N 
HETATM   28  H10 UNL     1      19.622   4.516  49.192  1.00  0.00     0.316 HD
BRANCH  27  29
HETATM   29  C9  UNL     1      20.633   4.509  47.459  1.00  0.00     0.285 C 
BRANCH  29  30
HETATM   30  C10 UNL     1      22.015   4.060  47.169  1.00  0.00     0.144 C 
HETATM   31 CL1  UNL     1      22.504   2.469  47.650  1.00  0.00    -0.129 Cl
ENDBRANCH  29  30
ENDBRANCH  27  29
ENDBRANCH   8  27
BRANCH   1  32
HETATM   32  N1  UNL     1      18.834   4.522  50.741  1.00  0.00    -0.379 N 
HETATM   33  C1  UNL     1      17.502   4.025  51.054  1.00  0.00     0.147 C 
HETATM   34  H4  UNL     1      18.481   5.305  50.163  1.00  0.00     0.160 HD
ENDBRANCH   1  32
TORSDOF 4
ENDMDL
MODEL 5
REMARK VINA RESULT:      -7.2      2.941      5.237
REMARK  4 active torsions:
REMARK  status: ('A' for Active; 'I' for Inactive)
REMARK    1  A    between atoms: N1_2  and  C2_3 
REMARK    2  A    between atoms: C8_10  and  N3_11 
REMARK    3  A    between atoms: N3_11  and  C9_12 
REMARK    4  A    between atoms: C9_12  and  C10_13 
ROOT
HETATM    1  C2  UNL     1      26.075   4.185  49.393  1.00  0.00     0.132 A 
HETATM    2  N2  UNL     1      27.361   4.451  49.252  1.00  0.00    -0.242 NA
HETATM    3  C3  UNL     1      27.799   5.562  48.681  1.00  0.00     0.126 A 
HETATM    4  C4  UNL     1      26.794   6.401  48.251  1.00  0.00    -0.031 A 
HETATM    5  C5  UNL     1      27.214   7.672  47.599  1.00  0.00     0.050 C 
HETATM    6  C6  UNL     1      25.471   6.106  48.408  1.00  0.00     0.018 A 
HETATM    7  C7  UNL     1      24.944   4.936  49.013  1.00  0.00     0.036 A 
HETATM    8  C8  UNL     1      23.589   4.394  49.268  1.00  0.00     0.280 C 
HETATM    9  C11 UNL     1      23.073   4.624  50.641  1.00  0.00     0.118 C 
HETATM   10  C12 UNL     1      23.072   3.349  51.414  1.00  0.00     0.029 C 
HETATM   11  C13 UNL     1      21.855   3.260  52.274  1.00  0.00     0.021 C 
HETATM   12  C14 UNL     1      20.883   4.159  51.626  1.00  0.00     0.118 C 
HETATM   13  N4  UNL     1      21.687   5.102  50.812  1.00  0.00    -0.394 N 
HETATM   14  C15 UNL     1      21.136   6.376  50.263  1.00  0.00     0.052 A 
HETATM   15  C16 UNL     1      20.382   5.862  49.260  1.00  0.00     0.059 A 
HETATM   16  C17 UNL     1      20.162   6.700  48.180  1.00  0.00    -0.024 A 
HETATM   17  C18 UNL     1      20.931   7.298  49.143  1.00  0.00     0.079 A 
HETATM   18  C19 UNL     1      21.686   7.775  50.180  1.00  0.00     0.060 A 
HETATM   19  C20 UNL     1      21.887   6.920  51.238  1.00  0.00    -0.014 A 
HETATM   20  C21 UNL     1      21.910   8.019  48.325  1.00  0.00     0.298 A 
HETATM   21  O1  UNL     1      22.656   7.278  47.701  1.00  0.00    -0.128 OA
HETATM   22  N5  UNL     1      22.880   8.751  47.515  1.00  0.00     0.108 N 
HETATM   23  C22 UNL     1      23.868   7.895  46.771  1.00  0.00     0.349 C 
HETATM   24  C23 UNL     1      24.603   7.149  47.772  1.00  0.00     0.125 C 
HETATM   25  O2  UNL     1      24.533   7.626  48.980  1.00  0.00    -0.194 OA
HETATM   26  H26 UNL     1      22.684   9.793  47.615  1.00  0.00     0.328 HD
ENDROOT
BRANCH   8  27
HETATM   27  N3  UNL     1      23.599   2.954  48.950  1.00  0.00     0.095 N 
HETATM   28  H10 UNL     1      24.585   2.749  48.625  1.00  0.00     0.316 HD
BRANCH  27  29
HETATM   29  C9  UNL     1      22.701   2.506  47.979  1.00  0.00     0.285 C 
BRANCH  29  30
HETATM   30  C10 UNL     1      21.364   1.999  48.369  1.00  0.00     0.144 C 
HETATM   31 CL1  UNL     1      21.250   0.770  49.584  1.00  0.00    -0.129 Cl
ENDBRANCH  29  30
ENDBRANCH  27  29
ENDBRANCH   8  27
BRANCH   1  32
HETATM   32  N1  UNL     1      25.991   2.877  50.001  1.00  0.00    -0.379 N 
HETATM   33  C1  UNL     1      26.653   2.487  51.238  1.00  0.00     0.147 C 
HETATM   34  H4  UNL     1      25.564   1.945  49.856  1.00  0.00     0.160 HD
ENDBRANCH   1  32
TORSDOF 4
ENDMDL
MODEL 6
REMARK VINA RESULT:      -7.1      2.527      3.576
REMARK  4 active torsions:
REMARK  status: ('A' for Active; 'I' for Inactive)
REMARK    1  A    between atoms: N1_2  and  C2_3 
REMARK    2  A    between atoms: C8_10  and  N3_11 
REMARK    3  A    between atoms: N3_11  and  C9_12 
REMARK    4  A    between atoms: C9_12  and  C10_13 
ROOT
HETATM    1  C2  UNL     1      22.397   2.575  50.269  1.00  0.00     0.132 A 
HETATM    2  N2  UNL     1      22.727   1.595  51.089  1.00  0.00    -0.242 NA
HETATM    3  C3  UNL     1      23.965   1.418  51.525  1.00  0.00     0.126 A 
HETATM    4  C4  UNL     1      24.863   2.346  51.044  1.00  0.00    -0.031 A 
HETATM    5  C5  UNL     1      26.275   2.210  51.495  1.00  0.00     0.050 C 
HETATM    6  C6  UNL     1      24.499   3.352  50.196  1.00  0.00     0.018 A 
HETATM    7  C7  UNL     1      23.192   3.591  49.699  1.00  0.00     0.036 A 
HETATM    8  C8  UNL     1      22.573   4.570  48.777  1.00  0.00     0.280 C 
HETATM    9  C11 UNL     1      21.889   5.709  49.442  1.00  0.00     0.118 C 
HETATM   10  C12 UNL     1      20.410   5.567  49.320  1.00  0.00     0.029 C 
HETATM   11  C13 UNL     1      19.775   6.897  49.081  1.00  0.00     0.021 C 
HETATM   12  C14 UNL     1      20.856   7.720  48.510  1.00  0.00     0.118 C 
HETATM   13  N4  UNL     1      22.122   7.075  48.936  1.00  0.00    -0.394 N 
HETATM   14  C15 UNL     1      23.447   7.759  48.862  1.00  0.00     0.052 A 
HETATM   15  C16 UNL     1      23.644   7.688  47.522  1.00  0.00     0.059 A 
HETATM   16  C17 UNL     1      24.964   7.690  47.106  1.00  0.00    -0.024 A 
HETATM   17  C18 UNL     1      24.858   7.764  48.470  1.00  0.00     0.079 A 
HETATM   18  C19 UNL     1      24.610   7.835  49.814  1.00  0.00     0.060 A 
HETATM   19  C20 UNL     1      23.290   7.831  50.196  1.00  0.00    -0.014 A 
HETATM   20  C21 UNL     1      25.957   6.890  48.893  1.00  0.00     0.298 A 
HETATM   21  O1  UNL     1      25.781   5.718  48.597  1.00  0.00    -0.128 OA
HETATM   22  N5  UNL     1      27.059   6.033  49.321  1.00  0.00     0.108 N 
HETATM   23  C22 UNL     1      26.873   4.567  49.041  1.00  0.00     0.349 C 
HETATM   24  C23 UNL     1      25.688   4.155  49.765  1.00  0.00     0.125 C 
HETATM   25  O2  UNL     1      25.313   4.960  50.716  1.00  0.00    -0.194 OA
HETATM   26  H26 UNL     1      27.809   6.644  49.763  1.00  0.00     0.328 HD
ENDROOT
BRANCH   8  27
HETATM   27  N3  UNL     1      21.640   3.848  47.892  1.00  0.00     0.095 N 
HETATM   28  H10 UNL     1      21.261   3.053  48.479  1.00  0.00     0.316 HD
BRANCH  27  29
HETATM   29  C9  UNL     1      22.156   3.327  46.704  1.00  0.00     0.285 C 
BRANCH  29  30
HETATM   30  C10 UNL     1      21.765   3.905  45.397  1.00  0.00     0.144 C 
HETATM   31 CL1  UNL     1      22.098   5.576  45.081  1.00  0.00    -0.129 Cl
ENDBRANCH  29  30
ENDBRANCH  27  29
ENDBRANCH   8  27
BRANCH   1  32
HETATM   32  N1  UNL     1      20.992   2.409  49.976  1.00  0.00    -0.379 N 
HETATM   33  C1  UNL     1      20.171   1.294  50.429  1.00  0.00     0.147 C 
HETATM   34  H4  UNL     1      20.213   2.866  49.470  1.00  0.00     0.160 HD
ENDBRANCH   1  32
TORSDOF 4
ENDMDL
MODEL 7
REMARK VINA RESULT:      -7.0      2.692      5.154
REMARK  4 active torsions:
REMARK  status: ('A' for Active; 'I' for Inactive)
REMARK    1  A    between atoms: N1_2  and  C2_3 
REMARK    2  A    between atoms: C8_10  and  N3_11 
REMARK    3  A    between atoms: N3_11  and  C9_12 
REMARK    4  A    between atoms: C9_12  and  C10_13 
ROOT
HETATM    1  C2  UNL     1      21.412   0.845  52.700  1.00  0.00     0.132 A 
HETATM    2  N2  UNL     1      20.758  -0.155  53.261  1.00  0.00    -0.242 NA
HETATM    3  C3  UNL     1      19.570  -0.556  52.837  1.00  0.00     0.126 A 
HETATM    4  C4  UNL     1      19.088   0.167  51.767  1.00  0.00    -0.031 A 
HETATM    5  C5  UNL     1      17.755  -0.229  51.235  1.00  0.00     0.050 C 
HETATM    6  C6  UNL     1      19.781   1.198  51.203  1.00  0.00     0.018 A 
HETATM    7  C7  UNL     1      21.056   1.668  51.612  1.00  0.00     0.036 A 
HETATM    8  C8  UNL     1      21.971   2.753  51.188  1.00  0.00     0.280 C 
HETATM    9  C11 UNL     1      23.072   2.325  50.288  1.00  0.00     0.118 C 
HETATM   10  C12 UNL     1      24.371   2.336  51.020  1.00  0.00     0.029 C 
HETATM   11  C13 UNL     1      25.466   2.833  50.134  1.00  0.00     0.021 C 
HETATM   12  C14 UNL     1      24.771   3.629  49.107  1.00  0.00     0.118 C 
HETATM   13  N4  UNL     1      23.373   3.136  49.092  1.00  0.00    -0.394 N 
HETATM   14  C15 UNL     1      22.419   3.429  47.981  1.00  0.00     0.052 A 
HETATM   15  C16 UNL     1      22.155   4.727  48.271  1.00  0.00     0.059 A 
HETATM   16  C17 UNL     1      20.925   5.201  47.847  1.00  0.00    -0.024 A 
HETATM   17  C18 UNL     1      21.108   3.884  47.515  1.00  0.00     0.079 A 
HETATM   18  C19 UNL     1      21.419   2.580  47.245  1.00  0.00     0.060 A 
HETATM   19  C20 UNL     1      22.646   2.138  47.677  1.00  0.00    -0.014 A 
HETATM   20  C21 UNL     1      19.773   3.334  47.770  1.00  0.00     0.298 A 
HETATM   21  O1  UNL     1      19.463   3.350  48.952  1.00  0.00    -0.128 OA
HETATM   22  N5  UNL     1      18.442   2.783  48.008  1.00  0.00     0.108 N 
HETATM   23  C22 UNL     1      18.027   2.717  49.453  1.00  0.00     0.349 C 
HETATM   24  C23 UNL     1      18.985   1.859  50.119  1.00  0.00     0.125 C 
HETATM   25  O2  UNL     1      19.685   1.095  49.332  1.00  0.00    -0.194 OA
HETATM   26  H26 UNL     1      18.010   2.528  47.070  1.00  0.00     0.328 HD
ENDROOT
BRANCH   8  27
HETATM   27  N3  UNL     1      22.509   3.404  52.396  1.00  0.00     0.095 N 
HETATM   28  H10 UNL     1      22.067   2.889  53.209  1.00  0.00     0.316 HD
BRANCH  27  29
HETATM   29  C9  UNL     1      22.273   4.772  52.547  1.00  0.00     0.285 C 
BRANCH  29  30
HETATM   30  C10 UNL     1      22.707   5.729  51.503  1.00  0.00     0.144 C 
HETATM   31 CL1  UNL     1      21.612   6.968  50.986  1.00  0.00    -0.129 Cl
ENDBRANCH  29  30
ENDBRANCH  27  29
ENDBRANCH   8  27
BRANCH   1  32
HETATM   32  N1  UNL     1      22.627   1.020  53.463  1.00  0.00    -0.379 N 
HETATM   33  C1  UNL     1      23.633  -0.010  53.678  1.00  0.00     0.147 C 
HETATM   34  H4  UNL     1      23.137   1.730  54.016  1.00  0.00     0.160 HD
ENDBRANCH   1  32
TORSDOF 4
ENDMDL
MODEL 8
REMARK VINA RESULT:      -6.9      2.307      5.337
REMARK  4 active torsions:
REMARK  status: ('A' for Active; 'I' for Inactive)
REMARK    1  A    between atoms: N1_2  and  C2_3 
REMARK    2  A    between atoms: C8_10  and  N3_11 
REMARK    3  A    between atoms: N3_11  and  C9_12 
REMARK    4  A    between atoms: C9_12  and  C10_13 
ROOT
HETATM    1  C2  UNL     1      24.696   4.868  49.074  1.00  0.00     0.132 A 
HETATM    2  N2  UNL     1      26.013   4.889  48.996  1.00  0.00    -0.242 NA
HETATM    3  C3  UNL     1      26.783   4.129  49.759  1.00  0.00     0.126 A 
HETATM    4  C4  UNL     1      26.083   3.325  50.631  1.00  0.00    -0.031 A 
HETATM    5  C5  UNL     1      26.885   2.441  51.520  1.00  0.00     0.050 C 
HETATM    6  C6  UNL     1      24.719   3.320  50.695  1.00  0.00     0.018 A 
HETATM    7  C7  UNL     1      23.845   4.108  49.903  1.00  0.00     0.036 A 
HETATM    8  C8  UNL     1      22.379   4.293  49.809  1.00  0.00     0.280 C 
HETATM    9  C11 UNL     1      21.722   3.528  48.717  1.00  0.00     0.118 C 
HETATM   10  C12 UNL     1      21.302   4.448  47.622  1.00  0.00     0.029 C 
HETATM   11  C13 UNL     1      19.979   4.032  47.069  1.00  0.00     0.021 C 
HETATM   12  C14 UNL     1      19.358   3.253  48.155  1.00  0.00     0.118 C 
HETATM   13  N4  UNL     1      20.478   2.792  49.011  1.00  0.00    -0.394 N 
HETATM   14  C15 UNL     1      20.333   1.703  50.023  1.00  0.00     0.052 A 
HETATM   15  C16 UNL     1      19.646   2.390  50.970  1.00  0.00     0.059 A 
HETATM   16  C17 UNL     1      19.800   1.940  52.270  1.00  0.00    -0.024 A 
HETATM   17  C18 UNL     1      20.527   1.193  51.382  1.00  0.00     0.079 A 
HETATM   18  C19 UNL     1      21.200   0.531  50.392  1.00  0.00     0.060 A 
HETATM   19  C20 UNL     1      21.028   0.999  49.112  1.00  0.00    -0.014 A 
HETATM   20  C21 UNL     1      21.763   0.969  52.137  1.00  0.00     0.298 A 
HETATM   21  O1  UNL     1      22.403   1.992  52.329  1.00  0.00    -0.128 OA
HETATM   22  N5  UNL     1      22.992   0.730  52.889  1.00  0.00     0.108 N 
HETATM   23  C22 UNL     1      23.856   1.942  53.104  1.00  0.00     0.349 C 
HETATM   24  C23 UNL     1      24.230   2.421  51.789  1.00  0.00     0.125 C 
HETATM   25  O2  UNL     1      24.086   1.559  50.825  1.00  0.00    -0.194 OA
HETATM   26  H26 UNL     1      23.032  -0.301  53.150  1.00  0.00     0.328 HD
ENDROOT
BRANCH   8  27
HETATM   27  N3  UNL     1      22.101   5.735  49.674  1.00  0.00     0.095 N 
HETATM   28  H10 UNL     1      23.036   6.177  49.450  1.00  0.00     0.316 HD
BRANCH  27  29
HETATM   29  C9  UNL     1      21.545   6.387  50.776  1.00  0.00     0.285 C 
BRANCH  29  30
HETATM   30  C10 UNL     1      21.243   7.836  50.718  1.00  0.00     0.144 C 
HETATM   31 CL1  UNL     1      21.930   8.791  49.446  1.00  0.00    -0.129 Cl
ENDBRANCH  29  30
ENDBRANCH  27  29
ENDBRANCH   8  27
BRANCH   1  32
HETATM   32  N1  UNL     1      24.214   5.860  48.140  1.00  0.00    -0.379 N 
HETATM   33  C1  UNL     1      24.849   7.146  47.887  1.00  0.00     0.147 C 
HETATM   34  H4  UNL     1      23.446   6.030  47.467  1.00  0.00     0.160 HD
ENDBRANCH   1  32
TORSDOF 4
ENDMDL
MODEL 9
REMARK VINA RESULT:      -6.5      4.625      6.480
REMARK  4 active torsions:
REMARK  status: ('A' for Active; 'I' for Inactive)
REMARK    1  A    between atoms: N1_2  and  C2_3 
REMARK    2  A    between atoms: C8_10  and  N3_11 
REMARK    3  A    between atoms: N3_11  and  C9_12 
REMARK    4  A    between atoms: C9_12  and  C10_13 
ROOT
HETATM    1  C2  UNL     1      18.084  -0.887  52.893  1.00  0.00     0.132 A 
HETATM    2  N2  UNL     1      19.199  -1.283  53.477  1.00  0.00    -0.242 NA
HETATM    3  C3  UNL     1      20.336  -0.614  53.368  1.00  0.00     0.126 A 
HETATM    4  C4  UNL     1      20.242   0.521  52.592  1.00  0.00    -0.031 A 
HETATM    5  C5  UNL     1      21.484   1.325  52.426  1.00  0.00     0.050 C 
HETATM    6  C6  UNL     1      19.078   0.912  51.997  1.00  0.00     0.018 A 
HETATM    7  C7  UNL     1      17.832   0.239  52.081  1.00  0.00     0.036 A 
HETATM    8  C8  UNL     1      16.476   0.445  51.522  1.00  0.00     0.280 C 
HETATM    9  C11 UNL     1      15.514   1.102  52.442  1.00  0.00     0.118 C 
HETATM   10  C12 UNL     1      14.507   0.116  52.928  1.00  0.00     0.029 C 
HETATM   11  C13 UNL     1      13.155   0.746  53.009  1.00  0.00     0.021 C 
HETATM   12  C14 UNL     1      13.225   1.883  52.074  1.00  0.00     0.118 C 
HETATM   13  N4  UNL     1      14.667   2.196  51.928  1.00  0.00    -0.394 N 
HETATM   14  C15 UNL     1      15.166   3.477  51.343  1.00  0.00     0.052 A 
HETATM   15  C16 UNL     1      14.897   3.228  50.038  1.00  0.00     0.059 A 
HETATM   16  C17 UNL     1      15.695   3.891  49.121  1.00  0.00    -0.024 A 
HETATM   17  C18 UNL     1      16.035   4.199  50.412  1.00  0.00     0.079 A 
HETATM   18  C19 UNL     1      16.269   4.419  51.742  1.00  0.00     0.060 A 
HETATM   19  C20 UNL     1      15.461   3.748  52.628  1.00  0.00    -0.014 A 
HETATM   20  C21 UNL     1      17.498   4.236  50.325  1.00  0.00     0.298 A 
HETATM   21  O1  UNL     1      17.995   3.145  50.089  1.00  0.00    -0.128 OA
HETATM   22  N5  UNL     1      18.955   4.289  50.240  1.00  0.00     0.108 N 
HETATM   23  C22 UNL     1      19.631   2.964  50.015  1.00  0.00     0.349 C 
HETATM   24  C23 UNL     1      19.284   2.127  51.145  1.00  0.00     0.125 C 
HETATM   25  O2  UNL     1      18.843   2.763  52.191  1.00  0.00    -0.194 OA
HETATM   26  H26 UNL     1      19.262   5.301  50.358  1.00  0.00     0.328 HD
ENDROOT
BRANCH   8  27
HETATM   27  N3  UNL     1      15.957  -0.859  51.071  1.00  0.00     0.095 N 
HETATM   28  H10 UNL     1      16.591  -1.579  51.520  1.00  0.00     0.316 HD
BRANCH  27  29
HETATM   29  C9  UNL     1      15.914  -1.091  49.695  1.00  0.00     0.285 C 
BRANCH  29  30
HETATM   30  C10 UNL     1      15.146  -0.189  48.804  1.00  0.00     0.144 C 
HETATM   31 CL1  UNL     1      13.444   0.002  49.061  1.00  0.00    -0.129 Cl
ENDBRANCH  29  30
ENDBRANCH  27  29
ENDBRANCH   8  27
BRANCH   1  32
HETATM   32  N1  UNL     1      17.086  -1.889  53.192  1.00  0.00    -0.379 N 
HETATM   33  C1  UNL     1      17.373  -3.250  53.623  1.00  0.00     0.147 C 
HETATM   34  H4  UNL     1      16.060  -2.026  53.213  1.00  0.00     0.160 HD
ENDBRANCH   1  32
TORSDOF 4
ENDMDL
