MODEL 1
REMARK VINA RESULT:      -8.6      0.000      0.000
REMARK  1 active torsions:
REMARK  status: ('A' for Active; 'I' for Inactive)
REMARK    1  A    between atoms: C11_15  and  C12_16 
ROOT
HETATM    1 CL1  UNL     1      25.758   6.985  48.132  1.00  0.00    -0.084 Cl
HETATM    2  C1  UNL     1      25.160   5.559  48.939  1.00  0.00     0.034 A 
HETATM    3  C2  UNL     1      23.793   5.374  48.940  1.00  0.00     0.026 A 
HETATM    4  C3  UNL     1      23.301   4.256  49.571  1.00  0.00     0.039 A 
HETATM    5  C4  UNL     1      24.141   3.352  50.182  1.00  0.00     0.086 A 
HETATM    6  C5  UNL     1      25.514   3.497  50.205  1.00  0.00    -0.005 A 
HETATM    7  C6  UNL     1      26.004   4.637  49.561  1.00  0.00     0.035 A 
HETATM    8  C7  UNL     1      26.716   2.825  50.706  1.00  0.00     0.161 C 
HETATM    9  N1  UNL     1      26.459   1.503  51.237  1.00  0.00    -0.380 N 
HETATM   10  C8  UNL     1      25.311   1.037  51.983  1.00  0.00     0.112 A 
HETATM   11  C9  UNL     1      23.972   1.376  51.736  1.00  0.00     0.200 A 
HETATM   12  N2  UNL     1      23.020   0.772  52.512  1.00  0.00    -0.215 NA
HETATM   13  C10 UNL     1      23.429  -0.115  53.470  1.00  0.00     0.236 A 
HETATM   14  N3  UNL     1      24.722  -0.409  53.674  1.00  0.00    -0.239 NA
HETATM   15  C11 UNL     1      25.717   0.148  52.951  1.00  0.00     0.101 A 
HETATM   16  O2  UNL     1      23.473   2.273  50.777  1.00  0.00    -0.289 OA
HETATM   17  H6  UNL     1      27.107   0.651  51.126  1.00  0.00     0.160 HD
ENDROOT
BRANCH  15  18
HETATM   18  C12 UNL     1      27.087  -0.153  53.306  1.00  0.00     0.018 C 
HETATM   19  C13 UNL     1      27.511  -1.408  53.021  1.00  0.00     0.155 C 
HETATM   20  O1  UNL     1      28.806  -1.860  53.297  1.00  0.00    -0.333 OA
HETATM   21  C14 UNL     1      29.724  -0.984  53.900  1.00  0.00     0.153 C 
HETATM   22  C15 UNL     1      29.410   0.291  53.715  1.00  0.00    -0.001 C 
HETATM   23  C16 UNL     1      28.155   0.564  53.990  1.00  0.00     0.030 C 
ENDBRANCH  15  18
TORSDOF 1
ENDMDL
MODEL 2
REMARK VINA RESULT:      -8.5      1.993      4.063
REMARK  1 active torsions:
REMARK  status: ('A' for Active; 'I' for Inactive)
REMARK    1  A    between atoms: C11_15  and  C12_16 
ROOT
HETATM    1 CL1  UNL     1      24.005   6.322  47.948  1.00  0.00    -0.084 Cl
HETATM    2  C1  UNL     1      24.786   5.155  48.983  1.00  0.00     0.034 A 
HETATM    3  C2  UNL     1      26.164   5.102  48.930  1.00  0.00     0.026 A 
HETATM    4  C3  UNL     1      26.798   4.188  49.738  1.00  0.00     0.039 A 
HETATM    5  C4  UNL     1      26.086   3.354  50.571  1.00  0.00     0.086 A 
HETATM    6  C5  UNL     1      24.709   3.373  50.656  1.00  0.00    -0.005 A 
HETATM    7  C6  UNL     1      24.073   4.306  49.830  1.00  0.00     0.035 A 
HETATM    8  C7  UNL     1      23.607   2.709  51.359  1.00  0.00     0.161 C 
HETATM    9  N1  UNL     1      24.048   1.836  52.427  1.00  0.00    -0.380 N 
HETATM   10  C8  UNL     1      25.219   0.990  52.476  1.00  0.00     0.112 A 
HETATM   11  C9  UNL     1      26.497   1.319  51.998  1.00  0.00     0.200 A 
HETATM   12  N2  UNL     1      27.496   0.405  52.203  1.00  0.00    -0.215 NA
HETATM   13  C10 UNL     1      27.190  -0.758  52.854  1.00  0.00     0.236 A 
HETATM   14  N3  UNL     1      25.953  -1.033  53.293  1.00  0.00    -0.239 NA
HETATM   15  C11 UNL     1      24.916  -0.184  53.127  1.00  0.00     0.101 A 
HETATM   16  O2  UNL     1      26.890   2.486  51.322  1.00  0.00    -0.289 OA
HETATM   17  H6  UNL     1      23.551   1.711  53.373  1.00  0.00     0.160 HD
ENDROOT
BRANCH  15  18
HETATM   18  C12 UNL     1      23.597  -0.606  53.545  1.00  0.00     0.018 C 
HETATM   19  C13 UNL     1      23.504  -1.098  54.804  1.00  0.00     0.155 C 
HETATM   20  O1  UNL     1      22.304  -1.548  55.364  1.00  0.00    -0.333 OA
HETATM   21  C14 UNL     1      21.127  -1.494  54.598  1.00  0.00     0.153 C 
HETATM   22  C15 UNL     1      21.198  -0.607  53.615  1.00  0.00    -0.001 C 
HETATM   23  C16 UNL     1      22.295  -0.707  52.899  1.00  0.00     0.030 C 
ENDBRANCH  15  18
TORSDOF 1
ENDMDL
MODEL 3
REMARK VINA RESULT:      -8.4      3.295      4.807
REMARK  1 active torsions:
REMARK  status: ('A' for Active; 'I' for Inactive)
REMARK    1  A    between atoms: C11_15  and  C12_16 
ROOT
HETATM    1 CL1  UNL     1      18.748  -1.036  53.110  1.00  0.00    -0.084 Cl
HETATM    2  C1  UNL     1      19.990   0.014  52.479  1.00  0.00     0.034 A 
HETATM    3  C2  UNL     1      19.624   0.857  51.449  1.00  0.00     0.026 A 
HETATM    4  C3  UNL     1      20.589   1.693  50.937  1.00  0.00     0.039 A 
HETATM    5  C4  UNL     1      21.874   1.691  51.432  1.00  0.00     0.086 A 
HETATM    6  C5  UNL     1      22.282   0.866  52.461  1.00  0.00    -0.005 A 
HETATM    7  C6  UNL     1      21.294   0.019  52.975  1.00  0.00     0.035 A 
HETATM    8  C7  UNL     1      23.473   0.547  53.254  1.00  0.00     0.161 C 
HETATM    9  N1  UNL     1      24.576   1.457  53.028  1.00  0.00    -0.380 N 
HETATM   10  C8  UNL     1      24.985   2.092  51.796  1.00  0.00     0.112 A 
HETATM   11  C9  UNL     1      24.131   2.628  50.820  1.00  0.00     0.200 A 
HETATM   12  N2  UNL     1      24.715   3.254  49.752  1.00  0.00    -0.215 NA
HETATM   13  C10 UNL     1      26.081   3.319  49.704  1.00  0.00     0.236 A 
HETATM   14  N3  UNL     1      26.861   2.790  50.659  1.00  0.00    -0.239 NA
HETATM   15  C11 UNL     1      26.357   2.156  51.740  1.00  0.00     0.101 A 
HETATM   16  O2  UNL     1      22.726   2.603  50.796  1.00  0.00    -0.289 OA
HETATM   17  H6  UNL     1      25.255   1.810  53.785  1.00  0.00     0.160 HD
ENDROOT
BRANCH  15  18
HETATM   18  C12 UNL     1      27.275   1.531  52.669  1.00  0.00     0.018 C 
HETATM   19  C13 UNL     1      28.014   2.376  53.429  1.00  0.00     0.155 C 
HETATM   20  O1  UNL     1      28.945   1.936  54.376  1.00  0.00    -0.333 OA
HETATM   21  C14 UNL     1      29.135   0.556  54.562  1.00  0.00     0.153 C 
HETATM   22  C15 UNL     1      28.096  -0.161  54.159  1.00  0.00    -0.001 C 
HETATM   23  C16 UNL     1      27.674   0.160  52.957  1.00  0.00     0.030 C 
ENDBRANCH  15  18
TORSDOF 1
ENDMDL
MODEL 4
REMARK VINA RESULT:      -8.3      2.351      2.991
REMARK  1 active torsions:
REMARK  status: ('A' for Active; 'I' for Inactive)
REMARK    1  A    between atoms: C11_15  and  C12_16 
ROOT
HETATM    1 CL1  UNL     1      21.377   6.096  50.238  1.00  0.00    -0.084 Cl
HETATM    2  C1  UNL     1      21.500   4.557  51.050  1.00  0.00     0.034 A 
HETATM    3  C2  UNL     1      20.318   3.982  51.471  1.00  0.00     0.026 A 
HETATM    4  C3  UNL     1      20.394   2.769  52.115  1.00  0.00     0.039 A 
HETATM    5  C4  UNL     1      21.604   2.149  52.332  1.00  0.00     0.086 A 
HETATM    6  C5  UNL     1      22.810   2.688  51.928  1.00  0.00    -0.005 A 
HETATM    7  C6  UNL     1      22.721   3.922  51.275  1.00  0.00     0.035 A 
HETATM    8  C7  UNL     1      24.246   2.396  51.949  1.00  0.00     0.161 C 
HETATM    9  N1  UNL     1      24.555   1.056  52.402  1.00  0.00    -0.380 N 
HETATM   10  C8  UNL     1      23.899   0.276  53.427  1.00  0.00     0.112 A 
HETATM   11  C9  UNL     1      22.516   0.210  53.657  1.00  0.00     0.200 A 
HETATM   12  N2  UNL     1      22.085  -0.646  54.635  1.00  0.00    -0.215 NA
HETATM   13  C10 UNL     1      23.017  -1.375  55.319  1.00  0.00     0.236 A 
HETATM   14  N3  UNL     1      24.332  -1.279  55.068  1.00  0.00    -0.239 NA
HETATM   15  C11 UNL     1      24.833  -0.456  54.122  1.00  0.00     0.101 A 
HETATM   16  O2  UNL     1      21.498   0.922  53.001  1.00  0.00    -0.289 OA
HETATM   17  H6  UNL     1      25.335   0.431  52.006  1.00  0.00     0.160 HD
ENDROOT
BRANCH  15  18
HETATM   18  C12 UNL     1      26.270  -0.345  53.988  1.00  0.00     0.018 C 
HETATM   19  C13 UNL     1      26.905   0.335  54.974  1.00  0.00     0.155 C 
HETATM   20  O1  UNL     1      28.290   0.532  54.998  1.00  0.00    -0.333 OA
HETATM   21  C14 UNL     1      29.076   0.006  53.958  1.00  0.00     0.153 C 
HETATM   22  C15 UNL     1      28.483  -0.998  53.327  1.00  0.00    -0.001 C 
HETATM   23  C16 UNL     1      27.244  -0.736  52.978  1.00  0.00     0.030 C 
ENDBRANCH  15  18
TORSDOF 1
ENDMDL
MODEL 5
REMARK VINA RESULT:      -8.1      3.331      6.515
REMARK  1 active torsions:
REMARK  status: ('A' for Active; 'I' for Inactive)
REMARK    1  A    between atoms: C11_15  and  C12_16 
ROOT
HETATM    1 CL1  UNL     1      27.540  -2.391  52.699  1.00  0.00    -0.084 Cl
HETATM    2  C1  UNL     1      26.457  -1.024  52.721  1.00  0.00     0.034 A 
HETATM    3  C2  UNL     1      25.259  -1.193  53.385  1.00  0.00     0.026 A 
HETATM    4  C3  UNL     1      24.391  -0.126  53.413  1.00  0.00     0.039 A 
HETATM    5  C4  UNL     1      24.704   1.067  52.802  1.00  0.00     0.086 A 
HETATM    6  C5  UNL     1      25.890   1.279  52.128  1.00  0.00    -0.005 A 
HETATM    7  C6  UNL     1      26.765   0.189  52.105  1.00  0.00     0.035 A 
HETATM    8  C7  UNL     1      26.596   2.321  51.377  1.00  0.00     0.161 C 
HETATM    9  N1  UNL     1      25.955   3.618  51.448  1.00  0.00    -0.380 N 
HETATM   10  C8  UNL     1      24.543   3.927  51.472  1.00  0.00     0.112 A 
HETATM   11  C9  UNL     1      23.554   3.219  52.172  1.00  0.00     0.200 A 
HETATM   12  N2  UNL     1      22.279   3.715  52.126  1.00  0.00    -0.215 NA
HETATM   13  C10 UNL     1      22.050   4.856  51.409  1.00  0.00     0.236 A 
HETATM   14  N3  UNL     1      23.026   5.501  50.752  1.00  0.00    -0.239 NA
HETATM   15  C11 UNL     1      24.307   5.073  50.749  1.00  0.00     0.101 A 
HETATM   16  O2  UNL     1      23.707   2.044  52.928  1.00  0.00    -0.289 OA
HETATM   17  H6  UNL     1      26.468   4.561  51.514  1.00  0.00     0.160 HD
ENDROOT
BRANCH  15  18
HETATM   18  C12 UNL     1      25.273   5.775  49.932  1.00  0.00     0.018 C 
HETATM   19  C13 UNL     1      25.537   7.054  50.295  1.00  0.00     0.155 C 
HETATM   20  O1  UNL     1      26.445   7.871  49.615  1.00  0.00    -0.333 OA
HETATM   21  C14 UNL     1      27.127   7.357  48.499  1.00  0.00     0.153 C 
HETATM   22  C15 UNL     1      27.181   6.032  48.498  1.00  0.00    -0.001 C 
HETATM   23  C16 UNL     1      26.017   5.463  48.719  1.00  0.00     0.030 C 
ENDBRANCH  15  18
TORSDOF 1
ENDMDL
MODEL 6
REMARK VINA RESULT:      -8.1      4.266      6.276
REMARK  1 active torsions:
REMARK  status: ('A' for Active; 'I' for Inactive)
REMARK    1  A    between atoms: C11_15  and  C12_16 
ROOT
HETATM    1 CL1  UNL     1      16.025   0.394  51.279  1.00  0.00    -0.084 Cl
HETATM    2  C1  UNL     1      17.441  -0.220  52.092  1.00  0.00     0.034 A 
HETATM    3  C2  UNL     1      17.230  -1.165  53.075  1.00  0.00     0.026 A 
HETATM    4  C3  UNL     1      18.334  -1.661  53.729  1.00  0.00     0.039 A 
HETATM    5  C4  UNL     1      19.604  -1.232  53.415  1.00  0.00     0.086 A 
HETATM    6  C5  UNL     1      19.861  -0.290  52.440  1.00  0.00    -0.005 A 
HETATM    7  C6  UNL     1      18.732   0.209  51.781  1.00  0.00     0.035 A 
HETATM    8  C7  UNL     1      20.981   0.418  51.813  1.00  0.00     0.161 C 
HETATM    9  N1  UNL     1      22.278  -0.096  52.204  1.00  0.00    -0.380 N 
HETATM   10  C8  UNL     1      22.698  -0.602  53.491  1.00  0.00     0.112 A 
HETATM   11  C9  UNL     1      21.937  -1.412  54.349  1.00  0.00     0.200 A 
HETATM   12  N2  UNL     1      22.542  -1.848  55.497  1.00  0.00    -0.215 NA
HETATM   13  C10 UNL     1      23.836  -1.472  55.734  1.00  0.00     0.236 A 
HETATM   14  N3  UNL     1      24.526  -0.693  54.887  1.00  0.00    -0.239 NA
HETATM   15  C11 UNL     1      23.997  -0.223  53.737  1.00  0.00     0.101 A 
HETATM   16  O2  UNL     1      20.610  -1.840  54.178  1.00  0.00    -0.289 OA
HETATM   17  H6  UNL     1      23.130  -0.190  51.554  1.00  0.00     0.160 HD
ENDROOT
BRANCH  15  18
HETATM   18  C12 UNL     1      24.781   0.691  52.934  1.00  0.00     0.018 C 
HETATM   19  C13 UNL     1      25.894   0.170  52.362  1.00  0.00     0.155 C 
HETATM   20  O1  UNL     1      26.760   0.915  51.555  1.00  0.00    -0.333 OA
HETATM   21  C14 UNL     1      26.477   2.270  51.314  1.00  0.00     0.153 C 
HETATM   22  C15 UNL     1      25.197   2.565  51.493  1.00  0.00    -0.001 C 
HETATM   23  C16 UNL     1      24.711   2.113  52.627  1.00  0.00     0.030 C 
ENDBRANCH  15  18
TORSDOF 1
ENDMDL
MODEL 7
REMARK VINA RESULT:      -7.9      3.476      6.519
REMARK  1 active torsions:
REMARK  status: ('A' for Active; 'I' for Inactive)
REMARK    1  A    between atoms: C11_15  and  C12_16 
ROOT
HETATM    1 CL1  UNL     1      29.408  -0.974  54.199  1.00  0.00    -0.084 Cl
HETATM    2  C1  UNL     1      28.175   0.104  53.601  1.00  0.00     0.034 A 
HETATM    3  C2  UNL     1      28.589   1.357  53.196  1.00  0.00     0.026 A 
HETATM    4  C3  UNL     1      27.632   2.222  52.721  1.00  0.00     0.039 A 
HETATM    5  C4  UNL     1      26.306   1.855  52.652  1.00  0.00     0.086 A 
HETATM    6  C5  UNL     1      25.848   0.613  53.045  1.00  0.00    -0.005 A 
HETATM    7  C6  UNL     1      26.830  -0.259  53.526  1.00  0.00     0.035 A 
HETATM    8  C7  UNL     1      24.606  -0.159  53.140  1.00  0.00     0.161 C 
HETATM    9  N1  UNL     1      23.477   0.484  52.499  1.00  0.00    -0.380 N 
HETATM   10  C8  UNL     1      23.156   1.892  52.437  1.00  0.00     0.112 A 
HETATM   11  C9  UNL     1      24.069   2.940  52.246  1.00  0.00     0.200 A 
HETATM   12  N2  UNL     1      23.557   4.206  52.144  1.00  0.00    -0.215 NA
HETATM   13  C10 UNL     1      22.202   4.368  52.233  1.00  0.00     0.236 A 
HETATM   14  N3  UNL     1      21.364   3.336  52.418  1.00  0.00    -0.239 NA
HETATM   15  C11 UNL     1      21.794   2.061  52.530  1.00  0.00     0.101 A 
HETATM   16  O2  UNL     1      25.468   2.857  52.145  1.00  0.00    -0.289 OA
HETATM   17  H6  UNL     1      22.707  -0.022  51.945  1.00  0.00     0.160 HD
ENDROOT
BRANCH  15  18
HETATM   18  C12 UNL     1      20.828   1.025  52.827  1.00  0.00     0.018 C 
HETATM   19  C13 UNL     1      19.930   0.755  51.849  1.00  0.00     0.155 C 
HETATM   20  O1  UNL     1      18.932  -0.217  51.973  1.00  0.00    -0.333 OA
HETATM   21  C14 UNL     1      18.843  -0.960  53.162  1.00  0.00     0.153 C 
HETATM   22  C15 UNL     1      19.983  -0.980  53.839  1.00  0.00    -0.001 C 
HETATM   23  C16 UNL     1      20.519   0.209  53.993  1.00  0.00     0.030 C 
ENDBRANCH  15  18
TORSDOF 1
ENDMDL
MODEL 8
REMARK VINA RESULT:      -7.6      3.628      6.606
REMARK  1 active torsions:
REMARK  status: ('A' for Active; 'I' for Inactive)
REMARK    1  A    between atoms: C11_15  and  C12_16 
ROOT
HETATM    1 CL1  UNL     1      25.989  -1.434  53.471  1.00  0.00    -0.084 Cl
HETATM    2  C1  UNL     1      25.329   0.017  52.764  1.00  0.00     0.034 A 
HETATM    3  C2  UNL     1      23.961   0.177  52.842  1.00  0.00     0.026 A 
HETATM    4  C3  UNL     1      23.420   1.315  52.290  1.00  0.00     0.039 A 
HETATM    5  C4  UNL     1      24.214   2.262  51.681  1.00  0.00     0.086 A 
HETATM    6  C5  UNL     1      25.586   2.142  51.582  1.00  0.00    -0.005 A 
HETATM    7  C6  UNL     1      26.125   0.982  52.146  1.00  0.00     0.035 A 
HETATM    8  C7  UNL     1      26.751   2.858  51.053  1.00  0.00     0.161 C 
HETATM    9  N1  UNL     1      26.446   4.199  50.599  1.00  0.00    -0.380 N 
HETATM   10  C8  UNL     1      25.255   4.679  49.936  1.00  0.00     0.112 A 
HETATM   11  C9  UNL     1      23.936   4.305  50.234  1.00  0.00     0.200 A 
HETATM   12  N2  UNL     1      22.936   4.929  49.537  1.00  0.00    -0.215 NA
HETATM   13  C10 UNL     1      23.281   5.866  48.603  1.00  0.00     0.236 A 
HETATM   14  N3  UNL     1      24.558   6.192  48.348  1.00  0.00    -0.239 NA
HETATM   15  C11 UNL     1      25.597   5.619  48.993  1.00  0.00     0.101 A 
HETATM   16  O2  UNL     1      23.500   3.355  51.174  1.00  0.00    -0.289 OA
HETATM   17  H6  UNL     1      27.086   5.055  50.719  1.00  0.00     0.160 HD
ENDROOT
BRANCH  15  18
HETATM   18  C12 UNL     1      26.943   5.961  48.582  1.00  0.00     0.018 C 
HETATM   19  C13 UNL     1      27.197   7.283  48.429  1.00  0.00     0.155 C 
HETATM   20  O1  UNL     1      28.444   7.782  48.040  1.00  0.00    -0.333 OA
HETATM   21  C14 UNL     1      29.496   6.883  47.793  1.00  0.00     0.153 C 
HETATM   22  C15 UNL     1      29.323   5.715  48.397  1.00  0.00    -0.001 C 
HETATM   23  C16 UNL     1      28.128   5.202  48.207  1.00  0.00     0.030 C 
ENDBRANCH  15  18
TORSDOF 1
ENDMDL
MODEL 9
REMARK VINA RESULT:      -7.5      3.353      7.500
REMARK  1 active torsions:
REMARK  status: ('A' for Active; 'I' for Inactive)
REMARK    1  A    between atoms: C11_15  and  C12_16 
ROOT
HETATM    1 CL1  UNL     1      24.570  -0.884  54.950  1.00  0.00    -0.084 Cl
HETATM    2  C1  UNL     1      25.130   0.088  53.614  1.00  0.00     0.034 A 
HETATM    3  C2  UNL     1      26.356  -0.245  53.076  1.00  0.00     0.026 A 
HETATM    4  C3  UNL     1      26.816   0.510  52.022  1.00  0.00     0.039 A 
HETATM    5  C4  UNL     1      26.080   1.560  51.520  1.00  0.00     0.086 A 
HETATM    6  C5  UNL     1      24.849   1.927  52.027  1.00  0.00    -0.005 A 
HETATM    7  C6  UNL     1      24.391   1.154  53.098  1.00  0.00     0.035 A 
HETATM    8  C7  UNL     1      23.785   2.913  51.817  1.00  0.00     0.161 C 
HETATM    9  N1  UNL     1      23.957   3.699  50.612  1.00  0.00    -0.380 N 
HETATM   10  C8  UNL     1      25.181   4.191  50.022  1.00  0.00     0.112 A 
HETATM   11  C9  UNL     1      26.395   3.492  49.934  1.00  0.00     0.200 A 
HETATM   12  N2  UNL     1      27.423   4.106  49.271  1.00  0.00    -0.215 NA
HETATM   13  C10 UNL     1      27.207   5.349  48.742  1.00  0.00     0.236 A 
HETATM   14  N3  UNL     1      26.029   5.982  48.852  1.00  0.00    -0.239 NA
HETATM   15  C11 UNL     1      24.969   5.442  49.492  1.00  0.00     0.101 A 
HETATM   16  O2  UNL     1      26.697   2.220  50.449  1.00  0.00    -0.289 OA
HETATM   17  H6  UNL     1      23.163   4.017  49.960  1.00  0.00     0.160 HD
ENDROOT
BRANCH  15  18
HETATM   18  C12 UNL     1      23.771   6.239  49.646  1.00  0.00     0.018 C 
HETATM   19  C13 UNL     1      23.040   6.432  48.522  1.00  0.00     0.155 C 
HETATM   20  O1  UNL     1      21.855   7.175  48.498  1.00  0.00    -0.333 OA
HETATM   21  C14 UNL     1      21.384   7.754  49.689  1.00  0.00     0.153 C 
HETATM   22  C15 UNL     1      21.858   7.153  50.771  1.00  0.00    -0.001 C 
HETATM   23  C16 UNL     1      23.160   6.977  50.743  1.00  0.00     0.030 C 
ENDBRANCH  15  18
TORSDOF 1
ENDMDL
