MODEL 1
REMARK VINA RESULT:      -8.1      0.000      0.000
REMARK  4 active torsions:
REMARK  status: ('A' for Active; 'I' for Inactive)
REMARK    1  A    between atoms: C3_3  and  C4_4 
REMARK       I    between atoms: C4_4  and  N1_6 
REMARK    2  A    between atoms: N1_6  and  C5_7 
REMARK    3  A    between atoms: C9_14  and  N5_15 
REMARK    4  A    between atoms: N5_15  and  C10_16 
ROOT
HETATM    1  C1  UNL     1      28.114   9.108  48.453  1.00  0.00     0.112 C 
HETATM    2  C2  UNL     1      27.638   7.744  48.587  1.00  0.00    -0.101 C 
HETATM    3  C3  UNL     1      27.255   6.608  48.710  1.00  0.00    -0.006 C 
ENDROOT
BRANCH   3   4
HETATM    4  C4  UNL     1      26.801   5.237  48.883  1.00  0.00     0.299 C 
HETATM    5  O1  UNL     1      27.697   4.346  48.743  1.00  0.00    -0.258 OA
HETATM    6  N1  UNL     1      25.427   4.936  49.189  1.00  0.00    -0.305 N 
HETATM    7  H4  UNL     1      24.748   5.695  49.290  1.00  0.00     0.167 HD
BRANCH   6   8
HETATM    8  C5  UNL     1      25.087   3.530  49.340  1.00  0.00     0.360 A 
HETATM    9  N2  UNL     1      23.761   3.260  48.856  1.00  0.00    -0.247 NA
HETATM   10  C6  UNL     1      22.902   2.634  49.559  1.00  0.00     0.150 A 
HETATM   11  C7  UNL     1      23.170   2.147  50.878  1.00  0.00     0.112 A 
HETATM   12  N3  UNL     1      22.275   1.487  51.630  1.00  0.00    -0.238 NA
HETATM   13  C16 UNL     1      24.421   2.385  51.374  1.00  0.00     0.149 A 
HETATM   14  C8  UNL     1      22.615   1.059  52.875  1.00  0.00     0.236 A 
HETATM   15  N4  UNL     1      23.838   1.287  53.369  1.00  0.00    -0.221 NA
HETATM   16  C9  UNL     1      24.758   1.942  52.650  1.00  0.00     0.165 A 
HETATM   17  O2  UNL     1      25.359   3.058  50.629  1.00  0.00    -0.300 OA
BRANCH  16  18
HETATM   18  N5  UNL     1      26.066   2.211  53.123  1.00  0.00    -0.339 N 
HETATM   19  H8  UNL     1      26.306   3.208  53.400  1.00  0.00     0.167 HD
BRANCH  18  20
HETATM   20  C10 UNL     1      27.174   1.346  53.302  1.00  0.00     0.035 A 
HETATM   21  C11 UNL     1      28.413   1.781  53.769  1.00  0.00     0.032 A 
HETATM   22  C12 UNL     1      29.483   0.947  53.942  1.00  0.00     0.046 A 
HETATM   23  C13 UNL     1      29.382  -0.393  53.656  1.00  0.00     0.138 A 
HETATM   24  F1  UNL     1      30.466  -1.181  53.843  1.00  0.00    -0.204 F 
HETATM   25  C14 UNL     1      28.190  -0.888  53.193  1.00  0.00     0.074 A 
HETATM   26 CL1  UNL     1      28.092  -2.592  52.839  1.00  0.00    -0.081 Cl
HETATM   27  C15 UNL     1      27.149  -0.002  53.039  1.00  0.00     0.056 A 
ENDBRANCH  18  20
ENDBRANCH  16  18
ENDBRANCH   6   8
ENDBRANCH   3   4
TORSDOF 4
ENDMDL
MODEL 2
REMARK VINA RESULT:      -7.9      2.269      3.109
REMARK  4 active torsions:
REMARK  status: ('A' for Active; 'I' for Inactive)
REMARK    1  A    between atoms: C3_3  and  C4_4 
REMARK       I    between atoms: C4_4  and  N1_6 
REMARK    2  A    between atoms: N1_6  and  C5_7 
REMARK    3  A    between atoms: C9_14  and  N5_15 
REMARK    4  A    between atoms: N5_15  and  C10_16 
ROOT
HETATM    1  C1  UNL     1      25.299   7.116  48.386  1.00  0.00     0.112 C 
HETATM    2  C2  UNL     1      24.615   5.873  48.685  1.00  0.00    -0.101 C 
HETATM    3  C3  UNL     1      24.055   4.839  48.951  1.00  0.00    -0.006 C 
ENDROOT
BRANCH   3   4
HETATM    4  C4  UNL     1      23.378   3.598  49.295  1.00  0.00     0.299 C 
HETATM    5  O1  UNL     1      23.063   2.861  48.309  1.00  0.00    -0.258 OA
HETATM    6  N1  UNL     1      23.096   3.253  50.663  1.00  0.00    -0.305 N 
HETATM    7  H4  UNL     1      23.374   3.887  51.418  1.00  0.00     0.167 HD
BRANCH   6   8
HETATM    8  C5  UNL     1      22.416   1.988  50.888  1.00  0.00     0.360 A 
HETATM    9  N2  UNL     1      21.076   2.194  51.366  1.00  0.00    -0.247 NA
HETATM   10  C6  UNL     1      20.634   1.607  52.408  1.00  0.00     0.150 A 
HETATM   11  C7  UNL     1      21.418   0.698  53.190  1.00  0.00     0.112 A 
HETATM   12  N3  UNL     1      20.966   0.073  54.289  1.00  0.00    -0.238 NA
HETATM   13  C16 UNL     1      22.698   0.476  52.767  1.00  0.00     0.149 A 
HETATM   14  C8  UNL     1      21.780  -0.775  54.972  1.00  0.00     0.236 A 
HETATM   15  N4  UNL     1      23.035  -0.999  54.566  1.00  0.00    -0.221 NA
HETATM   16  C9  UNL     1      23.522  -0.394  53.475  1.00  0.00     0.165 A 
HETATM   17  O2  UNL     1      23.190   1.102  51.646  1.00  0.00    -0.300 OA
BRANCH  16  18
HETATM   18  N5  UNL     1      24.842  -0.594  53.000  1.00  0.00    -0.339 N 
HETATM   19  H8  UNL     1      25.016  -1.385  52.313  1.00  0.00     0.167 HD
BRANCH  18  20
HETATM   20  C10 UNL     1      26.039   0.107  53.292  1.00  0.00     0.035 A 
HETATM   21  C11 UNL     1      26.071   1.467  53.595  1.00  0.00     0.032 A 
HETATM   22  C12 UNL     1      27.225   2.144  53.878  1.00  0.00     0.046 A 
HETATM   23  C13 UNL     1      28.437   1.498  53.874  1.00  0.00     0.138 A 
HETATM   24  F1  UNL     1      29.553   2.207  54.159  1.00  0.00    -0.204 F 
HETATM   25  C14 UNL     1      28.478   0.158  53.583  1.00  0.00     0.074 A 
HETATM   26 CL1  UNL     1      30.030  -0.636  53.586  1.00  0.00    -0.081 Cl
HETATM   27  C15 UNL     1      27.284  -0.470  53.308  1.00  0.00     0.056 A 
ENDBRANCH  18  20
ENDBRANCH  16  18
ENDBRANCH   6   8
ENDBRANCH   3   4
TORSDOF 4
ENDMDL
MODEL 3
REMARK VINA RESULT:      -7.5      1.888      2.022
REMARK  4 active torsions:
REMARK  status: ('A' for Active; 'I' for Inactive)
REMARK    1  A    between atoms: C3_3  and  C4_4 
REMARK       I    between atoms: C4_4  and  N1_6 
REMARK    2  A    between atoms: N1_6  and  C5_7 
REMARK    3  A    between atoms: C9_14  and  N5_15 
REMARK    4  A    between atoms: N5_15  and  C10_16 
ROOT
HETATM    1  C1  UNL     1      27.332   9.332  50.293  1.00  0.00     0.112 C 
HETATM    2  C2  UNL     1      26.405   8.229  50.126  1.00  0.00    -0.101 C 
HETATM    3  C3  UNL     1      25.650   7.300  49.986  1.00  0.00    -0.006 C 
ENDROOT
BRANCH   3   4
HETATM    4  C4  UNL     1      24.754   6.165  49.830  1.00  0.00     0.299 C 
HETATM    5  O1  UNL     1      24.590   5.763  48.635  1.00  0.00    -0.258 OA
HETATM    6  N1  UNL     1      24.109   5.557  50.964  1.00  0.00    -0.305 N 
HETATM    7  H4  UNL     1      24.278   5.923  51.905  1.00  0.00     0.167 HD
BRANCH   6   8
HETATM    8  C5  UNL     1      23.235   4.428  50.688  1.00  0.00     0.360 A 
HETATM    9  N2  UNL     1      21.909   4.660  51.192  1.00  0.00    -0.247 NA
HETATM   10  C6  UNL     1      21.312   3.810  51.931  1.00  0.00     0.150 A 
HETATM   11  C7  UNL     1      21.893   2.562  52.323  1.00  0.00     0.112 A 
HETATM   12  N3  UNL     1      21.276   1.658  53.099  1.00  0.00    -0.238 NA
HETATM   13  C16 UNL     1      23.154   2.305  51.862  1.00  0.00     0.149 A 
HETATM   14  C8  UNL     1      21.904   0.496  53.423  1.00  0.00     0.236 A 
HETATM   15  N4  UNL     1      23.138   0.235  52.976  1.00  0.00    -0.221 NA
HETATM   16  C9  UNL     1      23.787   1.111  52.200  1.00  0.00     0.165 A 
HETATM   17  O2  UNL     1      23.813   3.210  51.065  1.00  0.00    -0.300 OA
BRANCH  16  18
HETATM   18  N5  UNL     1      25.094   0.888  51.700  1.00  0.00    -0.339 N 
HETATM   19  H8  UNL     1      25.206   0.658  50.669  1.00  0.00     0.167 HD
BRANCH  18  20
HETATM   20  C10 UNL     1      26.347   0.915  52.361  1.00  0.00     0.035 A 
HETATM   21  C11 UNL     1      26.926   2.086  52.848  1.00  0.00     0.032 A 
HETATM   22  C12 UNL     1      28.136   2.113  53.487  1.00  0.00     0.046 A 
HETATM   23  C13 UNL     1      28.852   0.958  53.682  1.00  0.00     0.138 A 
HETATM   24  F1  UNL     1      30.044   1.032  54.319  1.00  0.00    -0.204 F 
HETATM   25  C14 UNL     1      28.340  -0.230  53.228  1.00  0.00     0.074 A 
HETATM   26 CL1  UNL     1      29.272  -1.680  53.491  1.00  0.00    -0.081 Cl
HETATM   27  C15 UNL     1      27.119  -0.196  52.594  1.00  0.00     0.056 A 
ENDBRANCH  18  20
ENDBRANCH  16  18
ENDBRANCH   6   8
ENDBRANCH   3   4
TORSDOF 4
ENDMDL
MODEL 4
REMARK VINA RESULT:      -7.5      1.862      2.619
REMARK  4 active torsions:
REMARK  status: ('A' for Active; 'I' for Inactive)
REMARK    1  A    between atoms: C3_3  and  C4_4 
REMARK       I    between atoms: C4_4  and  N1_6 
REMARK    2  A    between atoms: N1_6  and  C5_7 
REMARK    3  A    between atoms: C9_14  and  N5_15 
REMARK    4  A    between atoms: N5_15  and  C10_16 
ROOT
HETATM    1  C1  UNL     1      30.522  10.452  49.442  1.00  0.00     0.112 C 
HETATM    2  C2  UNL     1      29.697   9.301  49.128  1.00  0.00    -0.101 C 
HETATM    3  C3  UNL     1      28.998   8.351  48.881  1.00  0.00    -0.006 C 
ENDROOT
BRANCH   3   4
HETATM    4  C4  UNL     1      28.135   7.217  48.585  1.00  0.00     0.299 C 
HETATM    5  O1  UNL     1      28.392   6.608  47.500  1.00  0.00    -0.258 OA
HETATM    6  N1  UNL     1      27.072   6.834  49.476  1.00  0.00    -0.305 N 
HETATM    7  H4  UNL     1      26.911   7.362  50.338  1.00  0.00     0.167 HD
BRANCH   6   8
HETATM    8  C5  UNL     1      26.274   5.685  49.079  1.00  0.00     0.360 A 
HETATM    9  N2  UNL     1      25.096   6.090  48.362  1.00  0.00    -0.247 NA
HETATM   10  C6  UNL     1      23.935   5.674  48.682  1.00  0.00     0.150 A 
HETATM   11  C7  UNL     1      23.694   4.775  49.771  1.00  0.00     0.112 A 
HETATM   12  N3  UNL     1      22.478   4.329  50.120  1.00  0.00    -0.238 NA
HETATM   13  C16 UNL     1      24.790   4.366  50.478  1.00  0.00     0.149 A 
HETATM   14  C8  UNL     1      22.341   3.475  51.170  1.00  0.00     0.236 A 
HETATM   15  N4  UNL     1      23.408   3.069  51.867  1.00  0.00    -0.221 NA
HETATM   16  C9  UNL     1      24.638   3.492  51.551  1.00  0.00     0.165 A 
HETATM   17  O2  UNL     1      26.049   4.806  50.145  1.00  0.00    -0.300 OA
BRANCH  16  18
HETATM   18  N5  UNL     1      25.801   3.095  52.255  1.00  0.00    -0.339 N 
HETATM   19  H8  UNL     1      26.380   3.846  52.733  1.00  0.00     0.167 HD
BRANCH  18  20
HETATM   20  C10 UNL     1      26.365   1.809  52.445  1.00  0.00     0.035 A 
HETATM   21  C11 UNL     1      25.666   0.627  52.207  1.00  0.00     0.032 A 
HETATM   22  C12 UNL     1      26.210  -0.615  52.390  1.00  0.00     0.046 A 
HETATM   23  C13 UNL     1      27.503  -0.756  52.829  1.00  0.00     0.138 A 
HETATM   24  F1  UNL     1      28.000  -2.004  52.996  1.00  0.00    -0.204 F 
HETATM   25  C14 UNL     1      28.249   0.367  53.083  1.00  0.00     0.074 A 
HETATM   26 CL1  UNL     1      29.888   0.155  53.639  1.00  0.00    -0.081 Cl
HETATM   27  C15 UNL     1      27.649   1.589  52.880  1.00  0.00     0.056 A 
ENDBRANCH  18  20
ENDBRANCH  16  18
ENDBRANCH   6   8
ENDBRANCH   3   4
TORSDOF 4
ENDMDL
MODEL 5
REMARK VINA RESULT:      -7.4      3.891      4.563
REMARK  4 active torsions:
REMARK  status: ('A' for Active; 'I' for Inactive)
REMARK    1  A    between atoms: C3_3  and  C4_4 
REMARK       I    between atoms: C4_4  and  N1_6 
REMARK    2  A    between atoms: N1_6  and  C5_7 
REMARK    3  A    between atoms: C9_14  and  N5_15 
REMARK    4  A    between atoms: N5_15  and  C10_16 
ROOT
HETATM    1  C1  UNL     1      20.628   7.583  50.166  1.00  0.00     0.112 C 
HETATM    2  C2  UNL     1      20.840   6.152  50.269  1.00  0.00    -0.101 C 
HETATM    3  C3  UNL     1      21.003   4.962  50.369  1.00  0.00    -0.006 C 
ENDROOT
BRANCH   3   4
HETATM    4  C4  UNL     1      21.177   3.523  50.494  1.00  0.00     0.299 C 
HETATM    5  O1  UNL     1      21.960   2.994  49.644  1.00  0.00    -0.258 OA
HETATM    6  N1  UNL     1      20.498   2.773  51.518  1.00  0.00    -0.305 N 
HETATM    7  H4  UNL     1      19.878   3.252  52.177  1.00  0.00     0.167 HD
BRANCH   6   8
HETATM    8  C5  UNL     1      20.747   1.341  51.549  1.00  0.00     0.360 A 
HETATM    9  N2  UNL     1      19.597   0.622  52.025  1.00  0.00    -0.247 NA
HETATM   10  C6  UNL     1      19.680  -0.236  52.965  1.00  0.00     0.150 A 
HETATM   11  C7  UNL     1      20.908  -0.561  53.626  1.00  0.00     0.112 A 
HETATM   12  N3  UNL     1      21.011  -1.461  54.616  1.00  0.00    -0.238 NA
HETATM   13  C16 UNL     1      22.025   0.103  53.200  1.00  0.00     0.149 A 
HETATM   14  C8  UNL     1      22.220  -1.709  55.189  1.00  0.00     0.236 A 
HETATM   15  N4  UNL     1      23.318  -1.064  54.779  1.00  0.00    -0.221 NA
HETATM   16  C9  UNL     1      23.257  -0.160  53.794  1.00  0.00     0.165 A 
HETATM   17  O2  UNL     1      21.952   1.030  52.189  1.00  0.00    -0.300 OA
BRANCH  16  18
HETATM   18  N5  UNL     1      24.387   0.552  53.321  1.00  0.00    -0.339 N 
HETATM   19  H8  UNL     1      24.234   1.513  52.895  1.00  0.00     0.167 HD
BRANCH  18  20
HETATM   20  C10 UNL     1      25.758   0.196  53.311  1.00  0.00     0.035 A 
HETATM   21  C11 UNL     1      26.230  -1.005  52.783  1.00  0.00     0.032 A 
HETATM   22  C12 UNL     1      27.554  -1.350  52.771  1.00  0.00     0.046 A 
HETATM   23  C13 UNL     1      28.503  -0.506  53.294  1.00  0.00     0.138 A 
HETATM   24  F1  UNL     1      29.800  -0.888  53.262  1.00  0.00    -0.204 F 
HETATM   25  C14 UNL     1      28.107   0.693  53.830  1.00  0.00     0.074 A 
HETATM   26 CL1  UNL     1      29.335   1.743  54.486  1.00  0.00    -0.081 Cl
HETATM   27  C15 UNL     1      26.763   0.986  53.813  1.00  0.00     0.056 A 
ENDBRANCH  18  20
ENDBRANCH  16  18
ENDBRANCH   6   8
ENDBRANCH   3   4
TORSDOF 4
ENDMDL
MODEL 6
REMARK VINA RESULT:      -7.3      2.706      3.531
REMARK  4 active torsions:
REMARK  status: ('A' for Active; 'I' for Inactive)
REMARK    1  A    between atoms: C3_3  and  C4_4 
REMARK       I    between atoms: C4_4  and  N1_6 
REMARK    2  A    between atoms: N1_6  and  C5_7 
REMARK    3  A    between atoms: C9_14  and  N5_15 
REMARK    4  A    between atoms: N5_15  and  C10_16 
ROOT
HETATM    1  C1  UNL     1      30.560  10.243  49.483  1.00  0.00     0.112 C 
HETATM    2  C2  UNL     1      29.556   9.232  49.208  1.00  0.00    -0.101 C 
HETATM    3  C3  UNL     1      28.713   8.398  48.995  1.00  0.00    -0.006 C 
ENDROOT
BRANCH   3   4
HETATM    4  C4  UNL     1      27.677   7.407  48.746  1.00  0.00     0.299 C 
HETATM    5  O1  UNL     1      27.730   6.841  47.609  1.00  0.00    -0.258 OA
HETATM    6  N1  UNL     1      26.675   7.107  49.734  1.00  0.00    -0.305 N 
HETATM    7  H4  UNL     1      26.682   7.594  50.634  1.00  0.00     0.167 HD
BRANCH   6   8
HETATM    8  C5  UNL     1      25.691   6.098  49.376  1.00  0.00     0.360 A 
HETATM    9  N2  UNL     1      24.712   6.625  48.465  1.00  0.00    -0.247 NA
HETATM   10  C6  UNL     1      23.461   6.504  48.676  1.00  0.00     0.150 A 
HETATM   11  C7  UNL     1      22.918   5.842  49.824  1.00  0.00     0.112 A 
HETATM   12  N3  UNL     1      21.603   5.708  50.059  1.00  0.00    -0.238 NA
HETATM   13  C16 UNL     1      23.817   5.327  50.714  1.00  0.00     0.149 A 
HETATM   14  C8  UNL     1      21.174   5.062  51.177  1.00  0.00     0.236 A 
HETATM   15  N4  UNL     1      22.047   4.555  52.054  1.00  0.00    -0.221 NA
HETATM   16  C9  UNL     1      23.366   4.668  51.855  1.00  0.00     0.165 A 
HETATM   17  O2  UNL     1      25.169   5.449  50.501  1.00  0.00    -0.300 OA
BRANCH  16  18
HETATM   18  N5  UNL     1      24.334   4.151  52.750  1.00  0.00    -0.339 N 
HETATM   19  H8  UNL     1      24.958   4.837  53.268  1.00  0.00     0.167 HD
BRANCH  18  20
HETATM   20  C10 UNL     1      24.641   2.812  53.098  1.00  0.00     0.035 A 
HETATM   21  C11 UNL     1      25.876   2.422  53.613  1.00  0.00     0.032 A 
HETATM   22  C12 UNL     1      26.173   1.129  53.950  1.00  0.00     0.046 A 
HETATM   23  C13 UNL     1      25.242   0.132  53.791  1.00  0.00     0.138 A 
HETATM   24  F1  UNL     1      25.579  -1.132  54.138  1.00  0.00    -0.204 F 
HETATM   25  C14 UNL     1      24.005   0.446  53.289  1.00  0.00     0.074 A 
HETATM   26 CL1  UNL     1      22.845  -0.841  53.100  1.00  0.00    -0.081 Cl
HETATM   27  C15 UNL     1      23.764   1.763  52.969  1.00  0.00     0.056 A 
ENDBRANCH  18  20
ENDBRANCH  16  18
ENDBRANCH   6   8
ENDBRANCH   3   4
TORSDOF 4
ENDMDL
MODEL 7
REMARK VINA RESULT:      -7.2      3.669      6.710
REMARK  4 active torsions:
REMARK  status: ('A' for Active; 'I' for Inactive)
REMARK    1  A    between atoms: C3_3  and  C4_4 
REMARK       I    between atoms: C4_4  and  N1_6 
REMARK    2  A    between atoms: N1_6  and  C5_7 
REMARK    3  A    between atoms: C9_14  and  N5_15 
REMARK    4  A    between atoms: N5_15  and  C10_16 
ROOT
HETATM    1  C1  UNL     1      29.212  -1.979  53.081  1.00  0.00     0.112 C 
HETATM    2  C2  UNL     1      27.995  -1.191  53.130  1.00  0.00    -0.101 C 
HETATM    3  C3  UNL     1      26.984  -0.534  53.152  1.00  0.00    -0.006 C 
ENDROOT
BRANCH   3   4
HETATM    4  C4  UNL     1      25.758   0.249  53.156  1.00  0.00     0.299 C 
HETATM    5  O1  UNL     1      25.916   1.504  53.033  1.00  0.00    -0.258 OA
HETATM    6  N1  UNL     1      24.470  -0.378  53.293  1.00  0.00    -0.305 N 
HETATM    7  H4  UNL     1      24.403  -1.394  53.389  1.00  0.00     0.167 HD
BRANCH   6   8
HETATM    8  C5  UNL     1      23.314   0.504  53.284  1.00  0.00     0.360 A 
HETATM    9  N2  UNL     1      22.189  -0.104  53.942  1.00  0.00    -0.247 NA
HETATM   10  C6  UNL     1      21.041  -0.166  53.393  1.00  0.00     0.150 A 
HETATM   11  C7  UNL     1      20.763   0.355  52.088  1.00  0.00     0.112 A 
HETATM   12  N3  UNL     1      19.559   0.297  51.498  1.00  0.00    -0.238 NA
HETATM   13  C16 UNL     1      21.808   0.942  51.431  1.00  0.00     0.149 A 
HETATM   14  C8  UNL     1      19.385   0.819  50.254  1.00  0.00     0.236 A 
HETATM   15  N4  UNL     1      20.402   1.395  49.603  1.00  0.00    -0.221 NA
HETATM   16  C9  UNL     1      21.617   1.473  50.158  1.00  0.00     0.165 A 
HETATM   17  O2  UNL     1      23.053   1.017  52.009  1.00  0.00    -0.300 OA
BRANCH  16  18
HETATM   18  N5  UNL     1      22.729   2.071  49.514  1.00  0.00    -0.339 N 
HETATM   19  H8  UNL     1      23.152   1.574  48.676  1.00  0.00     0.167 HD
BRANCH  18  20
HETATM   20  C10 UNL     1      23.417   3.276  49.800  1.00  0.00     0.035 A 
HETATM   21  C11 UNL     1      22.900   4.271  50.629  1.00  0.00     0.032 A 
HETATM   22  C12 UNL     1      23.563   5.434  50.906  1.00  0.00     0.046 A 
HETATM   23  C13 UNL     1      24.802   5.681  50.367  1.00  0.00     0.138 A 
HETATM   24  F1  UNL     1      25.422   6.845  50.670  1.00  0.00    -0.204 F 
HETATM   25  C14 UNL     1      25.370   4.744  49.543  1.00  0.00     0.074 A 
HETATM   26 CL1  UNL     1      26.943   5.085  48.874  1.00  0.00    -0.081 Cl
HETATM   27  C15 UNL     1      24.656   3.593  49.300  1.00  0.00     0.056 A 
ENDBRANCH  18  20
ENDBRANCH  16  18
ENDBRANCH   6   8
ENDBRANCH   3   4
TORSDOF 4
ENDMDL
MODEL 8
REMARK VINA RESULT:      -7.1      2.417      5.469
REMARK  4 active torsions:
REMARK  status: ('A' for Active; 'I' for Inactive)
REMARK    1  A    between atoms: C3_3  and  C4_4 
REMARK       I    between atoms: C4_4  and  N1_6 
REMARK    2  A    between atoms: N1_6  and  C5_7 
REMARK    3  A    between atoms: C9_14  and  N5_15 
REMARK    4  A    between atoms: N5_15  and  C10_16 
ROOT
HETATM    1  C1  UNL     1      18.109  -1.219  52.899  1.00  0.00     0.112 C 
HETATM    2  C2  UNL     1      19.070  -0.188  52.556  1.00  0.00    -0.101 C 
HETATM    3  C3  UNL     1      19.861   0.679  52.285  1.00  0.00    -0.006 C 
ENDROOT
BRANCH   3   4
HETATM    4  C4  UNL     1      20.819   1.732  51.982  1.00  0.00     0.299 C 
HETATM    5  O1  UNL     1      21.642   1.465  51.051  1.00  0.00    -0.258 OA
HETATM    6  N1  UNL     1      20.813   2.979  52.701  1.00  0.00    -0.305 N 
HETATM    7  H4  UNL     1      20.126   3.139  53.442  1.00  0.00     0.167 HD
BRANCH   6   8
HETATM    8  C5  UNL     1      21.815   3.958  52.312  1.00  0.00     0.360 A 
HETATM    9  N2  UNL     1      21.483   4.574  51.057  1.00  0.00    -0.247 NA
HETATM   10  C6  UNL     1      22.319   4.643  50.097  1.00  0.00     0.150 A 
HETATM   11  C7  UNL     1      23.650   4.121  50.175  1.00  0.00     0.112 A 
HETATM   12  N3  UNL     1      24.541   4.185  49.173  1.00  0.00    -0.238 NA
HETATM   13  C16 UNL     1      24.004   3.527  51.354  1.00  0.00     0.149 A 
HETATM   14  C8  UNL     1      25.786   3.663  49.334  1.00  0.00     0.236 A 
HETATM   15  N4  UNL     1      26.142   3.079  50.485  1.00  0.00    -0.221 NA
HETATM   16  C9  UNL     1      25.282   2.995  51.507  1.00  0.00     0.165 A 
HETATM   17  O2  UNL     1      23.115   3.445  52.398  1.00  0.00    -0.300 OA
BRANCH  16  18
HETATM   18  N5  UNL     1      25.605   2.389  52.746  1.00  0.00    -0.339 N 
HETATM   19  H8  UNL     1      24.972   2.575  53.578  1.00  0.00     0.167 HD
BRANCH  18  20
HETATM   20  C10 UNL     1      26.678   1.532  53.097  1.00  0.00     0.035 A 
HETATM   21  C11 UNL     1      27.807   1.969  53.788  1.00  0.00     0.032 A 
HETATM   22  C12 UNL     1      28.844   1.144  54.128  1.00  0.00     0.046 A 
HETATM   23  C13 UNL     1      28.817  -0.188  53.796  1.00  0.00     0.138 A 
HETATM   24  F1  UNL     1      29.864  -0.968  54.153  1.00  0.00    -0.204 F 
HETATM   25  C14 UNL     1      27.735  -0.686  53.116  1.00  0.00     0.074 A 
HETATM   26 CL1  UNL     1      27.729  -2.380  52.708  1.00  0.00    -0.081 Cl
HETATM   27  C15 UNL     1      26.723   0.192  52.801  1.00  0.00     0.056 A 
ENDBRANCH  18  20
ENDBRANCH  16  18
ENDBRANCH   6   8
ENDBRANCH   3   4
TORSDOF 4
ENDMDL
MODEL 9
REMARK VINA RESULT:      -6.9      4.250      6.098
REMARK  4 active torsions:
REMARK  status: ('A' for Active; 'I' for Inactive)
REMARK    1  A    between atoms: C3_3  and  C4_4 
REMARK       I    between atoms: C4_4  and  N1_6 
REMARK    2  A    between atoms: N1_6  and  C5_7 
REMARK    3  A    between atoms: C9_14  and  N5_15 
REMARK    4  A    between atoms: N5_15  and  C10_16 
ROOT
HETATM    1  C1  UNL     1      22.506   7.097  46.451  1.00  0.00     0.112 C 
HETATM    2  C2  UNL     1      23.132   6.497  47.614  1.00  0.00    -0.101 C 
HETATM    3  C3  UNL     1      23.669   6.005  48.574  1.00  0.00    -0.006 C 
ENDROOT
BRANCH   3   4
HETATM    4  C4  UNL     1      24.333   5.429  49.734  1.00  0.00     0.299 C 
HETATM    5  O1  UNL     1      24.976   6.254  50.455  1.00  0.00    -0.258 OA
HETATM    6  N1  UNL     1      24.253   4.021  50.020  1.00  0.00    -0.305 N 
HETATM    7  H4  UNL     1      23.719   3.403  49.403  1.00  0.00     0.167 HD
BRANCH   6   8
HETATM    8  C5  UNL     1      24.955   3.558  51.206  1.00  0.00     0.360 A 
HETATM    9  N2  UNL     1      26.281   3.105  50.883  1.00  0.00    -0.247 NA
HETATM   10  C6  UNL     1      26.714   1.967  51.259  1.00  0.00     0.150 A 
HETATM   11  C7  UNL     1      25.935   1.044  52.028  1.00  0.00     0.112 A 
HETATM   12  N3  UNL     1      26.378  -0.158  52.431  1.00  0.00    -0.238 NA
HETATM   13  C16 UNL     1      24.668   1.439  52.355  1.00  0.00     0.149 A 
HETATM   14  C8  UNL     1      25.569  -0.972  53.160  1.00  0.00     0.236 A 
HETATM   15  N4  UNL     1      24.327  -0.594  53.485  1.00  0.00    -0.221 NA
HETATM   16  C9  UNL     1      23.849   0.596  53.102  1.00  0.00     0.165 A 
HETATM   17  O2  UNL     1      24.186   2.662  51.958  1.00  0.00    -0.300 OA
BRANCH  16  18
HETATM   18  N5  UNL     1      22.544   1.047  53.418  1.00  0.00    -0.339 N 
HETATM   19  H8  UNL     1      22.443   1.898  54.045  1.00  0.00     0.167 HD
BRANCH  18  20
HETATM   20  C10 UNL     1      21.279   0.540  53.030  1.00  0.00     0.035 A 
HETATM   21  C11 UNL     1      20.532  -0.332  53.820  1.00  0.00     0.032 A 
HETATM   22  C12 UNL     1      19.310  -0.821  53.447  1.00  0.00     0.046 A 
HETATM   23  C13 UNL     1      18.749  -0.465  52.245  1.00  0.00     0.138 A 
HETATM   24  F1  UNL     1      17.539  -0.972  51.917  1.00  0.00    -0.204 F 
HETATM   25  C14 UNL     1      19.431   0.392  51.418  1.00  0.00     0.074 A 
HETATM   26 CL1  UNL     1      18.694   0.826  49.899  1.00  0.00    -0.081 Cl
HETATM   27  C15 UNL     1      20.655   0.851  51.847  1.00  0.00     0.056 A 
ENDBRANCH  18  20
ENDBRANCH  16  18
ENDBRANCH   6   8
ENDBRANCH   3   4
TORSDOF 4
ENDMDL
