MODEL 1
REMARK VINA RESULT:      -7.7      0.000      0.000
REMARK  3 active torsions:
REMARK  status: ('A' for Active; 'I' for Inactive)
REMARK    1  A    between atoms: N1_1  and  C1_2 
REMARK    2  A    between atoms: N4_7  and  C4_8 
REMARK    3  A    between atoms: C9_14  and  O1_15 
ROOT
HETATM    1  C1  UNL     1      23.228   0.487  52.256  1.00  0.00     0.370 C 
HETATM    2  N2  UNL     1      22.823   1.373  51.257  1.00  0.00    -0.243 NA
HETATM    3  C2  UNL     1      22.242   1.337  50.169  1.00  0.00     0.230 C 
HETATM    4  N3  UNL     1      22.103   2.616  49.570  1.00  0.00    -0.237 NA
HETATM    5  C3  UNL     1      22.665   3.691  50.007  1.00  0.00     0.210 C 
HETATM    6  N4  UNL     1      23.490   3.644  51.163  1.00  0.00    -0.350 N 
HETATM    7  C10 UNL     1      23.271   3.753  52.571  1.00  0.00     0.133 C 
HETATM    8  C11 UNL     1      24.504   3.417  53.371  1.00  0.00     0.055 C 
HETATM    9  C12 UNL     1      25.047   2.069  53.183  1.00  0.00    -0.072 C 
HETATM   10  C13 UNL     1      24.600   0.866  52.747  1.00  0.00    -0.024 C 
HETATM   11  C14 UNL     1      25.619  -0.237  52.756  1.00  0.00     0.038 C 
HETATM   12  C15 UNL     1      26.135  -0.386  54.148  1.00  0.00     0.005 C 
HETATM   13  C16 UNL     1      26.543   0.945  54.714  1.00  0.00     0.005 C 
HETATM   14  C17 UNL     1      26.480   1.997  53.595  1.00  0.00     0.034 C 
ENDROOT
BRANCH   6  15
HETATM   15  C4  UNL     1      24.688   3.479  50.439  1.00  0.00     0.106 C 
HETATM   16  C5  UNL     1      25.469   4.415  49.925  1.00  0.00     0.013 A 
HETATM   17  C6  UNL     1      26.677   4.071  49.202  1.00  0.00     0.016 A 
HETATM   18  C9  UNL     1      25.136   5.819  50.075  1.00  0.00     0.078 A 
HETATM   19  C7  UNL     1      27.570   4.833  48.631  1.00  0.00     0.009 A 
HETATM   20  P1  UNL     1      27.329   6.644  48.709  1.00  0.00    -0.080 P 
HETATM   21  C8  UNL     1      25.773   6.889  49.647  1.00  0.00     0.045 A 
HETATM   22  H9  UNL     1      27.313   7.277  47.420  1.00  0.00     0.066 HD
BRANCH  18  23
HETATM   23  O1  UNL     1      24.008   6.267  50.746  1.00  0.00    -0.360 OA
HETATM   24  H11 UNL     1      24.029   6.268  51.757  1.00  0.00     0.217 HD
ENDBRANCH  18  23
ENDBRANCH   6  15
BRANCH   1  25
HETATM   25  N1  UNL     1      22.345   0.627  53.427  1.00  0.00     0.107 N 
HETATM   26  H1  UNL     1      22.920   0.685  54.277  1.00  0.00     0.316 HD
HETATM   27  H2  UNL     1      21.791   1.511  53.279  1.00  0.00     0.316 HD
ENDBRANCH   1  25
TORSDOF 3
ENDMDL
MODEL 2
REMARK VINA RESULT:      -7.5      2.914      4.727
REMARK  3 active torsions:
REMARK  status: ('A' for Active; 'I' for Inactive)
REMARK    1  A    between atoms: N1_1  and  C1_2 
REMARK    2  A    between atoms: N4_7  and  C4_8 
REMARK    3  A    between atoms: C9_14  and  O1_15 
ROOT
HETATM    1  C1  UNL     1      22.117   2.523  50.359  1.00  0.00     0.370 C 
HETATM    2  N2  UNL     1      23.443   2.877  50.109  1.00  0.00    -0.243 NA
HETATM    3  C2  UNL     1      24.169   3.120  49.141  1.00  0.00     0.230 C 
HETATM    4  N3  UNL     1      25.501   3.439  49.511  1.00  0.00    -0.237 NA
HETATM    5  C3  UNL     1      25.974   3.325  50.704  1.00  0.00     0.210 C 
HETATM    6  N4  UNL     1      25.145   2.851  51.757  1.00  0.00    -0.350 N 
HETATM    7  C10 UNL     1      24.238   3.453  52.684  1.00  0.00     0.133 C 
HETATM    8  C11 UNL     1      23.454   2.430  53.467  1.00  0.00     0.055 C 
HETATM    9  C12 UNL     1      22.626   1.512  52.680  1.00  0.00    -0.072 C 
HETATM   10  C13 UNL     1      22.063   1.485  51.447  1.00  0.00    -0.024 C 
HETATM   11  C14 UNL     1      21.279   0.245  51.129  1.00  0.00     0.038 C 
HETATM   12  C15 UNL     1      20.207   0.091  52.157  1.00  0.00     0.005 C 
HETATM   13  C16 UNL     1      20.772   0.224  53.543  1.00  0.00     0.005 C 
HETATM   14  C17 UNL     1      22.306   0.274  53.449  1.00  0.00     0.034 C 
ENDROOT
BRANCH   6  15
HETATM   15  C4  UNL     1      25.546   1.507  51.620  1.00  0.00     0.106 C 
HETATM   16  C5  UNL     1      26.474   0.857  52.303  1.00  0.00     0.013 A 
HETATM   17  C6  UNL     1      26.766  -0.537  52.033  1.00  0.00     0.016 A 
HETATM   18  C9  UNL     1      27.227   1.525  53.347  1.00  0.00     0.078 A 
HETATM   19  C7  UNL     1      27.627  -1.346  52.588  1.00  0.00     0.009 A 
HETATM   20  P1  UNL     1      28.678  -0.690  53.933  1.00  0.00    -0.080 P 
HETATM   21  C8  UNL     1      28.177   1.063  54.132  1.00  0.00     0.045 A 
HETATM   22  H9  UNL     1      30.084  -0.847  53.690  1.00  0.00     0.066 HD
BRANCH  18  23
HETATM   23  O1  UNL     1      27.035   2.854  53.693  1.00  0.00    -0.360 OA
HETATM   24  H11 UNL     1      27.310   3.146  54.621  1.00  0.00     0.217 HD
ENDBRANCH  18  23
ENDBRANCH   6  15
BRANCH   1  25
HETATM   25  N1  UNL     1      21.389   3.687  50.897  1.00  0.00     0.107 N 
HETATM   26  H1  UNL     1      21.063   3.470  51.847  1.00  0.00     0.316 HD
HETATM   27  H2  UNL     1      22.072   4.490  50.900  1.00  0.00     0.316 HD
ENDBRANCH   1  25
TORSDOF 3
ENDMDL
MODEL 3
REMARK VINA RESULT:      -7.4      2.887      5.269
REMARK  3 active torsions:
REMARK  status: ('A' for Active; 'I' for Inactive)
REMARK    1  A    between atoms: N1_1  and  C1_2 
REMARK    2  A    between atoms: N4_7  and  C4_8 
REMARK    3  A    between atoms: C9_14  and  O1_15 
ROOT
HETATM    1  C1  UNL     1      26.784   1.976  51.637  1.00  0.00     0.370 C 
HETATM    2  N2  UNL     1      25.818   1.143  52.201  1.00  0.00    -0.243 NA
HETATM    3  C2  UNL     1      25.684  -0.046  52.504  1.00  0.00     0.230 C 
HETATM    4  N3  UNL     1      24.418  -0.335  53.075  1.00  0.00    -0.237 NA
HETATM    5  C3  UNL     1      23.433   0.495  53.125  1.00  0.00     0.210 C 
HETATM    6  N4  UNL     1      23.574   1.801  52.583  1.00  0.00    -0.350 N 
HETATM    7  C10 UNL     1      24.041   3.059  53.076  1.00  0.00     0.133 C 
HETATM    8  C11 UNL     1      24.165   4.092  51.984  1.00  0.00     0.055 C 
HETATM    9  C12 UNL     1      25.077   3.763  50.885  1.00  0.00    -0.072 C 
HETATM   10  C13 UNL     1      26.132   2.937  50.679  1.00  0.00    -0.024 C 
HETATM   11  C14 UNL     1      26.728   2.993  49.302  1.00  0.00     0.038 C 
HETATM   12  C15 UNL     1      27.150   4.398  49.030  1.00  0.00     0.005 C 
HETATM   13  C16 UNL     1      26.042   5.361  49.350  1.00  0.00     0.005 C 
HETATM   14  C17 UNL     1      24.767   4.561  49.663  1.00  0.00     0.034 C 
ENDROOT
BRANCH   6  15
HETATM   15  C4  UNL     1      23.040   1.459  51.324  1.00  0.00     0.106 C 
HETATM   16  C5  UNL     1      21.816   1.670  50.870  1.00  0.00     0.013 A 
HETATM   17  C6  UNL     1      21.426   1.250  49.538  1.00  0.00     0.016 A 
HETATM   18  C9  UNL     1      20.826   2.333  51.697  1.00  0.00     0.078 A 
HETATM   19  C7  UNL     1      20.287   1.367  48.912  1.00  0.00     0.009 A 
HETATM   20  P1  UNL     1      18.903   2.178  49.790  1.00  0.00    -0.080 P 
HETATM   21  C8  UNL     1      19.571   2.635  51.436  1.00  0.00     0.045 A 
HETATM   22  H9  UNL     1      17.721   1.369  49.869  1.00  0.00     0.066 HD
BRANCH  18  23
HETATM   23  O1  UNL     1      21.083   2.777  52.985  1.00  0.00    -0.360 OA
HETATM   24  H11 UNL     1      21.899   3.357  53.131  1.00  0.00     0.217 HD
ENDBRANCH  18  23
ENDBRANCH   6  15
BRANCH   1  25
HETATM   25  N1  UNL     1      27.381   2.821  52.687  1.00  0.00     0.107 N 
HETATM   26  H1  UNL     1      27.815   3.645  52.250  1.00  0.00     0.316 HD
HETATM   27  H2  UNL     1      26.593   3.099  53.330  1.00  0.00     0.316 HD
ENDBRANCH   1  25
TORSDOF 3
ENDMDL
MODEL 4
REMARK VINA RESULT:      -7.0      7.267     10.107
REMARK  3 active torsions:
REMARK  status: ('A' for Active; 'I' for Inactive)
REMARK    1  A    between atoms: N1_1  and  C1_2 
REMARK    2  A    between atoms: N4_7  and  C4_8 
REMARK    3  A    between atoms: C9_14  and  O1_15 
ROOT
HETATM    1  C1  UNL     1      29.689   9.321  48.297  1.00  0.00     0.370 C 
HETATM    2  N2  UNL     1      31.017   9.566  47.946  1.00  0.00    -0.243 NA
HETATM    3  C2  UNL     1      31.679  10.437  47.374  1.00  0.00     0.230 C 
HETATM    4  N3  UNL     1      33.062  10.129  47.306  1.00  0.00    -0.237 NA
HETATM    5  C3  UNL     1      33.575   8.996  47.641  1.00  0.00     0.210 C 
HETATM    6  N4  UNL     1      32.740   7.948  48.115  1.00  0.00    -0.350 N 
HETATM    7  C10 UNL     1      32.229   7.556  49.391  1.00  0.00     0.133 C 
HETATM    8  C11 UNL     1      31.201   6.459  49.285  1.00  0.00     0.055 C 
HETATM    9  C12 UNL     1      30.011   6.766  48.488  1.00  0.00    -0.072 C 
HETATM   10  C13 UNL     1      29.357   7.873  48.058  1.00  0.00    -0.024 C 
HETATM   11  C14 UNL     1      28.133   7.612  47.229  1.00  0.00     0.038 C 
HETATM   12  C15 UNL     1      27.194   6.773  48.030  1.00  0.00     0.005 C 
HETATM   13  C16 UNL     1      27.905   5.587  48.618  1.00  0.00     0.005 C 
HETATM   14  C17 UNL     1      29.325   5.521  48.032  1.00  0.00     0.034 C 
ENDROOT
BRANCH   6  15
HETATM   15  C4  UNL     1      32.586   7.347  46.850  1.00  0.00     0.106 C 
HETATM   16  C5  UNL     1      33.218   6.292  46.363  1.00  0.00     0.013 A 
HETATM   17  C6  UNL     1      32.937   5.799  45.028  1.00  0.00     0.016 A 
HETATM   18  C9  UNL     1      34.214   5.596  47.155  1.00  0.00     0.078 A 
HETATM   19  C7  UNL     1      33.442   4.787  44.375  1.00  0.00     0.009 A 
HETATM   20  P1  UNL     1      34.721   3.779  45.207  1.00  0.00    -0.080 P 
HETATM   21  C8  UNL     1      34.944   4.541  46.859  1.00  0.00     0.045 A 
HETATM   22  H9  UNL     1      35.946   3.680  44.465  1.00  0.00     0.066 HD
BRANCH  18  23
HETATM   23  O1  UNL     1      34.565   5.977  48.442  1.00  0.00    -0.360 OA
HETATM   24  H11 UNL     1      34.934   6.909  48.575  1.00  0.00     0.217 HD
ENDBRANCH  18  23
ENDBRANCH   6  15
BRANCH   1  25
HETATM   25  N1  UNL     1      29.516   9.525  49.746  1.00  0.00     0.107 N 
HETATM   26  H1  UNL     1      28.745  10.186  49.903  1.00  0.00     0.316 HD
HETATM   27  H2  UNL     1      29.299   8.578  50.156  1.00  0.00     0.316 HD
ENDBRANCH   1  25
TORSDOF 3
ENDMDL
MODEL 5
REMARK VINA RESULT:      -6.9      8.833     10.792
REMARK  3 active torsions:
REMARK  status: ('A' for Active; 'I' for Inactive)
REMARK    1  A    between atoms: N1_1  and  C1_2 
REMARK    2  A    between atoms: N4_7  and  C4_8 
REMARK    3  A    between atoms: C9_14  and  O1_15 
ROOT
HETATM    1  C1  UNL     1      31.419   5.660  48.724  1.00  0.00     0.370 C 
HETATM    2  N2  UNL     1      31.252   6.973  48.283  1.00  0.00    -0.243 NA
HETATM    3  C2  UNL     1      30.332   7.750  48.016  1.00  0.00     0.230 C 
HETATM    4  N3  UNL     1      30.786   9.026  47.592  1.00  0.00    -0.237 NA
HETATM    5  C3  UNL     1      32.016   9.315  47.337  1.00  0.00     0.210 C 
HETATM    6  N4  UNL     1      33.024   8.322  47.473  1.00  0.00    -0.350 N 
HETATM    7  C10 UNL     1      33.850   7.855  48.542  1.00  0.00     0.133 C 
HETATM    8  C11 UNL     1      34.619   6.611  48.171  1.00  0.00     0.055 C 
HETATM    9  C12 UNL     1      33.816   5.448  47.787  1.00  0.00    -0.072 C 
HETATM   10  C13 UNL     1      32.547   5.008  47.971  1.00  0.00    -0.024 C 
HETATM   11  C14 UNL     1      32.229   3.687  47.330  1.00  0.00     0.038 C 
HETATM   12  C15 UNL     1      33.179   2.667  47.863  1.00  0.00     0.005 C 
HETATM   13  C16 UNL     1      34.596   3.160  47.780  1.00  0.00     0.005 C 
HETATM   14  C17 UNL     1      34.616   4.476  46.985  1.00  0.00     0.034 C 
ENDROOT
BRANCH   6  15
HETATM   15  C4  UNL     1      32.981   7.932  46.120  1.00  0.00     0.106 C 
HETATM   16  C5  UNL     1      33.798   8.282  45.141  1.00  0.00     0.013 A 
HETATM   17  C6  UNL     1      33.610   7.785  43.791  1.00  0.00     0.016 A 
HETATM   18  C9  UNL     1      34.912   9.175  45.393  1.00  0.00     0.078 A 
HETATM   19  C7  UNL     1      34.297   8.005  42.704  1.00  0.00     0.009 A 
HETATM   20  P1  UNL     1      35.748   9.112  42.814  1.00  0.00    -0.080 P 
HETATM   21  C8  UNL     1      35.829   9.637  44.568  1.00  0.00     0.045 A 
HETATM   22  H9  UNL     1      35.698  10.217  41.899  1.00  0.00     0.066 HD
BRANCH  18  23
HETATM   23  O1  UNL     1      35.191   9.712  46.641  1.00  0.00    -0.360 OA
HETATM   24  H11 UNL     1      36.125   9.594  47.009  1.00  0.00     0.217 HD
ENDBRANCH  18  23
ENDBRANCH   6  15
BRANCH   1  25
HETATM   25  N1  UNL     1      31.845   5.663  50.135  1.00  0.00     0.107 N 
HETATM   26  H1  UNL     1      31.029   5.845  50.732  1.00  0.00     0.316 HD
HETATM   27  H2  UNL     1      32.254   4.710  50.325  1.00  0.00     0.316 HD
ENDBRANCH   1  25
TORSDOF 3
ENDMDL
MODEL 6
REMARK VINA RESULT:      -6.5      2.904      4.983
REMARK  3 active torsions:
REMARK  status: ('A' for Active; 'I' for Inactive)
REMARK    1  A    between atoms: N1_1  and  C1_2 
REMARK    2  A    between atoms: N4_7  and  C4_8 
REMARK    3  A    between atoms: C9_14  and  O1_15 
ROOT
HETATM    1  C1  UNL     1      25.325   2.177  51.702  1.00  0.00     0.370 C 
HETATM    2  N2  UNL     1      24.055   1.674  51.983  1.00  0.00    -0.243 NA
HETATM    3  C2  UNL     1      23.526   0.590  52.248  1.00  0.00     0.230 C 
HETATM    4  N3  UNL     1      22.125   0.690  52.447  1.00  0.00    -0.237 NA
HETATM    5  C3  UNL     1      21.428   1.748  52.214  1.00  0.00     0.210 C 
HETATM    6  N4  UNL     1      22.058   2.922  51.721  1.00  0.00    -0.350 N 
HETATM    7  C10 UNL     1      22.703   4.053  52.313  1.00  0.00     0.133 C 
HETATM    8  C11 UNL     1      23.389   4.922  51.289  1.00  0.00     0.055 C 
HETATM    9  C12 UNL     1      24.433   4.276  50.490  1.00  0.00    -0.072 C 
HETATM   10  C13 UNL     1      25.238   3.190  50.592  1.00  0.00    -0.024 C 
HETATM   11  C14 UNL     1      26.169   2.972  49.434  1.00  0.00     0.038 C 
HETATM   12  C15 UNL     1      27.015   4.192  49.277  1.00  0.00     0.005 C 
HETATM   13  C16 UNL     1      26.168   5.433  49.268  1.00  0.00     0.005 C 
HETATM   14  C17 UNL     1      24.688   5.021  49.222  1.00  0.00     0.034 C 
ENDROOT
BRANCH   6  15
HETATM   15  C4  UNL     1      21.804   2.626  50.367  1.00  0.00     0.106 C 
HETATM   16  C5  UNL     1      20.808   3.054  49.609  1.00  0.00     0.013 A 
HETATM   17  C6  UNL     1      20.693   2.649  48.222  1.00  0.00     0.016 A 
HETATM   18  C9  UNL     1      19.801   3.947  50.148  1.00  0.00     0.078 A 
HETATM   19  C7  UNL     1      19.802   2.958  47.319  1.00  0.00     0.009 A 
HETATM   20  P1  UNL     1      18.441   4.079  47.805  1.00  0.00    -0.080 P 
HETATM   21  C8  UNL     1      18.747   4.481  49.568  1.00  0.00     0.045 A 
HETATM   22  H9  UNL     1      17.135   3.530  47.573  1.00  0.00     0.066 HD
BRANCH  18  23
HETATM   23  O1  UNL     1      19.808   4.401  51.458  1.00  0.00    -0.360 OA
HETATM   24  H11 UNL     1      20.269   3.830  52.154  1.00  0.00     0.217 HD
ENDBRANCH  18  23
ENDBRANCH   6  15
BRANCH   1  25
HETATM   25  N1  UNL     1      25.830   2.923  52.869  1.00  0.00     0.107 N 
HETATM   26  H1  UNL     1      25.666   2.368  53.719  1.00  0.00     0.316 HD
HETATM   27  H2  UNL     1      26.860   3.074  52.703  1.00  0.00     0.316 HD
ENDBRANCH   1  25
TORSDOF 3
ENDMDL
MODEL 7
REMARK VINA RESULT:      -6.4      8.389     11.052
REMARK  3 active torsions:
REMARK  status: ('A' for Active; 'I' for Inactive)
REMARK    1  A    between atoms: N1_1  and  C1_2 
REMARK    2  A    between atoms: N4_7  and  C4_8 
REMARK    3  A    between atoms: C9_14  and  O1_15 
ROOT
HETATM    1  C1  UNL     1      33.937   4.377  44.972  1.00  0.00     0.370 C 
HETATM    2  N2  UNL     1      33.321   4.219  46.214  1.00  0.00    -0.243 NA
HETATM    3  C2  UNL     1      32.772   3.328  46.869  1.00  0.00     0.230 C 
HETATM    4  N3  UNL     1      32.312   3.773  48.135  1.00  0.00    -0.237 NA
HETATM    5  C3  UNL     1      32.298   5.004  48.516  1.00  0.00     0.210 C 
HETATM    6  N4  UNL     1      32.764   6.024  47.644  1.00  0.00    -0.350 N 
HETATM    7  C10 UNL     1      34.034   6.620  47.365  1.00  0.00     0.133 C 
HETATM    8  C11 UNL     1      33.985   7.541  46.172  1.00  0.00     0.055 C 
HETATM    9  C12 UNL     1      33.575   6.933  44.904  1.00  0.00    -0.072 C 
HETATM   10  C13 UNL     1      33.528   5.691  44.363  1.00  0.00    -0.024 C 
HETATM   11  C14 UNL     1      32.991   5.623  42.962  1.00  0.00     0.038 C 
HETATM   12  C15 UNL     1      33.833   6.500  42.095  1.00  0.00     0.005 C 
HETATM   13  C16 UNL     1      34.002   7.859  42.713  1.00  0.00     0.005 C 
HETATM   14  C17 UNL     1      33.083   7.962  43.941  1.00  0.00     0.034 C 
ENDROOT
BRANCH   6  15
HETATM   15  C4  UNL     1      31.488   6.317  47.122  1.00  0.00     0.106 C 
HETATM   16  C5  UNL     1      30.629   7.237  47.529  1.00  0.00     0.013 A 
HETATM   17  C6  UNL     1      29.346   7.408  46.875  1.00  0.00     0.016 A 
HETATM   18  C9  UNL     1      30.950   8.106  48.645  1.00  0.00     0.078 A 
HETATM   19  C7  UNL     1      28.376   8.246  47.118  1.00  0.00     0.009 A 
HETATM   20  P1  UNL     1      28.588   9.430  48.494  1.00  0.00    -0.080 P 
HETATM   21  C8  UNL     1      30.244   9.071  49.195  1.00  0.00     0.045 A 
HETATM   22  H9  UNL     1      27.539   9.368  49.473  1.00  0.00     0.066 HD
BRANCH  18  23
HETATM   23  O1  UNL     1      32.145   8.035  49.345  1.00  0.00    -0.360 OA
HETATM   24  H11 UNL     1      32.116   7.687  50.295  1.00  0.00     0.217 HD
ENDBRANCH  18  23
ENDBRANCH   6  15
BRANCH   1  25
HETATM   25  N1  UNL     1      35.396   4.471  45.154  1.00  0.00     0.107 N 
HETATM   26  H1  UNL     1      35.633   5.411  45.496  1.00  0.00     0.316 HD
HETATM   27  H2  UNL     1      35.658   3.730  45.857  1.00  0.00     0.316 HD
ENDBRANCH   1  25
TORSDOF 3
ENDMDL
MODEL 8
REMARK VINA RESULT:      -6.4      7.530     10.302
REMARK  3 active torsions:
REMARK  status: ('A' for Active; 'I' for Inactive)
REMARK    1  A    between atoms: N1_1  and  C1_2 
REMARK    2  A    between atoms: N4_7  and  C4_8 
REMARK    3  A    between atoms: C9_14  and  O1_15 
ROOT
HETATM    1  C1  UNL     1      33.259   6.232  46.158  1.00  0.00     0.370 C 
HETATM    2  N2  UNL     1      32.672   5.889  47.376  1.00  0.00    -0.243 NA
HETATM    3  C2  UNL     1      32.454   4.875  48.045  1.00  0.00     0.230 C 
HETATM    4  N3  UNL     1      31.785   5.149  49.267  1.00  0.00    -0.237 NA
HETATM    5  C3  UNL     1      31.293   6.295  49.588  1.00  0.00     0.210 C 
HETATM    6  N4  UNL     1      31.399   7.392  48.692  1.00  0.00    -0.350 N 
HETATM    7  C10 UNL     1      32.372   8.411  48.445  1.00  0.00     0.133 C 
HETATM    8  C11 UNL     1      32.058   9.216  47.209  1.00  0.00     0.055 C 
HETATM    9  C12 UNL     1      31.980   8.466  45.953  1.00  0.00    -0.072 C 
HETATM   10  C13 UNL     1      32.430   7.282  45.469  1.00  0.00    -0.024 C 
HETATM   11  C14 UNL     1      32.043   6.982  44.050  1.00  0.00     0.038 C 
HETATM   12  C15 UNL     1      32.550   8.087  43.183  1.00  0.00     0.005 C 
HETATM   13  C16 UNL     1      32.166   9.427  43.743  1.00  0.00     0.005 C 
HETATM   14  C17 UNL     1      31.201   9.212  44.921  1.00  0.00     0.034 C 
ENDROOT
BRANCH   6  15
HETATM   15  C4  UNL     1      30.140   7.174  48.097  1.00  0.00     0.106 C 
HETATM   16  C5  UNL     1      29.000   7.798  48.344  1.00  0.00     0.013 A 
HETATM   17  C6  UNL     1      27.784   7.447  47.636  1.00  0.00     0.016 A 
HETATM   18  C9  UNL     1      28.936   8.858  49.332  1.00  0.00     0.078 A 
HETATM   19  C7  UNL     1      26.577   7.937  47.729  1.00  0.00     0.009 A 
HETATM   20  P1  UNL     1      26.289   9.288  48.927  1.00  0.00    -0.080 P 
HETATM   21  C8  UNL     1      27.915   9.593  49.719  1.00  0.00     0.045 A 
HETATM   22  H9  UNL     1      25.249   9.003  49.875  1.00  0.00     0.066 HD
BRANCH  18  23
HETATM   23  O1  UNL     1      30.033   9.278  50.069  1.00  0.00    -0.360 OA
HETATM   24  H11 UNL     1      30.430   8.631  50.737  1.00  0.00     0.217 HD
ENDBRANCH  18  23
ENDBRANCH   6  15
BRANCH   1  25
HETATM   25  N1  UNL     1      34.566   6.869  46.403  1.00  0.00     0.107 N 
HETATM   26  H1  UNL     1      35.151   6.233  46.960  1.00  0.00     0.316 HD
HETATM   27  H2  UNL     1      34.991   7.050  45.456  1.00  0.00     0.316 HD
ENDBRANCH   1  25
TORSDOF 3
ENDMDL
MODEL 9
REMARK VINA RESULT:      -6.1      7.190     10.022
REMARK  3 active torsions:
REMARK  status: ('A' for Active; 'I' for Inactive)
REMARK    1  A    between atoms: N1_1  and  C1_2 
REMARK    2  A    between atoms: N4_7  and  C4_8 
REMARK    3  A    between atoms: C9_14  and  O1_15 
ROOT
HETATM    1  C1  UNL     1      33.289   7.184  47.120  1.00  0.00     0.370 C 
HETATM    2  N2  UNL     1      32.214   6.349  47.426  1.00  0.00    -0.243 NA
HETATM    3  C2  UNL     1      31.852   5.189  47.211  1.00  0.00     0.230 C 
HETATM    4  N3  UNL     1      30.602   4.877  47.805  1.00  0.00    -0.237 NA
HETATM    5  C3  UNL     1      29.825   5.739  48.364  1.00  0.00     0.210 C 
HETATM    6  N4  UNL     1      30.199   7.108  48.415  1.00  0.00    -0.350 N 
HETATM    7  C10 UNL     1      30.961   7.919  49.313  1.00  0.00     0.133 C 
HETATM    8  C11 UNL     1      31.218   9.300  48.761  1.00  0.00     0.055 C 
HETATM    9  C12 UNL     1      31.950   9.361  47.494  1.00  0.00    -0.072 C 
HETATM   10  C13 UNL     1      32.785   8.562  46.785  1.00  0.00    -0.024 C 
HETATM   11  C14 UNL     1      33.270   9.137  45.485  1.00  0.00     0.038 C 
HETATM   12  C15 UNL     1      33.960  10.429  45.773  1.00  0.00     0.005 C 
HETATM   13  C16 UNL     1      33.112  11.305  46.650  1.00  0.00     0.005 C 
HETATM   14  C17 UNL     1      31.724  10.662  46.798  1.00  0.00     0.034 C 
ENDROOT
BRANCH   6  15
HETATM   15  C4  UNL     1      29.508   7.458  47.238  1.00  0.00     0.106 C 
HETATM   16  C5  UNL     1      28.285   7.947  47.122  1.00  0.00     0.013 A 
HETATM   17  C6  UNL     1      27.719   8.254  45.823  1.00  0.00     0.016 A 
HETATM   18  C9  UNL     1      27.472   8.192  48.299  1.00  0.00     0.078 A 
HETATM   19  C7  UNL     1      26.551   8.739  45.501  1.00  0.00     0.009 A 
HETATM   20  P1  UNL     1      25.375   9.116  46.849  1.00  0.00    -0.080 P 
HETATM   21  C8  UNL     1      26.249   8.669  48.398  1.00  0.00     0.045 A 
HETATM   22  H9  UNL     1      24.109   8.453  46.708  1.00  0.00     0.066 HD
BRANCH  18  23
HETATM   23  O1  UNL     1      27.907   7.936  49.590  1.00  0.00    -0.360 OA
HETATM   24  H11 UNL     1      28.903   7.864  49.749  1.00  0.00     0.217 HD
ENDBRANCH  18  23
ENDBRANCH   6  15
BRANCH   1  25
HETATM   25  N1  UNL     1      34.132   7.360  48.316  1.00  0.00     0.107 N 
HETATM   26  H1  UNL     1      34.823   6.600  48.356  1.00  0.00     0.316 HD
HETATM   27  H2  UNL     1      34.602   8.299  48.214  1.00  0.00     0.316 HD
ENDBRANCH   1  25
TORSDOF 3
ENDMDL
