MODEL 1
REMARK VINA RESULT:      -7.0      0.000      0.000
REMARK  8 active torsions:
REMARK  status: ('A' for Active; 'I' for Inactive)
REMARK    1  A    between atoms: O1_2  and  C2_3 
REMARK    2  A    between atoms: C2_3  and  C3_4 
REMARK    3  A    between atoms: C3_4  and  O2_5 
REMARK    4  A    between atoms: O2_5  and  C4_6 
REMARK    5  A    between atoms: C9_11  and  O3_12 
REMARK    6  A    between atoms: O3_12  and  C10_13 
REMARK    7  A    between atoms: C10_13  and  C11_14 
REMARK    8  A    between atoms: C11_14  and  O4_15 
ROOT
HETATM    1  C4  UNL     1      27.511   5.738  48.513  1.00  0.00     0.102 A 
HETATM    2  C5  UNL     1      27.308   4.462  48.963  1.00  0.00     0.049 A 
HETATM    3  C6  UNL     1      26.219   4.049  49.679  1.00  0.00    -0.023 A 
HETATM    4  C7  UNL     1      25.206   4.914  50.019  1.00  0.00     0.067 A 
HETATM    5  C8  UNL     1      25.368   6.235  49.582  1.00  0.00     0.071 A 
HETATM    6  C9  UNL     1      26.492   6.639  48.848  1.00  0.00     0.104 A 
HETATM    7  N1  UNL     1      24.035   4.684  50.722  1.00  0.00    -0.242 NA
HETATM    8  C13 UNL     1      23.840   4.573  51.987  1.00  0.00     0.234 C 
HETATM    9  N2  UNL     1      22.447   4.338  52.296  1.00  0.00    -0.239 NA
HETATM   10  C14 UNL     1      21.961   3.331  51.644  1.00  0.00     0.093 C 
HETATM   11  C15 UNL     1      22.644   2.209  51.834  1.00  0.00    -0.031 C 
HETATM   12  C16 UNL     1      22.048   1.055  51.066  1.00  0.00     0.050 C 
HETATM   13  C17 UNL     1      23.827   2.075  52.666  1.00  0.00     0.009 C 
HETATM   14  C18 UNL     1      25.003   1.997  53.229  1.00  0.00     0.000 C 
HETATM   15  C19 UNL     1      26.334   2.163  52.668  1.00  0.00    -0.004 C 
HETATM   16  C20 UNL     1      26.747   2.433  51.442  1.00  0.00    -0.022 C 
HETATM   17  C21 UNL     1      26.023   2.670  50.163  1.00  0.00     0.068 C 
ENDROOT
BRANCH   1  18
HETATM   18  O2  UNL     1      28.508   6.312  47.801  1.00  0.00    -0.346 OA
BRANCH  18  19
HETATM   19  C3  UNL     1      29.833   6.413  48.201  1.00  0.00     0.201 C 
BRANCH  19  20
HETATM   20  C2  UNL     1      30.737   5.291  47.810  1.00  0.00     0.193 C 
BRANCH  20  21
HETATM   21  O1  UNL     1      31.662   4.962  48.795  1.00  0.00    -0.394 OA
HETATM   22  C1  UNL     1      31.849   5.972  49.699  1.00  0.00     0.201 C 
ENDBRANCH  20  21
ENDBRANCH  19  20
ENDBRANCH  18  19
ENDBRANCH   1  18
BRANCH   6  23
HETATM   23  O3  UNL     1      26.555   7.992  48.458  1.00  0.00    -0.346 OA
BRANCH  23  24
HETATM   24  C10 UNL     1      26.515   9.008  49.406  1.00  0.00     0.201 C 
BRANCH  24  25
HETATM   25  C11 UNL     1      27.880   9.366  49.954  1.00  0.00     0.193 C 
BRANCH  25  26
HETATM   26  O4  UNL     1      28.746   9.744  48.906  1.00  0.00    -0.394 OA
HETATM   27  C12 UNL     1      30.049   9.847  49.378  1.00  0.00     0.201 C 
ENDBRANCH  25  26
ENDBRANCH  24  25
ENDBRANCH  23  24
ENDBRANCH   6  23
TORSDOF 8
ENDMDL
MODEL 2
REMARK VINA RESULT:      -6.6      4.934      7.876
REMARK  8 active torsions:
REMARK  status: ('A' for Active; 'I' for Inactive)
REMARK    1  A    between atoms: O1_2  and  C2_3 
REMARK    2  A    between atoms: C2_3  and  C3_4 
REMARK    3  A    between atoms: C3_4  and  O2_5 
REMARK    4  A    between atoms: O2_5  and  C4_6 
REMARK    5  A    between atoms: C9_11  and  O3_12 
REMARK    6  A    between atoms: O3_12  and  C10_13 
REMARK    7  A    between atoms: C10_13  and  C11_14 
REMARK    8  A    between atoms: C11_14  and  O4_15 
ROOT
HETATM    1  C4  UNL     1      24.854   0.819  53.179  1.00  0.00     0.102 A 
HETATM    2  C5  UNL     1      25.126   2.080  52.725  1.00  0.00     0.049 A 
HETATM    3  C6  UNL     1      24.241   2.882  52.060  1.00  0.00    -0.023 A 
HETATM    4  C7  UNL     1      22.959   2.468  51.783  1.00  0.00     0.067 A 
HETATM    5  C8  UNL     1      22.631   1.181  52.226  1.00  0.00     0.071 A 
HETATM    6  C9  UNL     1      23.554   0.375  52.908  1.00  0.00     0.104 A 
HETATM    7  N1  UNL     1      21.928   3.130  51.137  1.00  0.00    -0.242 NA
HETATM    8  C13 UNL     1      21.725   3.316  49.882  1.00  0.00     0.234 C 
HETATM    9  N2  UNL     1      20.511   4.065  49.642  1.00  0.00    -0.239 NA
HETATM   10  C14 UNL     1      20.477   5.176  50.305  1.00  0.00     0.093 C 
HETATM   11  C15 UNL     1      21.524   5.957  50.067  1.00  0.00    -0.031 C 
HETATM   12  C16 UNL     1      21.450   7.244  50.850  1.00  0.00     0.050 C 
HETATM   13  C17 UNL     1      22.625   5.639  49.175  1.00  0.00     0.009 C 
HETATM   14  C18 UNL     1      23.711   5.270  48.552  1.00  0.00     0.000 C 
HETATM   15  C19 UNL     1      24.907   4.607  49.047  1.00  0.00    -0.004 C 
HETATM   16  C20 UNL     1      25.250   4.191  50.253  1.00  0.00    -0.022 C 
HETATM   17  C21 UNL     1      24.557   4.236  51.570  1.00  0.00     0.068 C 
ENDROOT
BRANCH   1  18
HETATM   18  O2  UNL     1      25.595  -0.095  53.847  1.00  0.00    -0.346 OA
BRANCH  18  19
HETATM   19  C3  UNL     1      26.459   0.176  54.897  1.00  0.00     0.201 C 
BRANCH  19  20
HETATM   20  C2  UNL     1      27.876   0.477  54.538  1.00  0.00     0.193 C 
BRANCH  20  21
HETATM   21  O1  UNL     1      28.722  -0.619  54.672  1.00  0.00    -0.394 OA
HETATM   22  C1  UNL     1      29.177  -1.082  53.468  1.00  0.00     0.201 C 
ENDBRANCH  20  21
ENDBRANCH  19  20
ENDBRANCH  18  19
ENDBRANCH   1  18
BRANCH   6  23
HETATM   23  O3  UNL     1      23.119  -0.904  53.310  1.00  0.00    -0.346 OA
BRANCH  23  24
HETATM   24  C10 UNL     1      22.395  -1.073  54.485  1.00  0.00     0.201 C 
BRANCH  24  25
HETATM   25  C11 UNL     1      20.948  -1.445  54.245  1.00  0.00     0.193 C 
BRANCH  25  26
HETATM   26  O4  UNL     1      20.161  -0.285  54.095  1.00  0.00    -0.394 OA
HETATM   27  C12 UNL     1      19.331  -0.411  52.988  1.00  0.00     0.201 C 
ENDBRANCH  25  26
ENDBRANCH  24  25
ENDBRANCH  23  24
ENDBRANCH   6  23
TORSDOF 8
ENDMDL
MODEL 3
REMARK VINA RESULT:      -6.5      1.198      1.971
REMARK  8 active torsions:
REMARK  status: ('A' for Active; 'I' for Inactive)
REMARK    1  A    between atoms: O1_2  and  C2_3 
REMARK    2  A    between atoms: C2_3  and  C3_4 
REMARK    3  A    between atoms: C3_4  and  O2_5 
REMARK    4  A    between atoms: O2_5  and  C4_6 
REMARK    5  A    between atoms: C9_11  and  O3_12 
REMARK    6  A    between atoms: O3_12  and  C10_13 
REMARK    7  A    between atoms: C10_13  and  C11_14 
REMARK    8  A    between atoms: C11_14  and  O4_15 
ROOT
HETATM    1  C4  UNL     1      27.554   5.712  48.477  1.00  0.00     0.102 A 
HETATM    2  C5  UNL     1      27.342   4.441  48.937  1.00  0.00     0.049 A 
HETATM    3  C6  UNL     1      26.246   4.038  49.647  1.00  0.00    -0.023 A 
HETATM    4  C7  UNL     1      25.232   4.909  49.968  1.00  0.00     0.067 A 
HETATM    5  C8  UNL     1      25.402   6.225  49.520  1.00  0.00     0.071 A 
HETATM    6  C9  UNL     1      26.534   6.618  48.792  1.00  0.00     0.104 A 
HETATM    7  N1  UNL     1      24.054   4.689  50.662  1.00  0.00    -0.242 NA
HETATM    8  C13 UNL     1      23.846   4.592  51.926  1.00  0.00     0.234 C 
HETATM    9  N2  UNL     1      22.450   4.364  52.224  1.00  0.00    -0.239 NA
HETATM   10  C14 UNL     1      21.967   3.352  51.578  1.00  0.00     0.093 C 
HETATM   11  C15 UNL     1      22.645   2.229  51.786  1.00  0.00    -0.031 C 
HETATM   12  C16 UNL     1      22.054   1.069  51.024  1.00  0.00     0.050 C 
HETATM   13  C17 UNL     1      23.820   2.101  52.630  1.00  0.00     0.009 C 
HETATM   14  C18 UNL     1      24.990   2.026  53.205  1.00  0.00     0.000 C 
HETATM   15  C19 UNL     1      26.327   2.182  52.656  1.00  0.00    -0.004 C 
HETATM   16  C20 UNL     1      26.753   2.439  51.431  1.00  0.00    -0.022 C 
HETATM   17  C21 UNL     1      26.041   2.664  50.143  1.00  0.00     0.068 C 
ENDROOT
BRANCH   1  18
HETATM   18  O2  UNL     1      28.560   6.275  47.768  1.00  0.00    -0.346 OA
BRANCH  18  19
HETATM   19  C3  UNL     1      29.872   6.410  48.195  1.00  0.00     0.201 C 
BRANCH  19  20
HETATM   20  C2  UNL     1      30.819   5.326  47.799  1.00  0.00     0.193 C 
BRANCH  20  21
HETATM   21  O1  UNL     1      31.670   4.936  48.829  1.00  0.00    -0.394 OA
HETATM   22  C1  UNL     1      32.385   5.982  49.345  1.00  0.00     0.201 C 
ENDBRANCH  20  21
ENDBRANCH  19  20
ENDBRANCH  18  19
ENDBRANCH   1  18
BRANCH   6  23
HETATM   23  O3  UNL     1      26.604   7.967  48.389  1.00  0.00    -0.346 OA
BRANCH  23  24
HETATM   24  C10 UNL     1      25.870   8.424  47.301  1.00  0.00     0.201 C 
BRANCH  24  25
HETATM   25  C11 UNL     1      24.758   9.375  47.689  1.00  0.00     0.193 C 
BRANCH  25  26
HETATM   26  O4  UNL     1      23.563   9.027  47.025  1.00  0.00    -0.394 OA
HETATM   27  C12 UNL     1      23.679   7.761  46.464  1.00  0.00     0.201 C 
ENDBRANCH  25  26
ENDBRANCH  24  25
ENDBRANCH  23  24
ENDBRANCH   6  23
TORSDOF 8
ENDMDL
MODEL 4
REMARK VINA RESULT:      -6.3      6.755     10.355
REMARK  8 active torsions:
REMARK  status: ('A' for Active; 'I' for Inactive)
REMARK    1  A    between atoms: O1_2  and  C2_3 
REMARK    2  A    between atoms: C2_3  and  C3_4 
REMARK    3  A    between atoms: C3_4  and  O2_5 
REMARK    4  A    between atoms: O2_5  and  C4_6 
REMARK    5  A    between atoms: C9_11  and  O3_12 
REMARK    6  A    between atoms: O3_12  and  C10_13 
REMARK    7  A    between atoms: C10_13  and  C11_14 
REMARK    8  A    between atoms: C11_14  and  O4_15 
ROOT
HETATM    1  C4  UNL     1      19.378   1.111  50.588  1.00  0.00     0.102 A 
HETATM    2  C5  UNL     1      20.627   1.642  50.417  1.00  0.00     0.049 A 
HETATM    3  C6  UNL     1      21.744   1.255  51.105  1.00  0.00    -0.023 A 
HETATM    4  C7  UNL     1      21.698   0.266  52.059  1.00  0.00     0.067 A 
HETATM    5  C8  UNL     1      20.439  -0.310  52.273  1.00  0.00     0.071 A 
HETATM    6  C9  UNL     1      19.307   0.101  51.556  1.00  0.00     0.104 A 
HETATM    7  N1  UNL     1      22.710  -0.265  52.843  1.00  0.00    -0.242 NA
HETATM    8  C13 UNL     1      23.257   0.200  53.908  1.00  0.00     0.234 C 
HETATM    9  N2  UNL     1      24.282  -0.686  54.413  1.00  0.00    -0.239 NA
HETATM   10  C14 UNL     1      25.161  -0.989  53.513  1.00  0.00     0.093 C 
HETATM   11  C15 UNL     1      25.737   0.076  52.968  1.00  0.00    -0.031 C 
HETATM   12  C16 UNL     1      26.759  -0.311  51.929  1.00  0.00     0.050 C 
HETATM   13  C17 UNL     1      25.439   1.457  53.305  1.00  0.00     0.009 C 
HETATM   14  C18 UNL     1      25.025   2.688  53.442  1.00  0.00     0.000 C 
HETATM   15  C19 UNL     1      24.019   3.436  52.707  1.00  0.00    -0.004 C 
HETATM   16  C20 UNL     1      23.237   3.104  51.695  1.00  0.00    -0.022 C 
HETATM   17  C21 UNL     1      23.080   1.846  50.913  1.00  0.00     0.068 C 
ENDROOT
BRANCH   1  18
HETATM   18  O2  UNL     1      18.185   1.366  50.003  1.00  0.00    -0.346 OA
BRANCH  18  19
HETATM   19  C3  UNL     1      17.368   2.453  50.274  1.00  0.00     0.201 C 
BRANCH  19  20
HETATM   20  C2  UNL     1      17.949   3.531  51.128  1.00  0.00     0.193 C 
BRANCH  20  21
HETATM   21  O1  UNL     1      17.129   3.889  52.194  1.00  0.00    -0.394 OA
HETATM   22  C1  UNL     1      15.840   4.134  51.806  1.00  0.00     0.201 C 
ENDBRANCH  20  21
ENDBRANCH  19  20
ENDBRANCH  18  19
ENDBRANCH   1  18
BRANCH   6  23
HETATM   23  O3  UNL     1      18.089  -0.545  51.850  1.00  0.00    -0.346 OA
BRANCH  23  24
HETATM   24  C10 UNL     1      17.863  -1.104  53.102  1.00  0.00     0.201 C 
BRANCH  24  25
HETATM   25  C11 UNL     1      16.980  -2.332  53.057  1.00  0.00     0.193 C 
BRANCH  25  26
HETATM   26  O4  UNL     1      17.504  -3.344  53.887  1.00  0.00    -0.394 OA
HETATM   27  C12 UNL     1      16.838  -4.542  53.658  1.00  0.00     0.201 C 
ENDBRANCH  25  26
ENDBRANCH  24  25
ENDBRANCH  23  24
ENDBRANCH   6  23
TORSDOF 8
ENDMDL
MODEL 5
REMARK VINA RESULT:      -6.2      1.757      2.413
REMARK  8 active torsions:
REMARK  status: ('A' for Active; 'I' for Inactive)
REMARK    1  A    between atoms: O1_2  and  C2_3 
REMARK    2  A    between atoms: C2_3  and  C3_4 
REMARK    3  A    between atoms: C3_4  and  O2_5 
REMARK    4  A    between atoms: O2_5  and  C4_6 
REMARK    5  A    between atoms: C9_11  and  O3_12 
REMARK    6  A    between atoms: O3_12  and  C10_13 
REMARK    7  A    between atoms: C10_13  and  C11_14 
REMARK    8  A    between atoms: C11_14  and  O4_15 
ROOT
HETATM    1  C4  UNL     1      27.066   6.771  48.926  1.00  0.00     0.102 A 
HETATM    2  C5  UNL     1      26.913   5.412  48.877  1.00  0.00     0.049 A 
HETATM    3  C6  UNL     1      25.904   4.715  49.481  1.00  0.00    -0.023 A 
HETATM    4  C7  UNL     1      24.927   5.348  50.213  1.00  0.00     0.067 A 
HETATM    5  C8  UNL     1      25.039   6.741  50.294  1.00  0.00     0.071 A 
HETATM    6  C9  UNL     1      26.082   7.437  49.666  1.00  0.00     0.104 A 
HETATM    7  N1  UNL     1      23.833   4.822  50.881  1.00  0.00    -0.242 NA
HETATM    8  C13 UNL     1      23.766   4.238  52.023  1.00  0.00     0.234 C 
HETATM    9  N2  UNL     1      22.412   3.846  52.346  1.00  0.00    -0.239 NA
HETATM   10  C14 UNL     1      21.867   3.138  51.410  1.00  0.00     0.093 C 
HETATM   11  C15 UNL     1      22.570   2.055  51.099  1.00  0.00    -0.031 C 
HETATM   12  C16 UNL     1      21.905   1.250  50.011  1.00  0.00     0.050 C 
HETATM   13  C17 UNL     1      23.831   1.669  51.708  1.00  0.00     0.009 C 
HETATM   14  C18 UNL     1      25.058   1.434  52.090  1.00  0.00     0.000 C 
HETATM   15  C19 UNL     1      26.325   1.853  51.514  1.00  0.00    -0.004 C 
HETATM   16  C20 UNL     1      26.612   2.580  50.448  1.00  0.00    -0.022 C 
HETATM   17  C21 UNL     1      25.762   3.249  49.425  1.00  0.00     0.068 C 
ENDROOT
BRANCH   1  18
HETATM   18  O2  UNL     1      27.984   7.610  48.394  1.00  0.00    -0.346 OA
BRANCH  18  19
HETATM   19  C3  UNL     1      28.736   7.368  47.254  1.00  0.00     0.201 C 
BRANCH  19  20
HETATM   20  C2  UNL     1      28.514   8.287  46.099  1.00  0.00     0.193 C 
BRANCH  20  21
HETATM   21  O1  UNL     1      27.170   8.445  45.772  1.00  0.00    -0.394 OA
HETATM   22  C1  UNL     1      26.979   8.695  44.441  1.00  0.00     0.201 C 
ENDBRANCH  20  21
ENDBRANCH  19  20
ENDBRANCH  18  19
ENDBRANCH   1  18
BRANCH   6  23
HETATM   23  O3  UNL     1      26.100   8.839  49.812  1.00  0.00    -0.346 OA
BRANCH  23  24
HETATM   24  C10 UNL     1      25.442   9.658  48.901  1.00  0.00     0.201 C 
BRANCH  24  25
HETATM   25  C11 UNL     1      26.313  10.773  48.365  1.00  0.00     0.193 C 
BRANCH  25  26
HETATM   26  O4  UNL     1      27.414  10.990  49.219  1.00  0.00    -0.394 OA
HETATM   27  C12 UNL     1      28.510  11.425  48.484  1.00  0.00     0.201 C 
ENDBRANCH  25  26
ENDBRANCH  24  25
ENDBRANCH  23  24
ENDBRANCH   6  23
TORSDOF 8
ENDMDL
MODEL 6
REMARK VINA RESULT:      -6.2      3.769      5.752
REMARK  8 active torsions:
REMARK  status: ('A' for Active; 'I' for Inactive)
REMARK    1  A    between atoms: O1_2  and  C2_3 
REMARK    2  A    between atoms: C2_3  and  C3_4 
REMARK    3  A    between atoms: C3_4  and  O2_5 
REMARK    4  A    between atoms: O2_5  and  C4_6 
REMARK    5  A    between atoms: C9_11  and  O3_12 
REMARK    6  A    between atoms: O3_12  and  C10_13 
REMARK    7  A    between atoms: C10_13  and  C11_14 
REMARK    8  A    between atoms: C11_14  and  O4_15 
ROOT
HETATM    1  C4  UNL     1      30.265   5.604  48.224  1.00  0.00     0.102 A 
HETATM    2  C5  UNL     1      28.905   5.465  48.172  1.00  0.00     0.049 A 
HETATM    3  C6  UNL     1      28.008   6.491  48.285  1.00  0.00    -0.023 A 
HETATM    4  C7  UNL     1      28.417   7.791  48.467  1.00  0.00     0.067 A 
HETATM    5  C8  UNL     1      29.802   7.986  48.528  1.00  0.00     0.071 A 
HETATM    6  C9  UNL     1      30.705   6.920  48.409  1.00  0.00     0.104 A 
HETATM    7  N1  UNL     1      27.671   8.952  48.591  1.00  0.00    -0.242 NA
HETATM    8  C13 UNL     1      27.034   9.419  49.604  1.00  0.00     0.234 C 
HETATM    9  N2  UNL     1      26.386  10.675  49.298  1.00  0.00    -0.239 NA
HETATM   10  C14 UNL     1      25.632  10.597  48.249  1.00  0.00     0.093 C 
HETATM   11  C15 UNL     1      24.712   9.644  48.338  1.00  0.00    -0.031 C 
HETATM   12  C16 UNL     1      23.847   9.585  47.103  1.00  0.00     0.050 C 
HETATM   13  C17 UNL     1      24.537   8.747  49.467  1.00  0.00     0.009 C 
HETATM   14  C18 UNL     1      24.515   7.806  50.372  1.00  0.00     0.000 C 
HETATM   15  C19 UNL     1      25.185   6.516  50.413  1.00  0.00    -0.004 C 
HETATM   16  C20 UNL     1      25.999   5.917  49.561  1.00  0.00    -0.022 C 
HETATM   17  C21 UNL     1      26.545   6.320  48.235  1.00  0.00     0.068 C 
ENDROOT
BRANCH   1  18
HETATM   18  O2  UNL     1      31.281   4.716  48.128  1.00  0.00    -0.346 OA
BRANCH  18  19
HETATM   19  C3  UNL     1      31.735   4.129  46.956  1.00  0.00     0.201 C 
BRANCH  19  20
HETATM   20  C2  UNL     1      32.580   2.908  47.102  1.00  0.00     0.193 C 
BRANCH  20  21
HETATM   21  O1  UNL     1      33.493   2.993  48.149  1.00  0.00    -0.394 OA
HETATM   22  C1  UNL     1      34.752   3.319  47.723  1.00  0.00     0.201 C 
ENDBRANCH  20  21
ENDBRANCH  19  20
ENDBRANCH  18  19
ENDBRANCH   1  18
BRANCH   6  23
HETATM   23  O3  UNL     1      32.079   7.227  48.485  1.00  0.00    -0.346 OA
BRANCH  23  24
HETATM   24  C10 UNL     1      32.745   7.783  47.399  1.00  0.00     0.201 C 
BRANCH  24  25
HETATM   25  C11 UNL     1      34.180   7.317  47.277  1.00  0.00     0.193 C 
BRANCH  25  26
HETATM   26  O4  UNL     1      34.920   7.705  48.413  1.00  0.00    -0.394 OA
HETATM   27  C12 UNL     1      35.822   6.706  48.758  1.00  0.00     0.201 C 
ENDBRANCH  25  26
ENDBRANCH  24  25
ENDBRANCH  23  24
ENDBRANCH   6  23
TORSDOF 8
ENDMDL
MODEL 7
REMARK VINA RESULT:      -6.2      7.223     11.452
REMARK  8 active torsions:
REMARK  status: ('A' for Active; 'I' for Inactive)
REMARK    1  A    between atoms: O1_2  and  C2_3 
REMARK    2  A    between atoms: C2_3  and  C3_4 
REMARK    3  A    between atoms: C3_4  and  O2_5 
REMARK    4  A    between atoms: O2_5  and  C4_6 
REMARK    5  A    between atoms: C9_11  and  O3_12 
REMARK    6  A    between atoms: O3_12  and  C10_13 
REMARK    7  A    between atoms: C10_13  and  C11_14 
REMARK    8  A    between atoms: C11_14  and  O4_15 
ROOT
HETATM    1  C4  UNL     1      18.106  -0.929  52.652  1.00  0.00     0.102 A 
HETATM    2  C5  UNL     1      19.198  -0.628  53.418  1.00  0.00     0.049 A 
HETATM    3  C6  UNL     1      20.232   0.177  53.026  1.00  0.00    -0.023 A 
HETATM    4  C7  UNL     1      20.258   0.768  51.785  1.00  0.00     0.067 A 
HETATM    5  C8  UNL     1      19.161   0.490  50.961  1.00  0.00     0.071 A 
HETATM    6  C9  UNL     1      18.110  -0.338  51.382  1.00  0.00     0.104 A 
HETATM    7  N1  UNL     1      21.200   1.611  51.218  1.00  0.00    -0.242 NA
HETATM    8  C13 UNL     1      22.335   1.338  50.683  1.00  0.00     0.234 C 
HETATM    9  N2  UNL     1      23.003   2.529  50.207  1.00  0.00    -0.239 NA
HETATM   10  C14 UNL     1      23.108   3.436  51.125  1.00  0.00     0.093 C 
HETATM   11  C15 UNL     1      23.722   3.001  52.219  1.00  0.00    -0.031 C 
HETATM   12  C16 UNL     1      23.834   4.083  53.264  1.00  0.00     0.050 C 
HETATM   13  C17 UNL     1      24.230   1.656  52.419  1.00  0.00     0.009 C 
HETATM   14  C18 UNL     1      24.489   0.404  52.689  1.00  0.00     0.000 C 
HETATM   15  C19 UNL     1      23.665  -0.621  53.308  1.00  0.00    -0.004 C 
HETATM   16  C20 UNL     1      22.431  -0.596  53.779  1.00  0.00    -0.022 C 
HETATM   17  C21 UNL     1      21.407   0.482  53.864  1.00  0.00     0.068 C 
ENDROOT
BRANCH   1  18
HETATM   18  O2  UNL     1      17.009  -1.688  52.876  1.00  0.00    -0.346 OA
BRANCH  18  19
HETATM   19  C3  UNL     1      17.014  -3.008  53.303  1.00  0.00     0.201 C 
BRANCH  19  20
HETATM   20  C2  UNL     1      15.852  -3.849  52.890  1.00  0.00     0.193 C 
BRANCH  20  21
HETATM   21  O1  UNL     1      15.274  -4.545  53.947  1.00  0.00    -0.394 OA
HETATM   22  C1  UNL     1      15.876  -5.754  54.171  1.00  0.00     0.201 C 
ENDBRANCH  20  21
ENDBRANCH  19  20
ENDBRANCH  18  19
ENDBRANCH   1  18
BRANCH   6  23
HETATM   23  O3  UNL     1      17.054  -0.552  50.473  1.00  0.00    -0.346 OA
BRANCH  23  24
HETATM   24  C10 UNL     1      16.359   0.520  49.924  1.00  0.00     0.201 C 
BRANCH  24  25
HETATM   25  C11 UNL     1      15.530   1.276  50.940  1.00  0.00     0.193 C 
BRANCH  25  26
HETATM   26  O4  UNL     1      14.654   0.397  51.611  1.00  0.00    -0.394 OA
HETATM   27  C12 UNL     1      14.527   0.774  52.943  1.00  0.00     0.201 C 
ENDBRANCH  25  26
ENDBRANCH  24  25
ENDBRANCH  23  24
ENDBRANCH   6  23
TORSDOF 8
ENDMDL
MODEL 8
REMARK VINA RESULT:      -6.1      1.597      1.792
REMARK  8 active torsions:
REMARK  status: ('A' for Active; 'I' for Inactive)
REMARK    1  A    between atoms: O1_2  and  C2_3 
REMARK    2  A    between atoms: C2_3  and  C3_4 
REMARK    3  A    between atoms: C3_4  and  O2_5 
REMARK    4  A    between atoms: O2_5  and  C4_6 
REMARK    5  A    between atoms: C9_11  and  O3_12 
REMARK    6  A    between atoms: O3_12  and  C10_13 
REMARK    7  A    between atoms: C10_13  and  C11_14 
REMARK    8  A    between atoms: C11_14  and  O4_15 
ROOT
HETATM    1  C4  UNL     1      27.279   6.990  48.840  1.00  0.00     0.102 A 
HETATM    2  C5  UNL     1      27.074   5.638  48.784  1.00  0.00     0.049 A 
HETATM    3  C6  UNL     1      26.051   4.975  49.403  1.00  0.00    -0.023 A 
HETATM    4  C7  UNL     1      25.114   5.637  50.160  1.00  0.00     0.067 A 
HETATM    5  C8  UNL     1      25.281   7.025  50.251  1.00  0.00     0.071 A 
HETATM    6  C9  UNL     1      26.337   7.686  49.607  1.00  0.00     0.104 A 
HETATM    7  N1  UNL     1      24.015   5.148  50.847  1.00  0.00    -0.242 NA
HETATM    8  C13 UNL     1      23.950   4.556  51.985  1.00  0.00     0.234 C 
HETATM    9  N2  UNL     1      22.588   4.213  52.333  1.00  0.00    -0.239 NA
HETATM   10  C14 UNL     1      21.998   3.535  51.403  1.00  0.00     0.093 C 
HETATM   11  C15 UNL     1      22.652   2.429  51.068  1.00  0.00    -0.031 C 
HETATM   12  C16 UNL     1      21.934   1.660  49.988  1.00  0.00     0.050 C 
HETATM   13  C17 UNL     1      23.910   1.989  51.647  1.00  0.00     0.009 C 
HETATM   14  C18 UNL     1      25.134   1.705  52.001  1.00  0.00     0.000 C 
HETATM   15  C19 UNL     1      26.404   2.080  51.402  1.00  0.00    -0.004 C 
HETATM   16  C20 UNL     1      26.697   2.805  50.337  1.00  0.00    -0.022 C 
HETATM   17  C21 UNL     1      25.852   3.515  49.337  1.00  0.00     0.068 C 
ENDROOT
BRANCH   1  18
HETATM   18  O2  UNL     1      28.218   7.798  48.297  1.00  0.00    -0.346 OA
BRANCH  18  19
HETATM   19  C3  UNL     1      29.455   8.088  48.853  1.00  0.00     0.201 C 
BRANCH  19  20
HETATM   20  C2  UNL     1      30.552   7.108  48.595  1.00  0.00     0.193 C 
BRANCH  20  21
HETATM   21  O1  UNL     1      31.711   7.698  48.103  1.00  0.00    -0.394 OA
HETATM   22  C1  UNL     1      31.576   8.126  46.810  1.00  0.00     0.201 C 
ENDBRANCH  20  21
ENDBRANCH  19  20
ENDBRANCH  18  19
ENDBRANCH   1  18
BRANCH   6  23
HETATM   23  O3  UNL     1      26.412   9.085  49.764  1.00  0.00    -0.346 OA
BRANCH  23  24
HETATM   24  C10 UNL     1      25.709   9.935  48.918  1.00  0.00     0.201 C 
BRANCH  24  25
HETATM   25  C11 UNL     1      26.605  10.857  48.119  1.00  0.00     0.193 C 
BRANCH  25  26
HETATM   26  O4  UNL     1      27.109  11.885  48.942  1.00  0.00    -0.394 OA
HETATM   27  C12 UNL     1      27.237  13.061  48.213  1.00  0.00     0.201 C 
ENDBRANCH  25  26
ENDBRANCH  24  25
ENDBRANCH  23  24
ENDBRANCH   6  23
TORSDOF 8
ENDMDL
MODEL 9
REMARK VINA RESULT:      -6.1      4.348      8.041
REMARK  8 active torsions:
REMARK  status: ('A' for Active; 'I' for Inactive)
REMARK    1  A    between atoms: O1_2  and  C2_3 
REMARK    2  A    between atoms: C2_3  and  C3_4 
REMARK    3  A    between atoms: C3_4  and  O2_5 
REMARK    4  A    between atoms: O2_5  and  C4_6 
REMARK    5  A    between atoms: C9_11  and  O3_12 
REMARK    6  A    between atoms: O3_12  and  C10_13 
REMARK    7  A    between atoms: C10_13  and  C11_14 
REMARK    8  A    between atoms: C11_14  and  O4_15 
ROOT
HETATM    1  C4  UNL     1      23.391   1.642  51.773  1.00  0.00     0.102 A 
HETATM    2  C5  UNL     1      22.645   2.544  51.065  1.00  0.00     0.049 A 
HETATM    3  C6  UNL     1      23.136   3.680  50.482  1.00  0.00    -0.023 A 
HETATM    4  C7  UNL     1      24.466   4.017  50.565  1.00  0.00     0.067 A 
HETATM    5  C8  UNL     1      25.273   3.125  51.281  1.00  0.00     0.071 A 
HETATM    6  C9  UNL     1      24.750   1.965  51.871  1.00  0.00     0.104 A 
HETATM    7  N1  UNL     1      25.145   5.105  50.039  1.00  0.00    -0.242 NA
HETATM    8  C13 UNL     1      25.210   6.318  50.458  1.00  0.00     0.234 C 
HETATM    9  N2  UNL     1      26.042   7.135  49.603  1.00  0.00    -0.239 NA
HETATM   10  C14 UNL     1      25.683   7.073  48.361  1.00  0.00     0.093 C 
HETATM   11  C15 UNL     1      24.411   7.399  48.169  1.00  0.00    -0.031 C 
HETATM   12  C16 UNL     1      24.028   7.323  46.712  1.00  0.00     0.050 C 
HETATM   13  C17 UNL     1      23.474   7.779  49.212  1.00  0.00     0.009 C 
HETATM   14  C18 UNL     1      22.580   7.907  50.156  1.00  0.00     0.000 C 
HETATM   15  C19 UNL     1      21.743   6.913  50.807  1.00  0.00    -0.004 C 
HETATM   16  C20 UNL     1      21.633   5.607  50.642  1.00  0.00    -0.022 C 
HETATM   17  C21 UNL     1      22.314   4.645  49.730  1.00  0.00     0.068 C 
ENDROOT
BRANCH   1  18
HETATM   18  O2  UNL     1      23.077   0.486  52.403  1.00  0.00    -0.346 OA
BRANCH  18  19
HETATM   19  C3  UNL     1      21.818  -0.095  52.445  1.00  0.00     0.201 C 
BRANCH  19  20
HETATM   20  C2  UNL     1      21.332  -0.541  53.784  1.00  0.00     0.193 C 
BRANCH  20  21
HETATM   21  O1  UNL     1      22.003  -1.659  54.269  1.00  0.00    -0.394 OA
HETATM   22  C1  UNL     1      22.844  -1.358  55.305  1.00  0.00     0.201 C 
ENDBRANCH  20  21
ENDBRANCH  19  20
ENDBRANCH  18  19
ENDBRANCH   1  18
BRANCH   6  23
HETATM   23  O3  UNL     1      25.650   1.136  52.570  1.00  0.00    -0.346 OA
BRANCH  23  24
HETATM   24  C10 UNL     1      26.535   0.310  51.886  1.00  0.00     0.201 C 
BRANCH  24  25
HETATM   25  C11 UNL     1      26.664  -1.066  52.501  1.00  0.00     0.193 C 
BRANCH  25  26
HETATM   26  O4  UNL     1      27.313  -0.986  53.751  1.00  0.00    -0.394 OA
HETATM   27  C12 UNL     1      28.653  -0.664  53.572  1.00  0.00     0.201 C 
ENDBRANCH  25  26
ENDBRANCH  24  25
ENDBRANCH  23  24
ENDBRANCH   6  23
TORSDOF 8
ENDMDL
