MODEL 1
REMARK VINA RESULT:      -7.6      0.000      0.000
REMARK  6 active torsions:
REMARK  status: ('A' for Active; 'I' for Inactive)
REMARK    1  A    between atoms: O1_2  and  C2_3 
REMARK    2  A    between atoms: C5_6  and  C6_7 
REMARK    3  A    between atoms: C6_7  and  C7_8 
REMARK    4  A    between atoms: C7_8  and  S1_10 
REMARK    5  A    between atoms: S1_10  and  C8_11 
REMARK    6  A    between atoms: C15_18  and  C16_19 
ROOT
HETATM    1  C6  UNL     1      23.949   1.792  51.597  1.00  0.00     0.130 C 
ENDROOT
BRANCH   1   2
HETATM    2  C5  UNL     1      25.105   1.006  52.146  1.00  0.00    -0.037 A 
HETATM    3  C4  UNL     1      26.426   1.180  51.796  1.00  0.00     0.011 A 
HETATM    4  C3  UNL     1      27.382   0.380  52.392  1.00  0.00     0.037 A 
HETATM    5  C2  UNL     1      27.098  -0.587  53.321  1.00  0.00     0.069 A 
HETATM    6  C17 UNL     1      25.772  -0.750  53.663  1.00  0.00     0.051 A 
HETATM    7  C15 UNL     1      24.793   0.034  53.085  1.00  0.00     0.011 A 
BRANCH   5   8
HETATM    8  O1  UNL     1      28.145  -1.346  53.865  1.00  0.00    -0.356 OA
HETATM    9  C1  UNL     1      29.474  -0.923  53.743  1.00  0.00     0.210 C 
ENDBRANCH   5   8
BRANCH   7  10
HETATM   10  C16 UNL     1      23.432  -0.234  53.528  1.00  0.00     0.270 C 
HETATM   11  O3  UNL     1      22.682  -1.142  53.040  1.00  0.00    -0.301 OA
ENDBRANCH   7  10
ENDBRANCH   1   2
BRANCH   1  12
HETATM   12  C7  UNL     1      23.992   3.211  52.043  1.00  0.00     0.195 C 
HETATM   13  O2  UNL     1      24.239   3.427  53.233  1.00  0.00    -0.285 OA
BRANCH  12  14
HETATM   14  S1  UNL     1      23.647   4.218  50.610  1.00  0.00    -0.053 SA
BRANCH  14  15
HETATM   15  C8  UNL     1      25.168   4.653  49.831  1.00  0.00     0.008 A 
HETATM   16  C9  UNL     1      26.269   3.877  49.527  1.00  0.00     0.019 A 
HETATM   17  C10 UNL     1      27.368   4.428  48.909  1.00  0.00     0.008 A 
HETATM   18  C11 UNL     1      27.424   5.765  48.566  1.00  0.00    -0.062 A 
HETATM   19  C12 UNL     1      28.611   6.356  47.898  1.00  0.00     0.048 C 
HETATM   20  C13 UNL     1      26.323   6.574  48.862  1.00  0.00     0.008 A 
HETATM   21  C14 UNL     1      25.208   6.011  49.490  1.00  0.00     0.019 A 
ENDBRANCH  14  15
ENDBRANCH  12  14
ENDBRANCH   1  12
TORSDOF 6
ENDMDL
MODEL 2
REMARK VINA RESULT:      -7.2      1.545      2.659
REMARK  6 active torsions:
REMARK  status: ('A' for Active; 'I' for Inactive)
REMARK    1  A    between atoms: O1_2  and  C2_3 
REMARK    2  A    between atoms: C5_6  and  C6_7 
REMARK    3  A    between atoms: C6_7  and  C7_8 
REMARK    4  A    between atoms: C7_8  and  S1_10 
REMARK    5  A    between atoms: S1_10  and  C8_11 
REMARK    6  A    between atoms: C15_18  and  C16_19 
ROOT
HETATM    1  C6  UNL     1      25.156   2.796  53.507  1.00  0.00     0.130 C 
ENDROOT
BRANCH   1   2
HETATM    2  C5  UNL     1      25.688   1.397  53.385  1.00  0.00    -0.037 A 
HETATM    3  C4  UNL     1      24.921   0.258  53.278  1.00  0.00     0.011 A 
HETATM    4  C3  UNL     1      25.557  -0.964  53.169  1.00  0.00     0.037 A 
HETATM    5  C2  UNL     1      26.919  -1.118  53.160  1.00  0.00     0.069 A 
HETATM    6  C17 UNL     1      27.675   0.031  53.267  1.00  0.00     0.051 A 
HETATM    7  C15 UNL     1      27.069   1.266  53.377  1.00  0.00     0.011 A 
BRANCH   5   8
HETATM    8  O1  UNL     1      27.465  -2.406  53.046  1.00  0.00    -0.356 OA
HETATM    9  C1  UNL     1      28.849  -2.604  53.112  1.00  0.00     0.210 C 
ENDBRANCH   5   8
BRANCH   7  10
HETATM   10  C16 UNL     1      27.975   2.402  53.484  1.00  0.00     0.270 C 
HETATM   11  O3  UNL     1      28.923   2.489  54.331  1.00  0.00    -0.301 OA
ENDBRANCH   7  10
ENDBRANCH   1   2
BRANCH   1  12
HETATM   12  C7  UNL     1      24.201   3.114  52.411  1.00  0.00     0.195 C 
HETATM   13  O2  UNL     1      23.123   3.627  52.725  1.00  0.00    -0.285 OA
BRANCH  12  14
HETATM   14  S1  UNL     1      24.977   2.615  50.883  1.00  0.00    -0.053 SA
BRANCH  14  15
HETATM   15  C8  UNL     1      25.647   4.036  50.085  1.00  0.00     0.008 A 
HETATM   16  C9  UNL     1      25.183   5.335  50.037  1.00  0.00     0.019 A 
HETATM   17  C10 UNL     1      25.872   6.303  49.344  1.00  0.00     0.008 A 
HETATM   18  C11 UNL     1      27.047   6.029  48.672  1.00  0.00    -0.062 A 
HETATM   19  C12 UNL     1      27.789   7.077  47.926  1.00  0.00     0.048 C 
HETATM   20  C13 UNL     1      27.541   4.722  48.703  1.00  0.00     0.008 A 
HETATM   21  C14 UNL     1      26.838   3.740  49.408  1.00  0.00     0.019 A 
ENDBRANCH  14  15
ENDBRANCH  12  14
ENDBRANCH   1  12
TORSDOF 6
ENDMDL
MODEL 3
REMARK VINA RESULT:      -7.1      2.295      6.449
REMARK  6 active torsions:
REMARK  status: ('A' for Active; 'I' for Inactive)
REMARK    1  A    between atoms: O1_2  and  C2_3 
REMARK    2  A    between atoms: C5_6  and  C6_7 
REMARK    3  A    between atoms: C6_7  and  C7_8 
REMARK    4  A    between atoms: C7_8  and  S1_10 
REMARK    5  A    between atoms: S1_10  and  C8_11 
REMARK    6  A    between atoms: C15_18  and  C16_19 
ROOT
HETATM    1  C6  UNL     1      24.022   3.037  50.150  1.00  0.00     0.130 C 
ENDROOT
BRANCH   1   2
HETATM    2  C5  UNL     1      25.144   3.882  49.617  1.00  0.00    -0.037 A 
HETATM    3  C4  UNL     1      26.466   3.499  49.544  1.00  0.00     0.011 A 
HETATM    4  C3  UNL     1      27.386   4.389  49.024  1.00  0.00     0.037 A 
HETATM    5  C2  UNL     1      27.066   5.643  48.571  1.00  0.00     0.069 A 
HETATM    6  C17 UNL     1      25.740   6.012  48.650  1.00  0.00     0.051 A 
HETATM    7  C15 UNL     1      24.796   5.146  49.165  1.00  0.00     0.011 A 
BRANCH   5   8
HETATM    8  O1  UNL     1      28.079   6.469  48.061  1.00  0.00    -0.356 OA
HETATM    9  C1  UNL     1      29.404   6.019  47.996  1.00  0.00     0.210 C 
ENDBRANCH   5   8
BRANCH   7  10
HETATM   10  C16 UNL     1      23.430   5.652  49.196  1.00  0.00     0.270 C 
HETATM   11  O3  UNL     1      22.974   6.436  50.091  1.00  0.00    -0.301 OA
ENDBRANCH   7  10
ENDBRANCH   1   2
BRANCH   1  12
HETATM   12  C7  UNL     1      24.084   2.921  51.632  1.00  0.00     0.195 C 
HETATM   13  O2  UNL     1      24.008   3.963  52.289  1.00  0.00    -0.285 OA
BRANCH  12  14
HETATM   14  S1  UNL     1      24.261   1.185  52.011  1.00  0.00    -0.053 SA
BRANCH  14  15
HETATM   15  C8  UNL     1      25.920   0.871  52.516  1.00  0.00     0.008 A 
HETATM   16  C9  UNL     1      26.931   1.748  52.856  1.00  0.00     0.019 A 
HETATM   17  C10 UNL     1      28.171   1.282  53.225  1.00  0.00     0.008 A 
HETATM   18  C11 UNL     1      28.464  -0.066  53.273  1.00  0.00    -0.062 A 
HETATM   19  C12 UNL     1      29.805  -0.566  53.673  1.00  0.00     0.048 C 
HETATM   20  C13 UNL     1      27.460  -0.978  52.933  1.00  0.00     0.008 A 
HETATM   21  C14 UNL     1      26.200  -0.500  52.559  1.00  0.00     0.019 A 
ENDBRANCH  14  15
ENDBRANCH  12  14
ENDBRANCH   1  12
TORSDOF 6
ENDMDL
MODEL 4
REMARK VINA RESULT:      -6.9      2.230      6.587
REMARK  6 active torsions:
REMARK  status: ('A' for Active; 'I' for Inactive)
REMARK    1  A    between atoms: O1_2  and  C2_3 
REMARK    2  A    between atoms: C5_6  and  C6_7 
REMARK    3  A    between atoms: C6_7  and  C7_8 
REMARK    4  A    between atoms: C7_8  and  S1_10 
REMARK    5  A    between atoms: S1_10  and  C8_11 
REMARK    6  A    between atoms: C15_18  and  C16_19 
ROOT
HETATM    1  C6  UNL     1      23.880   1.806  51.090  1.00  0.00     0.130 C 
ENDROOT
BRANCH   1   2
HETATM    2  C5  UNL     1      24.308   3.059  50.380  1.00  0.00    -0.037 A 
HETATM    3  C4  UNL     1      23.458   3.999  49.840  1.00  0.00     0.011 A 
HETATM    4  C3  UNL     1      24.003   5.106  49.218  1.00  0.00     0.037 A 
HETATM    5  C2  UNL     1      25.350   5.332  49.101  1.00  0.00     0.069 A 
HETATM    6  C17 UNL     1      26.189   4.382  49.647  1.00  0.00     0.051 A 
HETATM    7  C15 UNL     1      25.675   3.265  50.275  1.00  0.00     0.011 A 
BRANCH   5   8
HETATM    8  O1  UNL     1      25.799   6.490  48.448  1.00  0.00    -0.356 OA
HETATM    9  C1  UNL     1      24.929   7.244  47.651  1.00  0.00     0.210 C 
ENDBRANCH   5   8
BRANCH   7  10
HETATM   10  C16 UNL     1      26.662   2.337  50.810  1.00  0.00     0.270 C 
HETATM   11  O3  UNL     1      27.442   2.598  51.784  1.00  0.00    -0.301 OA
ENDBRANCH   7  10
ENDBRANCH   1   2
BRANCH   1  12
HETATM   12  C7  UNL     1      23.815   2.008  52.563  1.00  0.00     0.195 C 
HETATM   13  O2  UNL     1      23.644   3.160  52.973  1.00  0.00    -0.285 OA
BRANCH  12  14
HETATM   14  S1  UNL     1      24.021   0.404  53.318  1.00  0.00    -0.053 SA
BRANCH  14  15
HETATM   15  C8  UNL     1      25.737   0.115  53.599  1.00  0.00     0.008 A 
HETATM   16  C9  UNL     1      26.585   0.636  54.556  1.00  0.00     0.019 A 
HETATM   17  C10 UNL     1      27.911   0.269  54.594  1.00  0.00     0.008 A 
HETATM   18  C11 UNL     1      28.452  -0.625  53.692  1.00  0.00    -0.062 A 
HETATM   19  C12 UNL     1      29.883  -1.019  53.738  1.00  0.00     0.048 C 
HETATM   20  C13 UNL     1      27.616  -1.169  52.712  1.00  0.00     0.008 A 
HETATM   21  C14 UNL     1      26.269  -0.794  52.676  1.00  0.00     0.019 A 
ENDBRANCH  14  15
ENDBRANCH  12  14
ENDBRANCH   1  12
TORSDOF 6
ENDMDL
MODEL 5
REMARK VINA RESULT:      -6.9      1.529      3.274
REMARK  6 active torsions:
REMARK  status: ('A' for Active; 'I' for Inactive)
REMARK    1  A    between atoms: O1_2  and  C2_3 
REMARK    2  A    between atoms: C5_6  and  C6_7 
REMARK    3  A    between atoms: C6_7  and  C7_8 
REMARK    4  A    between atoms: C7_8  and  S1_10 
REMARK    5  A    between atoms: S1_10  and  C8_11 
REMARK    6  A    between atoms: C15_18  and  C16_19 
ROOT
HETATM    1  C6  UNL     1      24.704   3.125  52.306  1.00  0.00     0.130 C 
ENDROOT
BRANCH   1   2
HETATM    2  C5  UNL     1      23.952   1.895  52.729  1.00  0.00    -0.037 A 
HETATM    3  C4  UNL     1      22.601   1.686  52.553  1.00  0.00     0.011 A 
HETATM    4  C3  UNL     1      22.050   0.499  52.994  1.00  0.00     0.037 A 
HETATM    5  C2  UNL     1      22.768  -0.498  53.603  1.00  0.00     0.069 A 
HETATM    6  C17 UNL     1      24.119  -0.275  53.773  1.00  0.00     0.051 A 
HETATM    7  C15 UNL     1      24.700   0.902  53.343  1.00  0.00     0.011 A 
BRANCH   5   8
HETATM    8  O1  UNL     1      22.111  -1.667  54.015  1.00  0.00    -0.356 OA
HETATM    9  C1  UNL     1      20.734  -1.660  54.271  1.00  0.00     0.210 C 
ENDBRANCH   5   8
BRANCH   7  10
HETATM   10  C16 UNL     1      26.132   1.017  53.579  1.00  0.00     0.270 C 
HETATM   11  O3  UNL     1      26.659   1.217  54.722  1.00  0.00    -0.301 OA
ENDBRANCH   7  10
ENDBRANCH   1   2
BRANCH   1  12
HETATM   12  C7  UNL     1      23.784   4.185  51.814  1.00  0.00     0.195 C 
HETATM   13  O2  UNL     1      23.230   4.896  52.658  1.00  0.00    -0.285 OA
BRANCH  12  14
HETATM   14  S1  UNL     1      23.773   4.080  50.032  1.00  0.00    -0.053 SA
BRANCH  14  15
HETATM   15  C8  UNL     1      25.321   4.652  49.411  1.00  0.00     0.008 A 
HETATM   16  C9  UNL     1      26.536   4.006  49.312  1.00  0.00     0.019 A 
HETATM   17  C10 UNL     1      27.634   4.650  48.789  1.00  0.00     0.008 A 
HETATM   18  C11 UNL     1      27.575   5.955  48.342  1.00  0.00    -0.062 A 
HETATM   19  C12 UNL     1      28.762   6.647  47.777  1.00  0.00     0.048 C 
HETATM   20  C13 UNL     1      26.356   6.635  48.430  1.00  0.00     0.008 A 
HETATM   21  C14 UNL     1      25.243   5.977  48.963  1.00  0.00     0.019 A 
ENDBRANCH  14  15
ENDBRANCH  12  14
ENDBRANCH   1  12
TORSDOF 6
ENDMDL
MODEL 6
REMARK VINA RESULT:      -6.9      3.061      5.377
REMARK  6 active torsions:
REMARK  status: ('A' for Active; 'I' for Inactive)
REMARK    1  A    between atoms: O1_2  and  C2_3 
REMARK    2  A    between atoms: C5_6  and  C6_7 
REMARK    3  A    between atoms: C6_7  and  C7_8 
REMARK    4  A    between atoms: C7_8  and  S1_10 
REMARK    5  A    between atoms: S1_10  and  C8_11 
REMARK    6  A    between atoms: C15_18  and  C16_19 
ROOT
HETATM    1  C6  UNL     1      25.152   2.652  53.253  1.00  0.00     0.130 C 
ENDROOT
BRANCH   1   2
HETATM    2  C5  UNL     1      25.778   1.287  53.199  1.00  0.00    -0.037 A 
HETATM    3  C4  UNL     1      25.099   0.106  52.993  1.00  0.00     0.011 A 
HETATM    4  C3  UNL     1      25.815  -1.075  52.966  1.00  0.00     0.037 A 
HETATM    5  C2  UNL     1      27.174  -1.149  53.131  1.00  0.00     0.069 A 
HETATM    6  C17 UNL     1      27.841   0.041  53.336  1.00  0.00     0.051 A 
HETATM    7  C15 UNL     1      27.153   1.238  53.369  1.00  0.00     0.011 A 
BRANCH   5   8
HETATM    8  O1  UNL     1      27.805  -2.401  53.087  1.00  0.00    -0.356 OA
HETATM    9  C1  UNL     1      29.196  -2.506  53.214  1.00  0.00     0.210 C 
ENDBRANCH   5   8
BRANCH   7  10
HETATM   10  C16 UNL     1      27.969   2.424  53.592  1.00  0.00     0.270 C 
HETATM   11  O3  UNL     1      28.957   2.477  54.394  1.00  0.00    -0.301 OA
ENDBRANCH   7  10
ENDBRANCH   1   2
BRANCH   1  12
HETATM   12  C7  UNL     1      24.650   3.076  51.918  1.00  0.00     0.195 C 
HETATM   13  O2  UNL     1      25.396   2.907  50.949  1.00  0.00    -0.285 OA
BRANCH  12  14
HETATM   14  S1  UNL     1      23.013   3.741  52.164  1.00  0.00    -0.053 SA
BRANCH  14  15
HETATM   15  C8  UNL     1      21.823   2.479  51.849  1.00  0.00     0.008 A 
HETATM   16  C9  UNL     1      21.976   1.232  51.277  1.00  0.00     0.019 A 
HETATM   17  C10 UNL     1      20.897   0.393  51.122  1.00  0.00     0.008 A 
HETATM   18  C11 UNL     1      19.626   0.749  51.527  1.00  0.00    -0.062 A 
HETATM   19  C12 UNL     1      18.463  -0.160  51.359  1.00  0.00     0.048 C 
HETATM   20  C13 UNL     1      19.441   2.006  52.110  1.00  0.00     0.008 A 
HETATM   21  C14 UNL     1      20.541   2.857  52.265  1.00  0.00     0.019 A 
ENDBRANCH  14  15
ENDBRANCH  12  14
ENDBRANCH   1  12
TORSDOF 6
ENDMDL
MODEL 7
REMARK VINA RESULT:      -6.8      3.825      4.586
REMARK  6 active torsions:
REMARK  status: ('A' for Active; 'I' for Inactive)
REMARK    1  A    between atoms: O1_2  and  C2_3 
REMARK    2  A    between atoms: C5_6  and  C6_7 
REMARK    3  A    between atoms: C6_7  and  C7_8 
REMARK    4  A    between atoms: C7_8  and  S1_10 
REMARK    5  A    between atoms: S1_10  and  C8_11 
REMARK    6  A    between atoms: C15_18  and  C16_19 
ROOT
HETATM    1  C6  UNL     1      20.639   1.055  53.421  1.00  0.00     0.130 C 
ENDROOT
BRANCH   1   2
HETATM    2  C5  UNL     1      22.113   0.895  53.180  1.00  0.00    -0.037 A 
HETATM    3  C4  UNL     1      22.949   1.868  52.676  1.00  0.00     0.011 A 
HETATM    4  C3  UNL     1      24.288   1.573  52.513  1.00  0.00     0.037 A 
HETATM    5  C2  UNL     1      24.847   0.360  52.824  1.00  0.00     0.069 A 
HETATM    6  C17 UNL     1      23.999  -0.604  53.327  1.00  0.00     0.051 A 
HETATM    7  C15 UNL     1      22.655  -0.340  53.502  1.00  0.00     0.011 A 
BRANCH   5   8
HETATM    8  O1  UNL     1      26.221   0.163  52.618  1.00  0.00    -0.356 OA
HETATM    9  C1  UNL     1      26.736  -1.123  52.414  1.00  0.00     0.210 C 
ENDBRANCH   5   8
BRANCH   7  10
HETATM   10  C16 UNL     1      21.864  -1.438  54.040  1.00  0.00     0.270 C 
HETATM   11  O3  UNL     1      21.910  -1.831  55.252  1.00  0.00    -0.301 OA
ENDBRANCH   7  10
ENDBRANCH   1   2
BRANCH   1  12
HETATM   12  C7  UNL     1      19.993   1.850  52.342  1.00  0.00     0.195 C 
HETATM   13  O2  UNL     1      19.715   3.027  52.590  1.00  0.00    -0.285 OA
BRANCH  12  14
HETATM   14  S1  UNL     1      19.812   0.767  50.935  1.00  0.00    -0.053 SA
BRANCH  14  15
HETATM   15  C8  UNL     1      20.594   1.503  49.537  1.00  0.00     0.008 A 
HETATM   16  C9  UNL     1      21.858   1.311  49.017  1.00  0.00     0.019 A 
HETATM   17  C10 UNL     1      22.271   2.001  47.901  1.00  0.00     0.008 A 
HETATM   18  C11 UNL     1      21.454   2.906  47.253  1.00  0.00    -0.062 A 
HETATM   19  C12 UNL     1      21.904   3.649  46.047  1.00  0.00     0.048 C 
HETATM   20  C13 UNL     1      20.168   3.121  47.757  1.00  0.00     0.008 A 
HETATM   21  C14 UNL     1      19.751   2.418  48.892  1.00  0.00     0.019 A 
ENDBRANCH  14  15
ENDBRANCH  12  14
ENDBRANCH   1  12
TORSDOF 6
ENDMDL
MODEL 8
REMARK VINA RESULT:      -6.6      2.632      7.462
REMARK  6 active torsions:
REMARK  status: ('A' for Active; 'I' for Inactive)
REMARK    1  A    between atoms: O1_2  and  C2_3 
REMARK    2  A    between atoms: C5_6  and  C6_7 
REMARK    3  A    between atoms: C6_7  and  C7_8 
REMARK    4  A    between atoms: C7_8  and  S1_10 
REMARK    5  A    between atoms: S1_10  and  C8_11 
REMARK    6  A    between atoms: C15_18  and  C16_19 
ROOT
HETATM    1  C6  UNL     1      25.594   3.531  49.420  1.00  0.00     0.130 C 
ENDROOT
BRANCH   1   2
HETATM    2  C5  UNL     1      26.448   4.698  49.014  1.00  0.00    -0.037 A 
HETATM    3  C4  UNL     1      27.787   4.636  48.699  1.00  0.00     0.011 A 
HETATM    4  C3  UNL     1      28.440   5.799  48.340  1.00  0.00     0.037 A 
HETATM    5  C2  UNL     1      27.833   7.027  48.275  1.00  0.00     0.069 A 
HETATM    6  C17 UNL     1      26.492   7.075  48.592  1.00  0.00     0.051 A 
HETATM    7  C15 UNL     1      25.812   5.929  48.955  1.00  0.00     0.011 A 
BRANCH   5   8
HETATM    8  O1  UNL     1      28.588   8.148  47.898  1.00  0.00    -0.356 OA
HETATM    9  C1  UNL     1      29.354   8.844  48.842  1.00  0.00     0.210 C 
ENDBRANCH   5   8
BRANCH   7  10
HETATM   10  C16 UNL     1      24.400   6.110  49.267  1.00  0.00     0.270 C 
HETATM   11  O3  UNL     1      23.479   6.218  48.393  1.00  0.00    -0.301 OA
ENDBRANCH   7  10
ENDBRANCH   1   2
BRANCH   1  12
HETATM   12  C7  UNL     1      25.851   3.131  50.830  1.00  0.00     0.195 C 
HETATM   13  O2  UNL     1      26.977   2.711  51.107  1.00  0.00    -0.285 OA
BRANCH  12  14
HETATM   14  S1  UNL     1      24.336   3.407  51.732  1.00  0.00    -0.053 SA
BRANCH  14  15
HETATM   15  C8  UNL     1      23.852   1.907  52.521  1.00  0.00     0.008 A 
HETATM   16  C9  UNL     1      24.617   0.854  52.982  1.00  0.00     0.019 A 
HETATM   17  C10 UNL     1      24.026  -0.238  53.574  1.00  0.00     0.008 A 
HETATM   18  C11 UNL     1      22.658  -0.335  53.736  1.00  0.00    -0.062 A 
HETATM   19  C12 UNL     1      22.023  -1.515  54.376  1.00  0.00     0.048 C 
HETATM   20  C13 UNL     1      21.858   0.717  53.277  1.00  0.00     0.008 A 
HETATM   21  C14 UNL     1      22.463   1.825  52.676  1.00  0.00     0.019 A 
ENDBRANCH  14  15
ENDBRANCH  12  14
ENDBRANCH   1  12
TORSDOF 6
ENDMDL
MODEL 9
REMARK VINA RESULT:      -6.6      2.117      3.099
REMARK  6 active torsions:
REMARK  status: ('A' for Active; 'I' for Inactive)
REMARK    1  A    between atoms: O1_2  and  C2_3 
REMARK    2  A    between atoms: C5_6  and  C6_7 
REMARK    3  A    between atoms: C6_7  and  C7_8 
REMARK    4  A    between atoms: C7_8  and  S1_10 
REMARK    5  A    between atoms: S1_10  and  C8_11 
REMARK    6  A    between atoms: C15_18  and  C16_19 
ROOT
HETATM    1  C6  UNL     1      21.116   0.448  52.205  1.00  0.00     0.130 C 
ENDROOT
BRANCH   1   2
HETATM    2  C5  UNL     1      22.476   0.207  52.796  1.00  0.00    -0.037 A 
HETATM    3  C4  UNL     1      23.670   0.610  52.240  1.00  0.00     0.011 A 
HETATM    4  C3  UNL     1      24.845   0.318  52.906  1.00  0.00     0.037 A 
HETATM    5  C2  UNL     1      24.900  -0.356  54.099  1.00  0.00     0.069 A 
HETATM    6  C17 UNL     1      23.697  -0.754  54.644  1.00  0.00     0.051 A 
HETATM    7  C15 UNL     1      22.506  -0.476  54.003  1.00  0.00     0.011 A 
BRANCH   5   8
HETATM    8  O1  UNL     1      26.147  -0.603  54.692  1.00  0.00    -0.356 OA
HETATM    9  C1  UNL     1      27.180   0.338  54.603  1.00  0.00     0.210 C 
ENDBRANCH   5   8
BRANCH   7  10
HETATM   10  C16 UNL     1      21.305  -0.948  54.679  1.00  0.00     0.270 C 
HETATM   11  O3  UNL     1      20.892  -2.153  54.653  1.00  0.00    -0.301 OA
ENDBRANCH   7  10
ENDBRANCH   1   2
BRANCH   1  12
HETATM   12  C7  UNL     1      20.713   1.875  52.327  1.00  0.00     0.195 C 
HETATM   13  O2  UNL     1      20.396   2.284  53.447  1.00  0.00    -0.285 OA
BRANCH  12  14
HETATM   14  S1  UNL     1      20.824   2.588  50.694  1.00  0.00    -0.053 SA
BRANCH  14  15
HETATM   15  C8  UNL     1      22.437   3.265  50.469  1.00  0.00     0.008 A 
HETATM   16  C9  UNL     1      23.142   4.166  51.241  1.00  0.00     0.019 A 
HETATM   17  C10 UNL     1      24.406   4.567  50.875  1.00  0.00     0.008 A 
HETATM   18  C11 UNL     1      25.025   4.094  49.735  1.00  0.00    -0.062 A 
HETATM   19  C12 UNL     1      26.390   4.528  49.343  1.00  0.00     0.048 C 
HETATM   20  C13 UNL     1      24.334   3.179  48.934  1.00  0.00     0.008 A 
HETATM   21  C14 UNL     1      23.049   2.775  49.309  1.00  0.00     0.019 A 
ENDBRANCH  14  15
ENDBRANCH  12  14
ENDBRANCH   1  12
TORSDOF 6
ENDMDL
