MODEL 1
REMARK VINA RESULT:      -9.1      0.000      0.000
REMARK  0 active torsions:
REMARK  status: ('A' for Active; 'I' for Inactive)
ROOT
HETATM    1  C1  UNL     1      21.085  -1.432  54.479  1.00  0.00     0.038 C 
HETATM    2  C2  UNL     1      22.429  -1.065  54.052  1.00  0.00    -0.002 C 
HETATM    3  C3  UNL     1      23.554  -0.734  53.572  1.00  0.00     0.030 C 
HETATM    4  C4  UNL     1      24.880  -0.360  53.087  1.00  0.00     0.049 C 
HETATM    5  C5  UNL     1      25.822  -0.289  54.018  1.00  0.00     0.019 C 
HETATM    6 CL1  UNL     1      25.811  -0.570  55.725  1.00  0.00    -0.088 Cl
HETATM    7  C6  UNL     1      27.015   0.372  53.362  1.00  0.00     0.109 C 
HETATM    8  C7  UNL     1      26.539   1.727  52.840  1.00  0.00     0.030 C 
HETATM    9  C8  UNL     1      26.805   2.011  51.509  1.00  0.00     0.029 C 
HETATM   10  C9  UNL     1      26.494   3.161  50.754  1.00  0.00     0.299 C 
HETATM   11  N1  UNL     1      26.182   4.280  50.008  1.00  0.00     0.086 NA
HETATM   12  C10 UNL     1      24.855   4.590  50.444  1.00  0.00     0.272 C 
HETATM   13  C11 UNL     1      23.751   5.419  50.260  1.00  0.00     0.054 C 
HETATM   14  C12 UNL     1      22.833   5.006  51.446  1.00  0.00     0.107 C 
HETATM   15 CL2  UNL     1      23.681   5.230  52.984  1.00  0.00    -0.121 Cl
HETATM   16  C13 UNL     1      22.163   3.718  51.367  1.00  0.00     0.008 C 
HETATM   17  C14 UNL     1      22.361   2.503  51.778  1.00  0.00     0.032 A 
HETATM   18  C15 UNL     1      23.615   2.768  52.465  1.00  0.00     0.224 A 
HETATM   19  N2  UNL     1      24.641   2.595  53.089  1.00  0.00    -0.208 N 
HETATM   20  N3  UNL     1      25.774   2.614  53.744  1.00  0.00    -0.289 N 
HETATM   21  N4  UNL     1      23.768   1.472  52.881  1.00  0.00    -0.119 NA
HETATM   22  C16 UNL     1      22.670   1.204  52.289  1.00  0.00     0.116 A 
HETATM   23  N5  UNL     1      22.607  -0.157  52.562  1.00  0.00    -0.345 N 
HETATM   24  H11 UNL     1      26.217   4.127  48.994  1.00  0.00     0.316 HD
HETATM   25  H18 UNL     1      25.970   3.126  54.615  1.00  0.00     0.188 HD
HETATM   26  H19 UNL     1      21.822  -0.083  51.826  1.00  0.00     0.167 HD
ENDROOT
TORSDOF 0
ENDMDL
MODEL 2
REMARK VINA RESULT:      -9.1      1.433      6.048
REMARK  0 active torsions:
REMARK  status: ('A' for Active; 'I' for Inactive)
ROOT
HETATM    1  C1  UNL     1      28.070   5.254  48.509  1.00  0.00     0.038 C 
HETATM    2  C2  UNL     1      26.749   5.045  49.087  1.00  0.00    -0.002 C 
HETATM    3  C3  UNL     1      25.603   4.754  49.543  1.00  0.00     0.030 C 
HETATM    4  C4  UNL     1      24.279   4.487  50.099  1.00  0.00     0.049 C 
HETATM    5  C5  UNL     1      23.757   5.475  50.814  1.00  0.00     0.019 C 
HETATM    6 CL1  UNL     1      24.327   7.057  51.223  1.00  0.00    -0.088 Cl
HETATM    7  C6  UNL     1      22.544   4.897  51.510  1.00  0.00     0.109 C 
HETATM    8  C7  UNL     1      23.032   3.707  52.337  1.00  0.00     0.030 C 
HETATM    9  C8  UNL     1      22.364   2.506  52.154  1.00  0.00     0.029 C 
HETATM   10  C9  UNL     1      22.582   1.253  52.763  1.00  0.00     0.299 C 
HETATM   11  N1  UNL     1      22.798   0.022  53.349  1.00  0.00     0.086 NA
HETATM   12  C10 UNL     1      24.226  -0.072  53.370  1.00  0.00     0.272 C 
HETATM   13  C11 UNL     1      25.319  -0.881  53.671  1.00  0.00     0.054 C 
HETATM   14  C12 UNL     1      26.512   0.099  53.479  1.00  0.00     0.107 C 
HETATM   15 CL2  UNL     1      26.319   1.510  54.533  1.00  0.00    -0.121 Cl
HETATM   16  C13 UNL     1      26.873   0.469  52.121  1.00  0.00     0.008 C 
HETATM   17  C14 UNL     1      26.625   1.432  51.287  1.00  0.00     0.032 A 
HETATM   18  C15 UNL     1      25.766   2.197  52.176  1.00  0.00     0.224 A 
HETATM   19  N2  UNL     1      25.015   3.057  52.588  1.00  0.00    -0.208 N 
HETATM   20  N3  UNL     1      24.212   3.880  53.212  1.00  0.00    -0.289 N 
HETATM   21  N4  UNL     1      25.546   3.191  51.259  1.00  0.00    -0.119 NA
HETATM   22  C16 UNL     1      26.296   2.546  50.453  1.00  0.00     0.116 A 
HETATM   23  N5  UNL     1      26.214   3.396  49.358  1.00  0.00    -0.345 N 
HETATM   24  H11 UNL     1      22.378  -0.762  52.838  1.00  0.00     0.316 HD
HETATM   25  H18 UNL     1      24.432   4.431  54.054  1.00  0.00     0.188 HD
HETATM   26  H19 UNL     1      26.684   2.546  48.891  1.00  0.00     0.167 HD
ENDROOT
TORSDOF 0
ENDMDL
MODEL 3
REMARK VINA RESULT:      -8.6      2.215      2.926
REMARK  0 active torsions:
REMARK  status: ('A' for Active; 'I' for Inactive)
ROOT
HETATM    1  C1  UNL     1      18.621   0.823  50.114  1.00  0.00     0.038 C 
HETATM    2  C2  UNL     1      19.914   0.626  50.757  1.00  0.00    -0.002 C 
HETATM    3  C3  UNL     1      21.085   0.451  51.208  1.00  0.00     0.030 C 
HETATM    4  C4  UNL     1      22.407   0.251  51.798  1.00  0.00     0.049 C 
HETATM    5  C5  UNL     1      22.441   0.257  53.123  1.00  0.00     0.019 C 
HETATM    6 CL1  UNL     1      21.213   0.440  54.329  1.00  0.00    -0.088 Cl
HETATM    7  C6  UNL     1      23.903   0.317  53.508  1.00  0.00     0.109 C 
HETATM    8  C7  UNL     1      24.482   1.572  52.856  1.00  0.00     0.030 C 
HETATM    9  C8  UNL     1      25.630   1.408  52.097  1.00  0.00     0.029 C 
HETATM   10  C9  UNL     1      26.383   2.363  51.384  1.00  0.00     0.299 C 
HETATM   11  N1  UNL     1      27.117   3.293  50.675  1.00  0.00     0.086 NA
HETATM   12  C10 UNL     1      26.103   4.107  50.078  1.00  0.00     0.272 C 
HETATM   13  C11 UNL     1      25.845   5.165  49.210  1.00  0.00     0.054 C 
HETATM   14  C12 UNL     1      24.316   5.380  49.406  1.00  0.00     0.107 C 
HETATM   15 CL2  UNL     1      23.958   5.711  51.108  1.00  0.00    -0.121 Cl
HETATM   16  C13 UNL     1      23.415   4.394  48.833  1.00  0.00     0.008 C 
HETATM   17  C14 UNL     1      22.785   3.326  49.219  1.00  0.00     0.032 A 
HETATM   18  C15 UNL     1      23.257   3.349  50.593  1.00  0.00     0.224 A 
HETATM   19  N2  UNL     1      23.445   3.027  51.748  1.00  0.00    -0.208 N 
HETATM   20  N3  UNL     1      23.760   2.855  53.007  1.00  0.00    -0.289 N 
HETATM   21  N4  UNL     1      22.563   2.223  50.947  1.00  0.00    -0.119 NA
HETATM   22  C16 UNL     1      22.129   2.172  49.749  1.00  0.00     0.116 A 
HETATM   23  N5  UNL     1      21.362   1.019  49.848  1.00  0.00    -0.345 N 
HETATM   24  H11 UNL     1      27.735   2.883  49.966  1.00  0.00     0.316 HD
HETATM   25  H18 UNL     1      23.529   3.484  53.788  1.00  0.00     0.188 HD
HETATM   26  H19 UNL     1      21.361   1.145  48.777  1.00  0.00     0.167 HD
ENDROOT
TORSDOF 0
ENDMDL
MODEL 4
REMARK VINA RESULT:      -8.0      7.843     10.974
REMARK  0 active torsions:
REMARK  status: ('A' for Active; 'I' for Inactive)
ROOT
HETATM    1  C1  UNL     1      26.494   6.386  48.330  1.00  0.00     0.038 C 
HETATM    2  C2  UNL     1      27.728   7.156  48.421  1.00  0.00    -0.002 C 
HETATM    3  C3  UNL     1      28.843   7.739  48.570  1.00  0.00     0.030 C 
HETATM    4  C4  UNL     1      30.102   8.468  48.698  1.00  0.00     0.049 C 
HETATM    5  C5  UNL     1      30.179   9.591  47.997  1.00  0.00     0.019 C 
HETATM    6 CL1  UNL     1      29.064  10.400  46.949  1.00  0.00    -0.088 Cl
HETATM    7  C6  UNL     1      31.628  10.024  48.050  1.00  0.00     0.109 C 
HETATM    8  C7  UNL     1      32.456   8.869  47.486  1.00  0.00     0.030 C 
HETATM    9  C8  UNL     1      33.512   8.421  48.264  1.00  0.00     0.029 C 
HETATM   10  C9  UNL     1      34.439   7.388  48.016  1.00  0.00     0.299 C 
HETATM   11  N1  UNL     1      35.343   6.371  47.782  1.00  0.00     0.086 NA
HETATM   12  C10 UNL     1      34.522   5.343  47.219  1.00  0.00     0.272 C 
HETATM   13  C11 UNL     1      34.483   4.030  46.756  1.00  0.00     0.054 C 
HETATM   14  C12 UNL     1      33.051   3.939  46.156  1.00  0.00     0.107 C 
HETATM   15 CL2  UNL     1      32.832   5.174  44.905  1.00  0.00    -0.121 Cl
HETATM   16  C13 UNL     1      31.931   3.885  47.081  1.00  0.00     0.008 C 
HETATM   17  C14 UNL     1      31.088   4.710  47.621  1.00  0.00     0.032 A 
HETATM   18  C15 UNL     1      31.596   5.907  46.971  1.00  0.00     0.224 A 
HETATM   19  N2  UNL     1      31.742   7.072  46.662  1.00  0.00    -0.208 N 
HETATM   20  N3  UNL     1      32.050   8.257  46.202  1.00  0.00    -0.289 N 
HETATM   21  N4  UNL     1      30.675   6.731  47.563  1.00  0.00    -0.119 NA
HETATM   22  C16 UNL     1      30.204   5.701  48.150  1.00  0.00     0.116 A 
HETATM   23  N5  UNL     1      29.197   6.316  48.884  1.00  0.00    -0.345 N 
HETATM   24  H11 UNL     1      35.828   6.044  48.625  1.00  0.00     0.316 HD
HETATM   25  H18 UNL     1      31.993   8.568  45.222  1.00  0.00     0.188 HD
HETATM   26  H19 UNL     1      29.192   5.344  49.349  1.00  0.00     0.167 HD
ENDROOT
TORSDOF 0
ENDMDL
MODEL 5
REMARK VINA RESULT:      -7.6      2.635      3.860
REMARK  0 active torsions:
REMARK  status: ('A' for Active; 'I' for Inactive)
ROOT
HETATM    1  C1  UNL     1      18.950   2.558  49.341  1.00  0.00     0.038 C 
HETATM    2  C2  UNL     1      20.294   2.224  49.796  1.00  0.00    -0.002 C 
HETATM    3  C3  UNL     1      21.498   1.948  50.079  1.00  0.00     0.030 C 
HETATM    4  C4  UNL     1      22.865   1.619  50.477  1.00  0.00     0.049 C 
HETATM    5  C5  UNL     1      23.038   1.398  51.773  1.00  0.00     0.019 C 
HETATM    6 CL1  UNL     1      21.952   1.403  53.121  1.00  0.00    -0.088 Cl
HETATM    7  C6  UNL     1      24.533   1.357  51.998  1.00  0.00     0.109 C 
HETATM    8  C7  UNL     1      25.093   2.691  51.505  1.00  0.00     0.030 C 
HETATM    9  C8  UNL     1      26.147   2.631  50.607  1.00  0.00     0.029 C 
HETATM   10  C9  UNL     1      26.861   3.676  49.984  1.00  0.00     0.299 C 
HETATM   11  N1  UNL     1      27.555   4.695  49.364  1.00  0.00     0.086 NA
HETATM   12  C10 UNL     1      26.519   5.623  49.026  1.00  0.00     0.272 C 
HETATM   13  C11 UNL     1      26.215   6.819  48.381  1.00  0.00     0.054 C 
HETATM   14  C12 UNL     1      24.726   7.034  48.777  1.00  0.00     0.107 C 
HETATM   15 CL2  UNL     1      24.563   7.078  50.540  1.00  0.00    -0.121 Cl
HETATM   16  C13 UNL     1      23.729   6.181  48.151  1.00  0.00     0.008 C 
HETATM   17  C14 UNL     1      23.099   5.079  48.421  1.00  0.00     0.032 A 
HETATM   18  C15 UNL     1      23.713   4.856  49.719  1.00  0.00     0.224 A 
HETATM   19  N2  UNL     1      24.007   4.338  50.776  1.00  0.00    -0.208 N 
HETATM   20  N3  UNL     1      24.445   3.946  51.946  1.00  0.00    -0.289 N 
HETATM   21  N4  UNL     1      23.013   3.703  49.955  1.00  0.00    -0.119 NA
HETATM   22  C16 UNL     1      22.454   3.867  48.820  1.00  0.00     0.116 A 
HETATM   23  N5  UNL     1      21.654   2.732  48.810  1.00  0.00    -0.345 N 
HETATM   24  H11 UNL     1      28.077   4.397  48.532  1.00  0.00     0.316 HD
HETATM   25  H18 UNL     1      24.324   4.439  52.842  1.00  0.00     0.188 HD
HETATM   26  H19 UNL     1      21.547   3.038  47.782  1.00  0.00     0.167 HD
ENDROOT
TORSDOF 0
ENDMDL
MODEL 6
REMARK VINA RESULT:      -7.6      2.704      5.461
REMARK  0 active torsions:
REMARK  status: ('A' for Active; 'I' for Inactive)
ROOT
HETATM    1  C1  UNL     1      23.307   6.933  50.935  1.00  0.00     0.038 C 
HETATM    2  C2  UNL     1      23.575   5.656  51.584  1.00  0.00    -0.002 C 
HETATM    3  C3  UNL     1      23.715   4.567  52.218  1.00  0.00     0.030 C 
HETATM    4  C4  UNL     1      23.936   3.297  52.905  1.00  0.00     0.049 C 
HETATM    5  C5  UNL     1      24.931   2.562  52.427  1.00  0.00     0.019 C 
HETATM    6 CL1  UNL     1      26.059   2.808  51.137  1.00  0.00    -0.088 Cl
HETATM    7  C6  UNL     1      24.805   1.204  53.081  1.00  0.00     0.109 C 
HETATM    8  C7  UNL     1      23.411   0.676  52.744  1.00  0.00     0.030 C 
HETATM    9  C8  UNL     1      22.632   0.247  53.808  1.00  0.00     0.029 C 
HETATM   10  C9  UNL     1      21.324  -0.280  53.812  1.00  0.00     0.299 C 
HETATM   11  N1  UNL     1      20.040  -0.787  53.821  1.00  0.00     0.086 NA
HETATM   12  C10 UNL     1      19.367   0.040  52.868  1.00  0.00     0.272 C 
HETATM   13  C11 UNL     1      18.145   0.343  52.271  1.00  0.00     0.054 C 
HETATM   14  C12 UNL     1      18.565   1.350  51.163  1.00  0.00     0.107 C 
HETATM   15 CL2  UNL     1      19.755   0.607  50.081  1.00  0.00    -0.121 Cl
HETATM   16  C13 UNL     1      18.954   2.689  51.575  1.00  0.00     0.008 C 
HETATM   17  C14 UNL     1      20.047   3.334  51.845  1.00  0.00     0.032 A 
HETATM   18  C15 UNL     1      20.954   2.228  51.588  1.00  0.00     0.224 A 
HETATM   19  N2  UNL     1      21.974   1.576  51.500  1.00  0.00    -0.208 N 
HETATM   20  N3  UNL     1      22.950   0.719  51.339  1.00  0.00    -0.289 N 
HETATM   21  N4  UNL     1      22.075   2.959  51.876  1.00  0.00    -0.119 NA
HETATM   22  C16 UNL     1      21.308   3.952  52.110  1.00  0.00     0.116 A 
HETATM   23  N5  UNL     1      22.271   4.886  52.470  1.00  0.00    -0.345 N 
HETATM   24  H11 UNL     1      19.585  -0.749  54.740  1.00  0.00     0.316 HD
HETATM   25  H18 UNL     1      23.229   0.267  50.457  1.00  0.00     0.188 HD
HETATM   26  H19 UNL     1      21.383   5.414  52.778  1.00  0.00     0.167 HD
ENDROOT
TORSDOF 0
ENDMDL
MODEL 7
REMARK VINA RESULT:      -7.5      2.594      5.687
REMARK  0 active torsions:
REMARK  status: ('A' for Active; 'I' for Inactive)
ROOT
HETATM    1  C1  UNL     1      20.791   7.991  50.464  1.00  0.00     0.038 C 
HETATM    2  C2  UNL     1      21.986   7.161  50.553  1.00  0.00    -0.002 C 
HETATM    3  C3  UNL     1      22.994   6.418  50.743  1.00  0.00     0.030 C 
HETATM    4  C4  UNL     1      24.178   5.575  50.891  1.00  0.00     0.049 C 
HETATM    5  C5  UNL     1      24.908   5.429  49.793  1.00  0.00     0.019 C 
HETATM    6 CL1  UNL     1      24.754   6.058  48.188  1.00  0.00    -0.088 Cl
HETATM    7  C6  UNL     1      25.896   4.322  50.087  1.00  0.00     0.109 C 
HETATM    8  C7  UNL     1      25.079   3.089  50.472  1.00  0.00     0.030 C 
HETATM    9  C8  UNL     1      25.418   2.463  51.662  1.00  0.00     0.029 C 
HETATM   10  C9  UNL     1      24.854   1.324  52.272  1.00  0.00     0.299 C 
HETATM   11  N1  UNL     1      24.298   0.215  52.879  1.00  0.00     0.086 NA
HETATM   12  C10 UNL     1      22.896   0.410  52.669  1.00  0.00     0.272 C 
HETATM   13  C11 UNL     1      21.618  -0.075  52.934  1.00  0.00     0.054 C 
HETATM   14  C12 UNL     1      20.732   0.833  52.035  1.00  0.00     0.107 C 
HETATM   15 CL2  UNL     1      21.241   0.701  50.343  1.00  0.00    -0.121 Cl
HETATM   16  C13 UNL     1      20.539   2.214  52.447  1.00  0.00     0.008 C 
HETATM   17  C14 UNL     1      21.066   3.374  52.202  1.00  0.00     0.032 A 
HETATM   18  C15 UNL     1      22.056   2.903  51.248  1.00  0.00     0.224 A 
HETATM   19  N2  UNL     1      22.986   2.894  50.469  1.00  0.00    -0.208 N 
HETATM   20  N3  UNL     1      23.949   2.682  49.609  1.00  0.00    -0.289 N 
HETATM   21  N4  UNL     1      22.567   4.153  51.020  1.00  0.00    -0.119 NA
HETATM   22  C16 UNL     1      21.710   4.602  51.852  1.00  0.00     0.116 A 
HETATM   23  N5  UNL     1      22.059   5.946  51.816  1.00  0.00    -0.345 N 
HETATM   24  H11 UNL     1      24.521   0.131  53.877  1.00  0.00     0.316 HD
HETATM   25  H18 UNL     1      23.845   2.331  48.646  1.00  0.00     0.188 HD
HETATM   26  H19 UNL     1      21.403   5.953  52.671  1.00  0.00     0.167 HD
ENDROOT
TORSDOF 0
ENDMDL
MODEL 8
REMARK VINA RESULT:      -7.3      3.717      5.671
REMARK  0 active torsions:
REMARK  status: ('A' for Active; 'I' for Inactive)
ROOT
HETATM    1  C1  UNL     1      19.472   5.737  48.026  1.00  0.00     0.038 C 
HETATM    2  C2  UNL     1      20.606   4.943  48.482  1.00  0.00    -0.002 C 
HETATM    3  C3  UNL     1      21.640   4.271  48.772  1.00  0.00     0.030 C 
HETATM    4  C4  UNL     1      22.802   3.483  49.175  1.00  0.00     0.049 C 
HETATM    5  C5  UNL     1      22.784   3.049  50.428  1.00  0.00     0.019 C 
HETATM    6 CL1  UNL     1      21.634   3.213  51.711  1.00  0.00    -0.088 Cl
HETATM    7  C6  UNL     1      24.171   2.514  50.710  1.00  0.00     0.109 C 
HETATM    8  C7  UNL     1      25.149   3.661  50.453  1.00  0.00     0.030 C 
HETATM    9  C8  UNL     1      26.212   3.394  49.603  1.00  0.00     0.029 C 
HETATM   10  C9  UNL     1      27.260   4.238  49.180  1.00  0.00     0.299 C 
HETATM   11  N1  UNL     1      28.282   5.063  48.755  1.00  0.00     0.086 NA
HETATM   12  C10 UNL     1      27.609   6.303  48.519  1.00  0.00     0.272 C 
HETATM   13  C11 UNL     1      27.740   7.609  48.053  1.00  0.00     0.054 C 
HETATM   14  C12 UNL     1      26.356   8.222  48.411  1.00  0.00     0.107 C 
HETATM   15 CL2  UNL     1      26.057   8.081  50.151  1.00  0.00    -0.121 Cl
HETATM   16  C13 UNL     1      25.208   7.813  47.619  1.00  0.00     0.008 C 
HETATM   17  C14 UNL     1      24.253   6.937  47.687  1.00  0.00     0.032 A 
HETATM   18  C15 UNL     1      24.652   6.364  48.962  1.00  0.00     0.224 A 
HETATM   19  N2  UNL     1      24.681   5.645  49.939  1.00  0.00    -0.208 N 
HETATM   20  N3  UNL     1      24.873   4.985  51.052  1.00  0.00    -0.289 N 
HETATM   21  N4  UNL     1      23.619   5.466  48.987  1.00  0.00    -0.119 NA
HETATM   22  C16 UNL     1      23.240   5.945  47.867  1.00  0.00     0.116 A 
HETATM   23  N5  UNL     1      22.138   5.128  47.647  1.00  0.00    -0.345 N 
HETATM   24  H11 UNL     1      28.763   4.730  47.912  1.00  0.00     0.316 HD
HETATM   25  H18 UNL     1      24.827   5.367  52.007  1.00  0.00     0.188 HD
HETATM   26  H19 UNL     1      22.221   5.586  46.674  1.00  0.00     0.167 HD
ENDROOT
TORSDOF 0
ENDMDL
MODEL 9
REMARK VINA RESULT:      -7.3      2.928      3.769
REMARK  0 active torsions:
REMARK  status: ('A' for Active; 'I' for Inactive)
ROOT
HETATM    1  C1  UNL     1      22.301  -1.279  54.971  1.00  0.00     0.038 C 
HETATM    2  C2  UNL     1      22.914  -0.456  53.936  1.00  0.00    -0.002 C 
HETATM    3  C3  UNL     1      23.392   0.192  52.958  1.00  0.00     0.030 C 
HETATM    4  C4  UNL     1      23.980   0.983  51.879  1.00  0.00     0.049 C 
HETATM    5  C5  UNL     1      24.719   2.012  52.271  1.00  0.00     0.019 C 
HETATM    6 CL1  UNL     1      25.155   2.618  53.832  1.00  0.00    -0.088 Cl
HETATM    7  C6  UNL     1      24.987   2.836  51.031  1.00  0.00     0.109 C 
HETATM    8  C7  UNL     1      23.625   3.220  50.451  1.00  0.00     0.030 C 
HETATM    9  C8  UNL     1      23.418   2.939  49.110  1.00  0.00     0.029 C 
HETATM   10  C9  UNL     1      22.282   3.171  48.306  1.00  0.00     0.299 C 
HETATM   11  N1  UNL     1      21.169   3.387  47.518  1.00  0.00     0.086 NA
HETATM   12  C10 UNL     1      20.091   3.030  48.390  1.00  0.00     0.272 C 
HETATM   13  C11 UNL     1      18.714   2.858  48.500  1.00  0.00     0.054 C 
HETATM   14  C12 UNL     1      18.539   2.605  50.025  1.00  0.00     0.107 C 
HETATM   15 CL2  UNL     1      19.192   3.967  50.949  1.00  0.00    -0.121 Cl
HETATM   16  C13 UNL     1      18.971   1.321  50.553  1.00  0.00     0.008 C 
HETATM   17  C14 UNL     1      20.024   0.819  51.121  1.00  0.00     0.032 A 
HETATM   18  C15 UNL     1      20.806   2.044  51.121  1.00  0.00     0.224 A 
HETATM   19  N2  UNL     1      21.731   2.815  51.269  1.00  0.00    -0.208 N 
HETATM   20  N3  UNL     1      22.599   3.791  51.351  1.00  0.00    -0.289 N 
HETATM   21  N4  UNL     1      21.886   1.463  51.731  1.00  0.00    -0.119 NA
HETATM   22  C16 UNL     1      21.228   0.371  51.748  1.00  0.00     0.116 A 
HETATM   23  N5  UNL     1      22.182  -0.445  52.342  1.00  0.00    -0.345 N 
HETATM   24  H11 UNL     1      21.155   2.831  46.656  1.00  0.00     0.316 HD
HETATM   25  H18 UNL     1      22.500   4.655  51.903  1.00  0.00     0.188 HD
HETATM   26  H19 UNL     1      21.479  -1.196  52.018  1.00  0.00     0.167 HD
ENDROOT
TORSDOF 0
ENDMDL
