MODEL 1
REMARK VINA RESULT:      -7.8      0.000      0.000
REMARK  5 active torsions:
REMARK  status: ('A' for Active; 'I' for Inactive)
REMARK    1  A    between atoms: O1_2  and  C2_3 
REMARK    2  A    between atoms: C2_3  and  C3_4 
REMARK    3  A    between atoms: C5_7  and  C6_8 
REMARK    4  A    between atoms: C6_8  and  O2_9 
REMARK    5  A    between atoms: O2_9  and  C7_10 
ROOT
HETATM    1  C6  UNL     1      24.173   2.213  51.920  1.00  0.00     0.097 C 
HETATM    2  C12 UNL     1      23.845   3.245  51.130  1.00  0.00     0.081 C 
HETATM    3  N2  UNL     1      24.691   4.383  51.231  1.00  0.00    -0.364 N 
HETATM    4  C13 UNL     1      24.896   5.417  50.284  1.00  0.00     0.088 C 
HETATM    5  C14 UNL     1      24.374   5.523  49.065  1.00  0.00     0.017 C 
HETATM    6  C15 UNL     1      23.462   4.614  48.386  1.00  0.00     0.007 C 
HETATM    7  C16 UNL     1      22.783   3.629  48.913  1.00  0.00    -0.044 C 
HETATM    8  C17 UNL     1      21.954   2.923  47.891  1.00  0.00     0.046 C 
HETATM    9  C18 UNL     1      22.683   3.105  50.265  1.00  0.00     0.251 C 
HETATM   10  F1  UNL     1      21.544   3.568  50.936  1.00  0.00    -0.238 F 
HETATM   11  H17 UNL     1      25.239   4.469  52.134  1.00  0.00     0.165 HD
ENDROOT
BRANCH   1  12
HETATM   12  C5  UNL     1      25.309   2.272  52.805  1.00  0.00     0.075 C 
HETATM   13  C2  UNL     1      26.374   1.578  53.169  1.00  0.00     0.071 C 
BRANCH  13  14
HETATM   14  O1  UNL     1      27.319   1.986  54.128  1.00  0.00    -0.356 OA
HETATM   15  C1  UNL     1      28.618   2.401  53.688  1.00  0.00     0.210 C 
ENDBRANCH  13  14
BRANCH  13  16
HETATM   16  C3  UNL     1      26.744   0.271  52.638  1.00  0.00     0.048 C 
HETATM   17  C4  UNL     1      26.492  -0.955  53.103  1.00  0.00     0.087 C 
HETATM   18 CL1  UNL     1      27.026  -2.403  52.318  1.00  0.00    -0.097 Cl
ENDBRANCH  13  16
ENDBRANCH   1  12
BRANCH   1  19
HETATM   19  O2  UNL     1      23.363   1.072  51.848  1.00  0.00    -0.344 OA
BRANCH  19  20
HETATM   20  C7  UNL     1      22.657   0.713  53.011  1.00  0.00     0.132 C 
HETATM   21  C8  UNL     1      21.167   0.810  52.772  1.00  0.00     0.062 C 
HETATM   22  C9  UNL     1      20.366   0.094  53.811  1.00  0.00     0.272 C 
HETATM   23  N1  UNL     1      21.123  -0.231  54.994  1.00  0.00     0.083 N 
HETATM   24  C10 UNL     1      22.316  -0.968  54.745  1.00  0.00     0.272 C 
HETATM   25  H12 UNL     1      21.200   0.550  55.663  1.00  0.00     0.315 HD
HETATM   26  C11 UNL     1      22.940  -0.729  53.390  1.00  0.00     0.062 C 
ENDBRANCH  19  20
ENDBRANCH   1  19
TORSDOF 5
ENDMDL
MODEL 2
REMARK VINA RESULT:      -7.5      1.595      5.151
REMARK  5 active torsions:
REMARK  status: ('A' for Active; 'I' for Inactive)
REMARK    1  A    between atoms: O1_2  and  C2_3 
REMARK    2  A    between atoms: C2_3  and  C3_4 
REMARK    3  A    between atoms: C5_7  and  C6_8 
REMARK    4  A    between atoms: C6_8  and  O2_9 
REMARK    5  A    between atoms: O2_9  and  C7_10 
ROOT
HETATM    1  C6  UNL     1      23.690   1.841  52.398  1.00  0.00     0.097 C 
HETATM    2  C12 UNL     1      22.841   0.843  52.677  1.00  0.00     0.081 C 
HETATM    3  N2  UNL     1      23.230  -0.007  53.749  1.00  0.00    -0.364 N 
HETATM    4  C13 UNL     1      22.414  -0.837  54.557  1.00  0.00     0.088 C 
HETATM    5  C14 UNL     1      21.091  -0.968  54.519  1.00  0.00     0.017 C 
HETATM    6  C15 UNL     1      20.138  -0.299  53.645  1.00  0.00     0.007 C 
HETATM    7  C16 UNL     1      20.397   0.389  52.565  1.00  0.00    -0.044 C 
HETATM    8  C17 UNL     1      19.150   0.923  51.940  1.00  0.00     0.046 C 
HETATM    9  C18 UNL     1      21.632   0.725  51.875  1.00  0.00     0.251 C 
HETATM   10  F1  UNL     1      21.878  -0.112  50.780  1.00  0.00    -0.238 F 
HETATM   11  H17 UNL     1      24.266  -0.019  53.972  1.00  0.00     0.165 HD
ENDROOT
BRANCH   1  12
HETATM   12  C5  UNL     1      24.909   2.026  53.145  1.00  0.00     0.075 C 
HETATM   13  C2  UNL     1      26.088   1.467  53.354  1.00  0.00     0.071 C 
BRANCH  13  14
HETATM   14  O1  UNL     1      27.085   1.971  54.210  1.00  0.00    -0.356 OA
HETATM   15  C1  UNL     1      28.400   2.195  53.688  1.00  0.00     0.210 C 
ENDBRANCH  13  14
BRANCH  13  16
HETATM   16  C3  UNL     1      26.553   0.232  52.733  1.00  0.00     0.048 C 
HETATM   17  C4  UNL     1      26.522  -1.026  53.179  1.00  0.00     0.087 C 
HETATM   18 CL1  UNL     1      27.132  -2.374  52.280  1.00  0.00    -0.097 Cl
ENDBRANCH  13  16
ENDBRANCH   1  12
BRANCH   1  19
HETATM   19  O2  UNL     1      23.341   2.701  51.348  1.00  0.00    -0.344 OA
BRANCH  19  20
HETATM   20  C7  UNL     1      24.177   3.810  51.122  1.00  0.00     0.132 C 
HETATM   21  C8  UNL     1      24.898   3.666  49.801  1.00  0.00     0.062 C 
HETATM   22  C9  UNL     1      25.494   4.950  49.323  1.00  0.00     0.272 C 
HETATM   23  N1  UNL     1      25.577   5.959  50.349  1.00  0.00     0.083 N 
HETATM   24  C10 UNL     1      24.342   6.241  51.001  1.00  0.00     0.272 C 
HETATM   25  H12 UNL     1      26.403   5.861  50.960  1.00  0.00     0.315 HD
HETATM   26  C11 UNL     1      23.365   5.089  51.034  1.00  0.00     0.062 C 
ENDBRANCH  19  20
ENDBRANCH   1  19
TORSDOF 5
ENDMDL
MODEL 3
REMARK VINA RESULT:      -7.4      2.642      5.145
REMARK  5 active torsions:
REMARK  status: ('A' for Active; 'I' for Inactive)
REMARK    1  A    between atoms: O1_2  and  C2_3 
REMARK    2  A    between atoms: C2_3  and  C3_4 
REMARK    3  A    between atoms: C5_7  and  C6_8 
REMARK    4  A    between atoms: C6_8  and  O2_9 
REMARK    5  A    between atoms: O2_9  and  C7_10 
ROOT
HETATM    1  C6  UNL     1      24.842   1.702  52.353  1.00  0.00     0.097 C 
HETATM    2  C12 UNL     1      26.135   1.357  52.433  1.00  0.00     0.081 C 
HETATM    3  N2  UNL     1      27.037   2.427  52.681  1.00  0.00    -0.364 N 
HETATM    4  C13 UNL     1      28.340   2.372  53.235  1.00  0.00     0.088 C 
HETATM    5  C14 UNL     1      28.989   1.305  53.692  1.00  0.00     0.017 C 
HETATM    6  C15 UNL     1      28.537  -0.078  53.744  1.00  0.00     0.007 C 
HETATM    7  C16 UNL     1      27.501  -0.599  53.142  1.00  0.00    -0.044 C 
HETATM    8  C17 UNL     1      27.365  -2.056  53.440  1.00  0.00     0.046 C 
HETATM    9  C18 UNL     1      26.483  -0.046  52.263  1.00  0.00     0.251 C 
HETATM   10  F1  UNL     1      26.748  -0.300  50.911  1.00  0.00    -0.238 F 
HETATM   11  H17 UNL     1      26.688   3.393  52.416  1.00  0.00     0.165 HD
ENDROOT
BRANCH   1  12
HETATM   12  C5  UNL     1      24.415   3.069  52.510  1.00  0.00     0.075 C 
HETATM   13  C2  UNL     1      23.719   4.012  51.899  1.00  0.00     0.071 C 
BRANCH  13  14
HETATM   14  O1  UNL     1      23.505   5.312  52.393  1.00  0.00    -0.356 OA
HETATM   15  C1  UNL     1      23.908   6.433  51.597  1.00  0.00     0.210 C 
ENDBRANCH  13  14
BRANCH  13  16
HETATM   16  C3  UNL     1      23.055   3.861  50.610  1.00  0.00     0.048 C 
HETATM   17  C4  UNL     1      23.518   3.394  49.448  1.00  0.00     0.087 C 
HETATM   18 CL1  UNL     1      22.561   3.293  48.008  1.00  0.00    -0.097 Cl
ENDBRANCH  13  16
ENDBRANCH   1  12
BRANCH   1  19
HETATM   19  O2  UNL     1      23.922   0.674  52.110  1.00  0.00    -0.344 OA
BRANCH  19  20
HETATM   20  C7  UNL     1      22.886   0.506  53.048  1.00  0.00     0.132 C 
HETATM   21  C8  UNL     1      21.544   0.486  52.353  1.00  0.00     0.062 C 
HETATM   22  C9  UNL     1      20.453  -0.060  53.214  1.00  0.00     0.272 C 
HETATM   23  N1  UNL     1      20.803  -0.121  54.612  1.00  0.00     0.083 N 
HETATM   24  C10 UNL     1      22.005  -0.833  54.887  1.00  0.00     0.272 C 
HETATM   25  H12 UNL     1      20.679   0.775  55.108  1.00  0.00     0.315 HD
HETATM   26  C11 UNL     1      23.020  -0.824  53.767  1.00  0.00     0.062 C 
ENDBRANCH  19  20
ENDBRANCH   1  19
TORSDOF 5
ENDMDL
MODEL 4
REMARK VINA RESULT:      -7.3      3.323      5.232
REMARK  5 active torsions:
REMARK  status: ('A' for Active; 'I' for Inactive)
REMARK    1  A    between atoms: O1_2  and  C2_3 
REMARK    2  A    between atoms: C2_3  and  C3_4 
REMARK    3  A    between atoms: C5_7  and  C6_8 
REMARK    4  A    between atoms: C6_8  and  O2_9 
REMARK    5  A    between atoms: O2_9  and  C7_10 
ROOT
HETATM    1  C6  UNL     1      25.093   2.929  50.731  1.00  0.00     0.097 C 
HETATM    2  C12 UNL     1      23.846   2.700  50.297  1.00  0.00     0.081 C 
HETATM    3  N2  UNL     1      23.606   3.023  48.934  1.00  0.00    -0.364 N 
HETATM    4  C13 UNL     1      22.595   2.527  48.074  1.00  0.00     0.088 C 
HETATM    5  C14 UNL     1      21.672   1.607  48.344  1.00  0.00     0.017 C 
HETATM    6  C15 UNL     1      21.458   0.874  49.584  1.00  0.00     0.007 C 
HETATM    7  C16 UNL     1      21.971   1.130  50.758  1.00  0.00    -0.044 C 
HETATM    8  C17 UNL     1      21.512   0.149  51.785  1.00  0.00     0.046 C 
HETATM    9  C18 UNL     1      22.880   2.158  51.241  1.00  0.00     0.251 C 
HETATM   10  F1  UNL     1      22.208   3.209  51.877  1.00  0.00    -0.238 F 
HETATM   11  H17 UNL     1      24.272   3.728  48.504  1.00  0.00     0.165 HD
ENDROOT
BRANCH   1  12
HETATM   12  C5  UNL     1      26.109   3.465  49.860  1.00  0.00     0.075 C 
HETATM   13  C2  UNL     1      26.483   4.591  49.277  1.00  0.00     0.071 C 
BRANCH  13  14
HETATM   14  O1  UNL     1      27.604   4.738  48.441  1.00  0.00    -0.356 OA
HETATM   15  C1  UNL     1      28.203   6.033  48.304  1.00  0.00     0.210 C 
ENDBRANCH  13  14
BRANCH  13  16
HETATM   16  C3  UNL     1      25.793   5.870  49.405  1.00  0.00     0.048 C 
HETATM   17  C4  UNL     1      25.168   6.414  50.451  1.00  0.00     0.087 C 
HETATM   18 CL1  UNL     1      24.399   7.965  50.404  1.00  0.00    -0.097 Cl
ENDBRANCH  13  16
ENDBRANCH   1  12
BRANCH   1  19
HETATM   19  O2  UNL     1      25.369   2.622  52.070  1.00  0.00    -0.344 OA
BRANCH  19  20
HETATM   20  C7  UNL     1      26.380   1.674  52.316  1.00  0.00     0.132 C 
HETATM   21  C8  UNL     1      27.117   2.011  53.592  1.00  0.00     0.062 C 
HETATM   22  C9  UNL     1      27.929   0.869  54.111  1.00  0.00     0.272 C 
HETATM   23  N1  UNL     1      28.134  -0.176  53.138  1.00  0.00     0.083 N 
HETATM   24  C10 UNL     1      26.936  -0.688  52.562  1.00  0.00     0.272 C 
HETATM   25  H12 UNL     1      28.910   0.014  52.485  1.00  0.00     0.315 HD
HETATM   26  C11 UNL     1      25.787   0.291  52.512  1.00  0.00     0.062 C 
ENDBRANCH  19  20
ENDBRANCH   1  19
TORSDOF 5
ENDMDL
MODEL 5
REMARK VINA RESULT:      -6.9      2.697      4.974
REMARK  5 active torsions:
REMARK  status: ('A' for Active; 'I' for Inactive)
REMARK    1  A    between atoms: O1_2  and  C2_3 
REMARK    2  A    between atoms: C2_3  and  C3_4 
REMARK    3  A    between atoms: C5_7  and  C6_8 
REMARK    4  A    between atoms: C6_8  and  O2_9 
REMARK    5  A    between atoms: O2_9  and  C7_10 
ROOT
HETATM    1  C6  UNL     1      23.869   1.770  51.955  1.00  0.00     0.097 C 
HETATM    2  C12 UNL     1      23.510   2.903  51.336  1.00  0.00     0.081 C 
HETATM    3  N2  UNL     1      22.306   3.498  51.804  1.00  0.00    -0.364 N 
HETATM    4  C13 UNL     1      21.888   4.847  51.693  1.00  0.00     0.088 C 
HETATM    5  C14 UNL     1      22.557   5.869  51.164  1.00  0.00     0.017 C 
HETATM    6  C15 UNL     1      23.884   5.872  50.566  1.00  0.00     0.007 C 
HETATM    7  C16 UNL     1      24.598   4.837  50.210  1.00  0.00    -0.044 C 
HETATM    8  C17 UNL     1      25.911   5.247  49.630  1.00  0.00     0.046 C 
HETATM    9  C18 UNL     1      24.364   3.403  50.269  1.00  0.00     0.251 C 
HETATM   10  F1  UNL     1      23.934   2.880  49.043  1.00  0.00    -0.238 F 
HETATM   11  H17 UNL     1      21.634   2.845  52.301  1.00  0.00     0.165 HD
ENDROOT
BRANCH   1  12
HETATM   12  C5  UNL     1      23.078   1.209  53.021  1.00  0.00     0.075 C 
HETATM   13  C2  UNL     1      21.925   0.602  53.244  1.00  0.00     0.071 C 
BRANCH  13  14
HETATM   14  O1  UNL     1      21.463   0.174  54.502  1.00  0.00    -0.356 OA
HETATM   15  C1  UNL     1      21.785  -1.150  54.947  1.00  0.00     0.210 C 
ENDBRANCH  13  14
BRANCH  13  16
HETATM   16  C3  UNL     1      20.939   0.274  52.221  1.00  0.00     0.048 C 
HETATM   17  C4  UNL     1      19.751   0.824  51.956  1.00  0.00     0.087 C 
HETATM   18 CL1  UNL     1      18.712   0.286  50.680  1.00  0.00    -0.097 Cl
ENDBRANCH  13  16
ENDBRANCH   1  12
BRANCH   1  19
HETATM   19  O2  UNL     1      25.051   1.154  51.523  1.00  0.00    -0.344 OA
BRANCH  19  20
HETATM   20  C7  UNL     1      26.071   0.983  52.477  1.00  0.00     0.132 C 
HETATM   21  C8  UNL     1      26.693  -0.388  52.341  1.00  0.00     0.062 C 
HETATM   22  C9  UNL     1      28.006  -0.501  53.045  1.00  0.00     0.272 C 
HETATM   23  N1  UNL     1      28.245   0.565  53.986  1.00  0.00     0.083 N 
HETATM   24  C10 UNL     1      28.130   1.873  53.435  1.00  0.00     0.272 C 
HETATM   25  H12 UNL     1      27.797   0.415  54.903  1.00  0.00     0.315 HD
HETATM   26  C11 UNL     1      27.188   1.987  52.259  1.00  0.00     0.062 C 
ENDBRANCH  19  20
ENDBRANCH   1  19
TORSDOF 5
ENDMDL
MODEL 6
REMARK VINA RESULT:      -6.6      2.130      2.300
REMARK  5 active torsions:
REMARK  status: ('A' for Active; 'I' for Inactive)
REMARK    1  A    between atoms: O1_2  and  C2_3 
REMARK    2  A    between atoms: C2_3  and  C3_4 
REMARK    3  A    between atoms: C5_7  and  C6_8 
REMARK    4  A    between atoms: C6_8  and  O2_9 
REMARK    5  A    between atoms: O2_9  and  C7_10 
ROOT
HETATM    1  C6  UNL     1      23.313   2.391  52.294  1.00  0.00     0.097 C 
HETATM    2  C12 UNL     1      22.862   3.623  52.020  1.00  0.00     0.081 C 
HETATM    3  N2  UNL     1      23.717   4.688  52.416  1.00  0.00    -0.364 N 
HETATM    4  C13 UNL     1      23.766   6.013  51.918  1.00  0.00     0.088 C 
HETATM    5  C14 UNL     1      23.048   6.541  50.930  1.00  0.00     0.017 C 
HETATM    6  C15 UNL     1      22.032   5.902  50.106  1.00  0.00     0.007 C 
HETATM    7  C16 UNL     1      21.446   4.753  50.314  1.00  0.00    -0.044 C 
HETATM    8  C17 UNL     1      20.455   4.438  49.243  1.00  0.00     0.046 C 
HETATM    9  C18 UNL     1      21.571   3.751  51.361  1.00  0.00     0.251 C 
HETATM   10  F1  UNL     1      20.562   3.858  52.327  1.00  0.00    -0.238 F 
HETATM   11  H17 UNL     1      24.410   4.458  53.186  1.00  0.00     0.165 HD
ENDROOT
BRANCH   1  12
HETATM   12  C5  UNL     1      24.581   2.180  52.945  1.00  0.00     0.075 C 
HETATM   13  C2  UNL     1      25.881   2.190  52.705  1.00  0.00     0.071 C 
BRANCH  13  14
HETATM   14  O1  UNL     1      26.883   1.915  53.654  1.00  0.00    -0.356 OA
HETATM   15  C1  UNL     1      28.234   2.297  53.368  1.00  0.00     0.210 C 
ENDBRANCH  13  14
BRANCH  13  16
HETATM   16  C3  UNL     1      26.494   2.488  51.416  1.00  0.00     0.048 C 
HETATM   17  C4  UNL     1      26.233   3.460  50.538  1.00  0.00     0.087 C 
HETATM   18 CL1  UNL     1      27.082   3.649  49.041  1.00  0.00    -0.097 Cl
ENDBRANCH  13  16
ENDBRANCH   1  12
BRANCH   1  19
HETATM   19  O2  UNL     1      22.498   1.316  51.918  1.00  0.00    -0.344 OA
BRANCH  19  20
HETATM   20  C7  UNL     1      21.894   0.576  52.952  1.00  0.00     0.132 C 
HETATM   21  C8  UNL     1      20.412   0.428  52.697  1.00  0.00     0.062 C 
HETATM   22  C9  UNL     1      19.785  -0.643  53.529  1.00  0.00     0.272 C 
HETATM   23  N1  UNL     1      20.609  -1.066  54.634  1.00  0.00     0.083 N 
HETATM   24  C10 UNL     1      21.922  -1.479  54.266  1.00  0.00     0.272 C 
HETATM   25  H12 UNL     1      20.539  -0.452  55.460  1.00  0.00     0.315 HD
HETATM   26  C11 UNL     1      22.465  -0.828  53.015  1.00  0.00     0.062 C 
ENDBRANCH  19  20
ENDBRANCH   1  19
TORSDOF 5
ENDMDL
MODEL 7
REMARK VINA RESULT:      -6.5      2.889      5.379
REMARK  5 active torsions:
REMARK  status: ('A' for Active; 'I' for Inactive)
REMARK    1  A    between atoms: O1_2  and  C2_3 
REMARK    2  A    between atoms: C2_3  and  C3_4 
REMARK    3  A    between atoms: C5_7  and  C6_8 
REMARK    4  A    between atoms: C6_8  and  O2_9 
REMARK    5  A    between atoms: O2_9  and  C7_10 
ROOT
HETATM    1  C6  UNL     1      24.030   2.364  52.668  1.00  0.00     0.097 C 
HETATM    2  C12 UNL     1      25.146   1.665  52.914  1.00  0.00     0.081 C 
HETATM    3  N2  UNL     1      26.354   2.269  52.469  1.00  0.00    -0.364 N 
HETATM    4  C13 UNL     1      27.675   2.041  52.927  1.00  0.00     0.088 C 
HETATM    5  C14 UNL     1      28.071   1.240  53.914  1.00  0.00     0.017 C 
HETATM    6  C15 UNL     1      27.259   0.394  54.776  1.00  0.00     0.007 C 
HETATM    7  C16 UNL     1      26.006   0.064  54.613  1.00  0.00    -0.044 C 
HETATM    8  C17 UNL     1      25.523  -0.823  55.713  1.00  0.00     0.046 C 
HETATM    9  C18 UNL     1      25.019   0.385  53.595  1.00  0.00     0.251 C 
HETATM   10  F1  UNL     1      24.877  -0.636  52.647  1.00  0.00    -0.238 F 
HETATM   11  H17 UNL     1      26.251   2.984  51.693  1.00  0.00     0.165 HD
ENDROOT
BRANCH   1  12
HETATM   12  C5  UNL     1      24.071   3.640  51.998  1.00  0.00     0.075 C 
HETATM   13  C2  UNL     1      23.976   4.180  50.795  1.00  0.00     0.071 C 
BRANCH  13  14
HETATM   14  O1  UNL     1      24.073   5.555  50.513  1.00  0.00    -0.356 OA
HETATM   15  C1  UNL     1      25.331   6.089  50.084  1.00  0.00     0.210 C 
ENDBRANCH  13  14
BRANCH  13  16
HETATM   16  C3  UNL     1      23.755   3.439  49.559  1.00  0.00     0.048 C 
HETATM   17  C4  UNL     1      22.621   3.129  48.926  1.00  0.00     0.087 C 
HETATM   18 CL1  UNL     1      22.566   2.228  47.448  1.00  0.00    -0.097 Cl
ENDBRANCH  13  16
ENDBRANCH   1  12
BRANCH   1  19
HETATM   19  O2  UNL     1      22.819   1.802  53.092  1.00  0.00    -0.344 OA
BRANCH  19  20
HETATM   20  C7  UNL     1      21.771   1.754  52.154  1.00  0.00     0.132 C 
HETATM   21  C8  UNL     1      21.214   0.352  52.058  1.00  0.00     0.062 C 
HETATM   22  C9  UNL     1      19.881   0.302  51.385  1.00  0.00     0.272 C 
HETATM   23  N1  UNL     1      19.560   1.506  50.660  1.00  0.00     0.083 N 
HETATM   24  C10 UNL     1      19.640   2.699  51.435  1.00  0.00     0.272 C 
HETATM   25  H12 UNL     1      19.979   1.545  49.718  1.00  0.00     0.315 HD
HETATM   26  C11 UNL     1      20.621   2.647  52.582  1.00  0.00     0.062 C 
ENDBRANCH  19  20
ENDBRANCH   1  19
TORSDOF 5
ENDMDL
MODEL 8
REMARK VINA RESULT:      -6.4      3.093      5.112
REMARK  5 active torsions:
REMARK  status: ('A' for Active; 'I' for Inactive)
REMARK    1  A    between atoms: O1_2  and  C2_3 
REMARK    2  A    between atoms: C2_3  and  C3_4 
REMARK    3  A    between atoms: C5_7  and  C6_8 
REMARK    4  A    between atoms: C6_8  and  O2_9 
REMARK    5  A    between atoms: O2_9  and  C7_10 
ROOT
HETATM    1  C6  UNL     1      24.232   1.921  51.854  1.00  0.00     0.097 C 
HETATM    2  C12 UNL     1      22.986   2.133  52.300  1.00  0.00     0.081 C 
HETATM    3  N2  UNL     1      22.511   3.467  52.171  1.00  0.00    -0.364 N 
HETATM    4  C13 UNL     1      21.171   3.926  52.129  1.00  0.00     0.088 C 
HETATM    5  C14 UNL     1      20.057   3.198  52.152  1.00  0.00     0.017 C 
HETATM    6  C15 UNL     1      19.921   1.751  52.227  1.00  0.00     0.007 C 
HETATM    7  C16 UNL     1      20.848   0.879  52.522  1.00  0.00    -0.044 C 
HETATM    8  C17 UNL     1      20.320  -0.517  52.496  1.00  0.00     0.046 C 
HETATM    9  C18 UNL     1      22.257   1.005  52.861  1.00  0.00     0.251 C 
HETATM   10  F1  UNL     1      22.482   0.944  54.242  1.00  0.00    -0.238 F 
HETATM   11  H17 UNL     1      23.258   4.216  52.098  1.00  0.00     0.165 HD
ENDROOT
BRANCH   1  12
HETATM   12  C5  UNL     1      25.020   2.986  51.285  1.00  0.00     0.075 C 
HETATM   13  C2  UNL     1      25.093   3.763  50.218  1.00  0.00     0.071 C 
BRANCH  13  14
HETATM   14  O1  UNL     1      26.067   4.754  50.001  1.00  0.00    -0.356 OA
HETATM   15  C1  UNL     1      27.097   4.515  49.033  1.00  0.00     0.210 C 
ENDBRANCH  13  14
BRANCH  13  16
HETATM   16  C3  UNL     1      24.173   3.721  49.087  1.00  0.00     0.048 C 
HETATM   17  C4  UNL     1      23.335   4.649  48.618  1.00  0.00     0.087 C 
HETATM   18 CL1  UNL     1      22.311   4.406  47.244  1.00  0.00    -0.097 Cl
ENDBRANCH  13  16
ENDBRANCH   1  12
BRANCH   1  19
HETATM   19  O2  UNL     1      24.736   0.619  51.963  1.00  0.00    -0.344 OA
BRANCH  19  20
HETATM   20  C7  UNL     1      25.971   0.462  52.620  1.00  0.00     0.132 C 
HETATM   21  C8  UNL     1      25.814   0.711  54.102  1.00  0.00     0.062 C 
HETATM   22  C9  UNL     1      26.969   0.201  54.901  1.00  0.00     0.272 C 
HETATM   23  N1  UNL     1      28.132  -0.094  54.102  1.00  0.00     0.083 N 
HETATM   24  C10 UNL     1      27.892  -0.987  53.018  1.00  0.00     0.272 C 
HETATM   25  H12 UNL     1      28.709   0.736  53.890  1.00  0.00     0.315 HD
HETATM   26  C11 UNL     1      26.484  -0.959  52.472  1.00  0.00     0.062 C 
ENDBRANCH  19  20
ENDBRANCH   1  19
TORSDOF 5
ENDMDL
MODEL 9
REMARK VINA RESULT:      -6.4      3.001      6.286
REMARK  5 active torsions:
REMARK  status: ('A' for Active; 'I' for Inactive)
REMARK    1  A    between atoms: O1_2  and  C2_3 
REMARK    2  A    between atoms: C2_3  and  C3_4 
REMARK    3  A    between atoms: C5_7  and  C6_8 
REMARK    4  A    between atoms: C6_8  and  O2_9 
REMARK    5  A    between atoms: O2_9  and  C7_10 
ROOT
HETATM    1  C6  UNL     1      22.075   1.984  50.799  1.00  0.00     0.097 C 
HETATM    2  C12 UNL     1      20.959   1.546  51.398  1.00  0.00     0.081 C 
HETATM    3  N2  UNL     1      19.906   1.165  50.522  1.00  0.00    -0.364 N 
HETATM    4  C13 UNL     1      18.820   0.291  50.776  1.00  0.00     0.088 C 
HETATM    5  C14 UNL     1      18.573  -0.405  51.883  1.00  0.00     0.017 C 
HETATM    6  C15 UNL     1      19.346  -0.454  53.115  1.00  0.00     0.007 C 
HETATM    7  C16 UNL     1      20.310   0.349  53.481  1.00  0.00    -0.044 C 
HETATM    8  C17 UNL     1      20.860  -0.024  54.818  1.00  0.00     0.046 C 
HETATM    9  C18 UNL     1      20.932   1.504  52.853  1.00  0.00     0.251 C 
HETATM   10  F1  UNL     1      20.432   2.715  53.346  1.00  0.00    -0.238 F 
HETATM   11  H17 UNL     1      19.940   1.590  49.552  1.00  0.00     0.165 HD
ENDROOT
BRANCH   1  12
HETATM   12  C5  UNL     1      22.182   2.057  49.364  1.00  0.00     0.075 C 
HETATM   13  C2  UNL     1      22.522   2.887  48.392  1.00  0.00     0.071 C 
BRANCH  13  14
HETATM   14  O1  UNL     1      22.497   2.582  47.019  1.00  0.00    -0.356 OA
HETATM   15  C1  UNL     1      21.848   3.489  46.119  1.00  0.00     0.210 C 
ENDBRANCH  13  14
BRANCH  13  16
HETATM   16  C3  UNL     1      22.981   4.258  48.584  1.00  0.00     0.048 C 
HETATM   17  C4  UNL     1      24.192   4.730  48.892  1.00  0.00     0.087 C 
HETATM   18 CL1  UNL     1      24.541   6.415  49.077  1.00  0.00    -0.097 Cl
ENDBRANCH  13  16
ENDBRANCH   1  12
BRANCH   1  19
HETATM   19  O2  UNL     1      23.136   2.369  51.630  1.00  0.00    -0.344 OA
BRANCH  19  20
HETATM   20  C7  UNL     1      24.295   1.572  51.600  1.00  0.00     0.132 C 
HETATM   21  C8  UNL     1      25.516   2.429  51.357  1.00  0.00     0.062 C 
HETATM   22  C9  UNL     1      26.793   1.726  51.687  1.00  0.00     0.272 C 
HETATM   23  N1  UNL     1      26.642   0.298  51.821  1.00  0.00     0.083 N 
HETATM   24  C10 UNL     1      25.642  -0.103  52.753  1.00  0.00     0.272 C 
HETATM   25  H12 UNL     1      26.654  -0.205  50.920  1.00  0.00     0.315 HD
HETATM   26  C11 UNL     1      24.510   0.881  52.934  1.00  0.00     0.062 C 
ENDBRANCH  19  20
ENDBRANCH   1  19
TORSDOF 5
ENDMDL
