MODEL 1
REMARK VINA RESULT:      -6.8      0.000      0.000
REMARK  7 active torsions:
REMARK  status: ('A' for Active; 'I' for Inactive)
REMARK    1  A    between atoms: N1_2  and  C3_4 
REMARK    2  A    between atoms: C3_4  and  C4_5 
REMARK    3  A    between atoms: C4_5  and  N2_6 
REMARK    4  A    between atoms: C5_7  and  C6_8 
REMARK    5  A    between atoms: C7_9  and  C8_10 
REMARK    6  A    between atoms: C11_14  and  N4_15 
REMARK    7  A    between atoms: N4_15  and  C12_16 
ROOT
HETATM    1  C8  UNL     1      20.862   0.375  53.475  1.00  0.00     0.073 A 
HETATM    2  C9  UNL     1      19.737  -0.370  53.056  1.00  0.00     0.147 A 
HETATM    3  N3  UNL     1      18.708   0.070  52.263  1.00  0.00    -0.267 NA
HETATM    4  C10 UNL     1      18.766   1.365  51.830  1.00  0.00     0.166 A 
HETATM    5  C11 UNL     1      19.823   2.117  52.209  1.00  0.00     0.146 A 
HETATM    6  N5  UNL     1      20.801   1.622  52.989  1.00  0.00    -0.229 NA
ENDROOT
BRANCH   1   7
HETATM    7  C7  UNL     1      21.890  -0.321  54.320  1.00  0.00     0.014 C 
HETATM    8  C6  UNL     1      22.940  -0.154  53.570  1.00  0.00     0.137 C 
BRANCH   8   9
HETATM    9  C5  UNL     1      24.240  -0.600  53.859  1.00  0.00     0.155 A 
HETATM   10  N2  UNL     1      25.592  -0.585  53.740  1.00  0.00    -0.045 N 
HETATM   11  H11 UNL     1      25.312  -1.649  53.764  1.00  0.00     0.282 HD
HETATM   12  C18 UNL     1      24.531   0.435  52.971  1.00  0.00     0.399 A 
HETATM   13 BR1  UNL     1      24.289   1.899  51.767  1.00  0.00    -0.167 Br
BRANCH  10  14
HETATM   14  C4  UNL     1      26.991  -0.506  53.617  1.00  0.00     0.267 C 
BRANCH  14  15
HETATM   15  C3  UNL     1      27.654   0.237  54.767  1.00  0.00     0.299 C 
BRANCH  15  16
HETATM   16  N1  UNL     1      28.905   0.855  54.350  1.00  0.00     0.081 N 
HETATM   17  C1  UNL     1      28.635   2.136  53.704  1.00  0.00     0.309 C 
HETATM   18  C2  UNL     1      29.779   0.025  53.599  1.00  0.00     0.309 C 
ENDBRANCH  15  16
ENDBRANCH  14  15
ENDBRANCH  10  14
ENDBRANCH   8   9
ENDBRANCH   1   7
BRANCH   5  19
HETATM   19  N4  UNL     1      20.010   3.456  51.781  1.00  0.00    -0.340 N 
HETATM   20  H16 UNL     1      19.530   4.278  52.170  1.00  0.00     0.167 HD
BRANCH  19  21
HETATM   21  C12 UNL     1      20.948   3.574  50.741  1.00  0.00     0.035 A 
HETATM   22  C13 UNL     1      21.655   4.773  50.957  1.00  0.00     0.029 A 
HETATM   23  C14 UNL     1      22.668   5.155  50.061  1.00  0.00     0.004 A 
HETATM   24  C15 UNL     1      22.953   4.336  48.973  1.00  0.00     0.024 A 
HETATM   25  C16 UNL     1      22.280   3.156  48.734  1.00  0.00     0.036 A 
HETATM   26 CL1  UNL     1      22.584   2.063  47.395  1.00  0.00    -0.084 Cl
HETATM   27  C17 UNL     1      21.300   2.827  49.634  1.00  0.00     0.053 A 
ENDBRANCH  19  21
ENDBRANCH   5  19
TORSDOF 7
ENDMDL
MODEL 2
REMARK VINA RESULT:      -6.8      4.978      7.951
REMARK  7 active torsions:
REMARK  status: ('A' for Active; 'I' for Inactive)
REMARK    1  A    between atoms: N1_2  and  C3_4 
REMARK    2  A    between atoms: C3_4  and  C4_5 
REMARK    3  A    between atoms: C4_5  and  N2_6 
REMARK    4  A    between atoms: C5_7  and  C6_8 
REMARK    5  A    between atoms: C7_9  and  C8_10 
REMARK    6  A    between atoms: C11_14  and  N4_15 
REMARK    7  A    between atoms: N4_15  and  C12_16 
ROOT
HETATM    1  C8  UNL     1      25.793   2.965  50.694  1.00  0.00     0.073 A 
HETATM    2  C9  UNL     1      24.402   3.130  50.881  1.00  0.00     0.147 A 
HETATM    3  N3  UNL     1      23.704   2.958  52.049  1.00  0.00    -0.267 NA
HETATM    4  C10 UNL     1      24.418   2.586  53.153  1.00  0.00     0.166 A 
HETATM    5  C11 UNL     1      25.752   2.413  53.019  1.00  0.00     0.146 A 
HETATM    6  N5  UNL     1      26.377   2.599  51.843  1.00  0.00    -0.229 NA
ENDROOT
BRANCH   1   7
HETATM    7  C7  UNL     1      26.354   3.238  49.328  1.00  0.00     0.014 C 
HETATM    8  C6  UNL     1      26.874   4.412  49.535  1.00  0.00     0.137 C 
BRANCH   8   9
HETATM    9  C5  UNL     1      27.565   5.188  48.590  1.00  0.00     0.155 A 
HETATM   10  N2  UNL     1      27.845   6.335  47.920  1.00  0.00    -0.045 N 
HETATM   11  H11 UNL     1      27.871   5.537  47.161  1.00  0.00     0.282 HD
HETATM   12  C18 UNL     1      26.721   6.159  49.129  1.00  0.00     0.399 A 
HETATM   13 BR1  UNL     1      25.386   6.982  50.221  1.00  0.00    -0.167 Br
BRANCH  10  14
HETATM   14  C4  UNL     1      28.131   7.555  47.280  1.00  0.00     0.267 C 
BRANCH  14  15
HETATM   15  C3  UNL     1      29.621   7.824  47.138  1.00  0.00     0.299 C 
BRANCH  15  16
HETATM   16  N1  UNL     1      30.403   6.958  48.010  1.00  0.00     0.081 N 
HETATM   17  C1  UNL     1      31.018   7.747  49.072  1.00  0.00     0.309 C 
HETATM   18  C2  UNL     1      31.322   6.096  47.353  1.00  0.00     0.309 C 
ENDBRANCH  15  16
ENDBRANCH  14  15
ENDBRANCH  10  14
ENDBRANCH   8   9
ENDBRANCH   1   7
BRANCH   5  19
HETATM   19  N4  UNL     1      26.599   2.074  54.107  1.00  0.00    -0.340 N 
HETATM   20  H16 UNL     1      26.625   2.557  55.013  1.00  0.00     0.167 HD
BRANCH  19  21
HETATM   21  C12 UNL     1      27.431   0.975  53.832  1.00  0.00     0.035 A 
HETATM   22  C13 UNL     1      28.756   1.393  54.063  1.00  0.00     0.029 A 
HETATM   23  C14 UNL     1      29.815   0.491  53.866  1.00  0.00     0.004 A 
HETATM   24  C15 UNL     1      29.530  -0.804  53.445  1.00  0.00     0.024 A 
HETATM   25  C16 UNL     1      28.245  -1.245  53.210  1.00  0.00     0.036 A 
HETATM   26 CL1  UNL     1      27.801  -2.860  52.689  1.00  0.00    -0.084 Cl
HETATM   27  C17 UNL     1      27.246  -0.328  53.415  1.00  0.00     0.053 A 
ENDBRANCH  19  21
ENDBRANCH   5  19
TORSDOF 7
ENDMDL
MODEL 3
REMARK VINA RESULT:      -6.7      2.673      7.280
REMARK  7 active torsions:
REMARK  status: ('A' for Active; 'I' for Inactive)
REMARK    1  A    between atoms: N1_2  and  C3_4 
REMARK    2  A    between atoms: C3_4  and  C4_5 
REMARK    3  A    between atoms: C4_5  and  N2_6 
REMARK    4  A    between atoms: C5_7  and  C6_8 
REMARK    5  A    between atoms: C7_9  and  C8_10 
REMARK    6  A    between atoms: C11_14  and  N4_15 
REMARK    7  A    between atoms: N4_15  and  C12_16 
ROOT
HETATM    1  C8  UNL     1      26.569   2.003  52.020  1.00  0.00     0.073 A 
HETATM    2  C9  UNL     1      27.436   2.132  53.129  1.00  0.00     0.147 A 
HETATM    3  N3  UNL     1      27.422   1.377  54.274  1.00  0.00    -0.267 NA
HETATM    4  C10 UNL     1      26.474   0.398  54.364  1.00  0.00     0.166 A 
HETATM    5  C11 UNL     1      25.621   0.241  53.327  1.00  0.00     0.146 A 
HETATM    6  N5  UNL     1      25.688   1.016  52.230  1.00  0.00    -0.229 NA
ENDROOT
BRANCH   1   7
HETATM    7  C7  UNL     1      26.784   2.921  50.851  1.00  0.00     0.014 C 
HETATM    8  C6  UNL     1      25.547   3.193  50.555  1.00  0.00     0.137 C 
BRANCH   8   9
HETATM    9  C5  UNL     1      25.113   4.037  49.520  1.00  0.00     0.155 A 
HETATM   10  N2  UNL     1      24.323   4.998  48.976  1.00  0.00    -0.045 N 
HETATM   11  H11 UNL     1      24.434   4.232  48.193  1.00  0.00     0.282 HD
HETATM   12  C18 UNL     1      24.252   4.443  50.539  1.00  0.00     0.399 A 
HETATM   13 BR1  UNL     1      23.412   4.553  52.252  1.00  0.00    -0.167 Br
BRANCH  10  14
HETATM   14  C4  UNL     1      23.510   6.027  48.467  1.00  0.00     0.267 C 
BRANCH  14  15
HETATM   15  C3  UNL     1      22.495   5.540  47.445  1.00  0.00     0.299 C 
BRANCH  15  16
HETATM   16  N1  UNL     1      21.976   4.225  47.795  1.00  0.00     0.081 N 
HETATM   17  C1  UNL     1      21.902   3.386  46.602  1.00  0.00     0.309 C 
HETATM   18  C2  UNL     1      20.775   4.221  48.553  1.00  0.00     0.309 C 
ENDBRANCH  15  16
ENDBRANCH  14  15
ENDBRANCH  10  14
ENDBRANCH   8   9
ENDBRANCH   1   7
BRANCH   5  19
HETATM   19  N4  UNL     1      24.628  -0.773  53.291  1.00  0.00    -0.340 N 
HETATM   20  H16 UNL     1      24.808  -1.776  53.158  1.00  0.00     0.167 HD
BRANCH  19  21
HETATM   21  C12 UNL     1      23.326  -0.273  53.463  1.00  0.00     0.035 A 
HETATM   22  C13 UNL     1      22.739  -1.005  54.513  1.00  0.00     0.029 A 
HETATM   23  C14 UNL     1      21.421  -0.719  54.909  1.00  0.00     0.004 A 
HETATM   24  C15 UNL     1      20.721   0.287  54.252  1.00  0.00     0.024 A 
HETATM   25  C16 UNL     1      21.267   1.022  53.221  1.00  0.00     0.036 A 
HETATM   26 CL1  UNL     1      20.458   2.313  52.350  1.00  0.00    -0.084 Cl
HETATM   27  C17 UNL     1      22.554   0.706  52.870  1.00  0.00     0.053 A 
ENDBRANCH  19  21
ENDBRANCH   5  19
TORSDOF 7
ENDMDL
MODEL 4
REMARK VINA RESULT:      -6.7      3.217      7.715
REMARK  7 active torsions:
REMARK  status: ('A' for Active; 'I' for Inactive)
REMARK    1  A    between atoms: N1_2  and  C3_4 
REMARK    2  A    between atoms: C3_4  and  C4_5 
REMARK    3  A    between atoms: C4_5  and  N2_6 
REMARK    4  A    between atoms: C5_7  and  C6_8 
REMARK    5  A    between atoms: C7_9  and  C8_10 
REMARK    6  A    between atoms: C11_14  and  N4_15 
REMARK    7  A    between atoms: N4_15  and  C12_16 
ROOT
HETATM    1  C8  UNL     1      22.449   1.404  50.835  1.00  0.00     0.073 A 
HETATM    2  C9  UNL     1      22.879   2.348  49.874  1.00  0.00     0.147 A 
HETATM    3  N3  UNL     1      23.923   3.228  49.996  1.00  0.00    -0.267 NA
HETATM    4  C10 UNL     1      24.628   3.199  51.166  1.00  0.00     0.166 A 
HETATM    5  C11 UNL     1      24.251   2.314  52.115  1.00  0.00     0.146 A 
HETATM    6  N5  UNL     1      23.215   1.477  51.932  1.00  0.00    -0.229 NA
ENDROOT
BRANCH   1   7
HETATM    7  C7  UNL     1      21.295   0.513  50.476  1.00  0.00     0.014 C 
HETATM    8  C6  UNL     1      20.587   0.624  51.562  1.00  0.00     0.137 C 
BRANCH   8   9
HETATM    9  C5  UNL     1      19.354   0.001  51.810  1.00  0.00     0.155 A 
HETATM   10  N2  UNL     1      18.455  -0.670  52.576  1.00  0.00    -0.045 N 
HETATM   11  H11 UNL     1      18.392  -1.130  51.578  1.00  0.00     0.282 HD
HETATM   12  C18 UNL     1      19.961  -0.162  53.055  1.00  0.00     0.399 A 
HETATM   13 BR1  UNL     1      21.262  -0.070  54.452  1.00  0.00    -0.167 Br
BRANCH  10  14
HETATM   14  C4  UNL     1      17.539  -1.327  53.418  1.00  0.00     0.267 C 
BRANCH  14  15
HETATM   15  C3  UNL     1      17.731  -2.836  53.451  1.00  0.00     0.299 C 
BRANCH  15  16
HETATM   16  N1  UNL     1      16.455  -3.533  53.534  1.00  0.00     0.081 N 
HETATM   17  C1  UNL     1      16.682  -4.968  53.675  1.00  0.00     0.309 C 
HETATM   18  C2  UNL     1      15.516  -3.216  52.517  1.00  0.00     0.309 C 
ENDBRANCH  15  16
ENDBRANCH  14  15
ENDBRANCH  10  14
ENDBRANCH   8   9
ENDBRANCH   1   7
BRANCH   5  19
HETATM   19  N4  UNL     1      24.939   2.165  53.348  1.00  0.00    -0.340 N 
HETATM   20  H16 UNL     1      24.707   2.654  54.221  1.00  0.00     0.167 HD
BRANCH  19  21
HETATM   21  C12 UNL     1      26.005   1.252  53.274  1.00  0.00     0.035 A 
HETATM   22  C13 UNL     1      27.181   1.967  53.573  1.00  0.00     0.029 A 
HETATM   23  C14 UNL     1      28.419   1.302  53.574  1.00  0.00     0.004 A 
HETATM   24  C15 UNL     1      28.457  -0.056  53.277  1.00  0.00     0.024 A 
HETATM   25  C16 UNL     1      27.325  -0.785  52.980  1.00  0.00     0.036 A 
HETATM   26 CL1  UNL     1      27.284  -2.499  52.606  1.00  0.00    -0.084 Cl
HETATM   27  C17 UNL     1      26.141  -0.093  52.991  1.00  0.00     0.053 A 
ENDBRANCH  19  21
ENDBRANCH   5  19
TORSDOF 7
ENDMDL
MODEL 5
REMARK VINA RESULT:      -6.7      5.469      8.577
REMARK  7 active torsions:
REMARK  status: ('A' for Active; 'I' for Inactive)
REMARK    1  A    between atoms: N1_2  and  C3_4 
REMARK    2  A    between atoms: C3_4  and  C4_5 
REMARK    3  A    between atoms: C4_5  and  N2_6 
REMARK    4  A    between atoms: C5_7  and  C6_8 
REMARK    5  A    between atoms: C7_9  and  C8_10 
REMARK    6  A    between atoms: C11_14  and  N4_15 
REMARK    7  A    between atoms: N4_15  and  C12_16 
ROOT
HETATM    1  C8  UNL     1      26.351   3.638  49.890  1.00  0.00     0.073 A 
HETATM    2  C9  UNL     1      25.011   3.374  49.527  1.00  0.00     0.147 A 
HETATM    3  N3  UNL     1      24.048   2.790  50.309  1.00  0.00    -0.267 NA
HETATM    4  C10 UNL     1      24.411   2.417  51.572  1.00  0.00     0.166 A 
HETATM    5  C11 UNL     1      25.685   2.647  51.961  1.00  0.00     0.146 A 
HETATM    6  N5  UNL     1      26.583   3.226  51.144  1.00  0.00    -0.229 NA
ENDROOT
BRANCH   1   7
HETATM    7  C7  UNL     1      27.231   4.319  48.882  1.00  0.00     0.014 C 
HETATM    8  C6  UNL     1      26.702   5.507  48.897  1.00  0.00     0.137 C 
BRANCH   8   9
HETATM    9  C5  UNL     1      27.126   6.609  48.136  1.00  0.00     0.155 A 
HETATM   10  N2  UNL     1      27.132   7.919  47.779  1.00  0.00    -0.045 N 
HETATM   11  H11 UNL     1      27.170   7.357  46.833  1.00  0.00     0.282 HD
HETATM   12  C18 UNL     1      26.230   7.241  48.998  1.00  0.00     0.399 A 
HETATM   13 BR1  UNL     1      24.954   7.504  50.396  1.00  0.00    -0.167 Br
BRANCH  10  14
HETATM   14  C4  UNL     1      27.136   9.292  47.471  1.00  0.00     0.267 C 
BRANCH  14  15
HETATM   15  C3  UNL     1      28.530   9.898  47.451  1.00  0.00     0.299 C 
BRANCH  15  16
HETATM   16  N1  UNL     1      28.955  10.301  48.784  1.00  0.00     0.081 N 
HETATM   17  C1  UNL     1      29.188  11.742  48.817  1.00  0.00     0.309 C 
HETATM   18  C2  UNL     1      30.025   9.551  49.340  1.00  0.00     0.309 C 
ENDBRANCH  15  16
ENDBRANCH  14  15
ENDBRANCH  10  14
ENDBRANCH   8   9
ENDBRANCH   1   7
BRANCH   5  19
HETATM   19  N4  UNL     1      26.160   2.345  53.264  1.00  0.00    -0.340 N 
HETATM   20  H16 UNL     1      25.915   2.858  54.120  1.00  0.00     0.167 HD
BRANCH  19  21
HETATM   21  C12 UNL     1      27.025   1.238  53.290  1.00  0.00     0.035 A 
HETATM   22  C13 UNL     1      28.265   1.695  53.775  1.00  0.00     0.029 A 
HETATM   23  C14 UNL     1      29.336   0.794  53.909  1.00  0.00     0.004 A 
HETATM   24  C15 UNL     1      29.146  -0.538  53.557  1.00  0.00     0.024 A 
HETATM   25  C16 UNL     1      27.945  -1.018  53.079  1.00  0.00     0.036 A 
HETATM   26 CL1  UNL     1      27.620  -2.681  52.623  1.00  0.00    -0.084 Cl
HETATM   27  C17 UNL     1      26.931  -0.101  52.965  1.00  0.00     0.053 A 
ENDBRANCH  19  21
ENDBRANCH   5  19
TORSDOF 7
ENDMDL
MODEL 6
REMARK VINA RESULT:      -6.7      2.792      3.927
REMARK  7 active torsions:
REMARK  status: ('A' for Active; 'I' for Inactive)
REMARK    1  A    between atoms: N1_2  and  C3_4 
REMARK    2  A    between atoms: C3_4  and  C4_5 
REMARK    3  A    between atoms: C4_5  and  N2_6 
REMARK    4  A    between atoms: C5_7  and  C6_8 
REMARK    5  A    between atoms: C7_9  and  C8_10 
REMARK    6  A    between atoms: C11_14  and  N4_15 
REMARK    7  A    between atoms: N4_15  and  C12_16 
ROOT
HETATM    1  C8  UNL     1      22.294   3.372  51.855  1.00  0.00     0.073 A 
HETATM    2  C9  UNL     1      21.345   3.477  50.813  1.00  0.00     0.147 A 
HETATM    3  N3  UNL     1      21.087   4.585  50.046  1.00  0.00    -0.267 NA
HETATM    4  C10 UNL     1      21.815   5.710  50.311  1.00  0.00     0.166 A 
HETATM    5  C11 UNL     1      22.733   5.655  51.302  1.00  0.00     0.146 A 
HETATM    6  N5  UNL     1      22.938   4.536  52.017  1.00  0.00    -0.229 NA
ENDROOT
BRANCH   1   7
HETATM    7  C7  UNL     1      22.434   2.046  52.545  1.00  0.00     0.014 C 
HETATM    8  C6  UNL     1      23.724   1.896  52.474  1.00  0.00     0.137 C 
BRANCH   8   9
HETATM    9  C5  UNL     1      24.458   0.809  52.977  1.00  0.00     0.155 A 
HETATM   10  N2  UNL     1      25.554   0.014  53.073  1.00  0.00    -0.045 N 
HETATM   11  H11 UNL     1      24.693  -0.672  53.081  1.00  0.00     0.282 HD
HETATM   12  C18 UNL     1      25.407   1.365  52.119  1.00  0.00     0.399 A 
HETATM   13 BR1  UNL     1      26.223   2.541  50.853  1.00  0.00    -0.167 Br
BRANCH  10  14
HETATM   14  C4  UNL     1      26.727  -0.758  53.171  1.00  0.00     0.267 C 
BRANCH  14  15
HETATM   15  C3  UNL     1      27.736  -0.192  54.158  1.00  0.00     0.299 C 
BRANCH  15  16
HETATM   16  N1  UNL     1      28.766   0.584  53.480  1.00  0.00     0.081 N 
HETATM   17  C1  UNL     1      30.050  -0.103  53.575  1.00  0.00     0.309 C 
HETATM   18  C2  UNL     1      28.840   1.955  53.845  1.00  0.00     0.309 C 
ENDBRANCH  15  16
ENDBRANCH  14  15
ENDBRANCH  10  14
ENDBRANCH   8   9
ENDBRANCH   1   7
BRANCH   5  19
HETATM   19  N4  UNL     1      23.578   6.747  51.631  1.00  0.00    -0.340 N 
HETATM   20  H16 UNL     1      23.468   7.358  52.450  1.00  0.00     0.167 HD
BRANCH  19  21
HETATM   21  C12 UNL     1      24.623   6.929  50.710  1.00  0.00     0.035 A 
HETATM   22  C13 UNL     1      24.700   8.310  50.441  1.00  0.00     0.029 A 
HETATM   23  C14 UNL     1      25.666   8.791  49.542  1.00  0.00     0.004 A 
HETATM   24  C15 UNL     1      26.532   7.889  48.933  1.00  0.00     0.024 A 
HETATM   25  C16 UNL     1      26.484   6.532  49.175  1.00  0.00     0.036 A 
HETATM   26 CL1  UNL     1      27.544   5.331  48.459  1.00  0.00    -0.084 Cl
HETATM   27  C17 UNL     1      25.524   6.110  50.058  1.00  0.00     0.053 A 
ENDBRANCH  19  21
ENDBRANCH   5  19
TORSDOF 7
ENDMDL
MODEL 7
REMARK VINA RESULT:      -6.6      3.932      6.720
REMARK  7 active torsions:
REMARK  status: ('A' for Active; 'I' for Inactive)
REMARK    1  A    between atoms: N1_2  and  C3_4 
REMARK    2  A    between atoms: C3_4  and  C4_5 
REMARK    3  A    between atoms: C4_5  and  N2_6 
REMARK    4  A    between atoms: C5_7  and  C6_8 
REMARK    5  A    between atoms: C7_9  and  C8_10 
REMARK    6  A    between atoms: C11_14  and  N4_15 
REMARK    7  A    between atoms: N4_15  and  C12_16 
ROOT
HETATM    1  C8  UNL     1      22.853   1.963  52.420  1.00  0.00     0.073 A 
HETATM    2  C9  UNL     1      21.797   1.211  51.857  1.00  0.00     0.147 A 
HETATM    3  N3  UNL     1      21.502  -0.105  52.106  1.00  0.00    -0.267 NA
HETATM    4  C10 UNL     1      22.309  -0.769  52.986  1.00  0.00     0.166 A 
HETATM    5  C11 UNL     1      23.335  -0.090  53.546  1.00  0.00     0.146 A 
HETATM    6  N5  UNL     1      23.570   1.203  53.259  1.00  0.00    -0.229 NA
ENDROOT
BRANCH   1   7
HETATM    7  C7  UNL     1      22.973   3.407  52.028  1.00  0.00     0.014 C 
HETATM    8  C6  UNL     1      23.813   3.298  51.040  1.00  0.00     0.137 C 
BRANCH   8   9
HETATM    9  C5  UNL     1      24.305   4.353  50.255  1.00  0.00     0.155 A 
HETATM   10  N2  UNL     1      25.285   5.071  49.648  1.00  0.00    -0.045 N 
HETATM   11  H11 UNL     1      24.588   5.816  50.063  1.00  0.00     0.282 HD
HETATM   12  C18 UNL     1      25.498   3.689  50.543  1.00  0.00     0.399 A 
HETATM   13 BR1  UNL     1      26.717   2.398  51.249  1.00  0.00    -0.167 Br
BRANCH  10  14
HETATM   14  C4  UNL     1      26.327   5.761  49.003  1.00  0.00     0.267 C 
BRANCH  14  15
HETATM   15  C3  UNL     1      26.123   7.268  48.976  1.00  0.00     0.299 C 
BRANCH  15  16
HETATM   16  N1  UNL     1      27.368   7.979  49.229  1.00  0.00     0.081 N 
HETATM   17  C1  UNL     1      27.136   9.067  50.174  1.00  0.00     0.309 C 
HETATM   18  C2  UNL     1      28.088   8.388  48.074  1.00  0.00     0.309 C 
ENDBRANCH  15  16
ENDBRANCH  14  15
ENDBRANCH  10  14
ENDBRANCH   8   9
ENDBRANCH   1   7
BRANCH   5  19
HETATM   19  N4  UNL     1      24.207  -0.664  54.508  1.00  0.00    -0.340 N 
HETATM   20  H16 UNL     1      23.911  -1.137  55.371  1.00  0.00     0.167 HD
BRANCH  19  21
HETATM   21  C12 UNL     1      25.563  -0.531  54.167  1.00  0.00     0.035 A 
HETATM   22  C13 UNL     1      25.817  -1.439  53.120  1.00  0.00     0.029 A 
HETATM   23  C14 UNL     1      27.107  -1.526  52.571  1.00  0.00     0.004 A 
HETATM   24  C15 UNL     1      28.113  -0.709  53.077  1.00  0.00     0.024 A 
HETATM   25  C16 UNL     1      27.899   0.190  54.100  1.00  0.00     0.036 A 
HETATM   26 CL1  UNL     1      29.107   1.261  54.785  1.00  0.00    -0.084 Cl
HETATM   27  C17 UNL     1      26.624   0.238  54.603  1.00  0.00     0.053 A 
ENDBRANCH  19  21
ENDBRANCH   5  19
TORSDOF 7
ENDMDL
MODEL 8
REMARK VINA RESULT:      -6.6      3.157      7.054
REMARK  7 active torsions:
REMARK  status: ('A' for Active; 'I' for Inactive)
REMARK    1  A    between atoms: N1_2  and  C3_4 
REMARK    2  A    between atoms: C3_4  and  C4_5 
REMARK    3  A    between atoms: C4_5  and  N2_6 
REMARK    4  A    between atoms: C5_7  and  C6_8 
REMARK    5  A    between atoms: C7_9  and  C8_10 
REMARK    6  A    between atoms: C11_14  and  N4_15 
REMARK    7  A    between atoms: N4_15  and  C12_16 
ROOT
HETATM    1  C8  UNL     1      26.576   1.938  52.006  1.00  0.00     0.073 A 
HETATM    2  C9  UNL     1      27.407   2.102  53.137  1.00  0.00     0.147 A 
HETATM    3  N3  UNL     1      27.352   1.388  54.306  1.00  0.00    -0.267 NA
HETATM    4  C10 UNL     1      26.396   0.416  54.400  1.00  0.00     0.166 A 
HETATM    5  C11 UNL     1      25.576   0.227  53.342  1.00  0.00     0.146 A 
HETATM    6  N5  UNL     1      25.683   0.963  52.222  1.00  0.00    -0.229 NA
ENDROOT
BRANCH   1   7
HETATM    7  C7  UNL     1      26.833   2.813  50.813  1.00  0.00     0.014 C 
HETATM    8  C6  UNL     1      25.627   3.246  50.593  1.00  0.00     0.137 C 
BRANCH   8   9
HETATM    9  C5  UNL     1      25.240   4.134  49.576  1.00  0.00     0.155 A 
HETATM   10  N2  UNL     1      24.480   5.123  49.040  1.00  0.00    -0.045 N 
HETATM   11  H11 UNL     1      24.618   4.388  48.232  1.00  0.00     0.282 HD
HETATM   12  C18 UNL     1      24.342   4.506  50.575  1.00  0.00     0.399 A 
HETATM   13 BR1  UNL     1      23.433   4.555  52.256  1.00  0.00    -0.167 Br
BRANCH  10  14
HETATM   14  C4  UNL     1      23.696   6.179  48.541  1.00  0.00     0.267 C 
BRANCH  14  15
HETATM   15  C3  UNL     1      24.384   7.532  48.629  1.00  0.00     0.299 C 
BRANCH  15  16
HETATM   16  N1  UNL     1      25.833   7.392  48.652  1.00  0.00     0.081 N 
HETATM   17  C1  UNL     1      26.373   8.006  49.861  1.00  0.00     0.309 C 
HETATM   18  C2  UNL     1      26.508   7.802  47.471  1.00  0.00     0.309 C 
ENDBRANCH  15  16
ENDBRANCH  14  15
ENDBRANCH  10  14
ENDBRANCH   8   9
ENDBRANCH   1   7
BRANCH   5  19
HETATM   19  N4  UNL     1      24.580  -0.783  53.310  1.00  0.00    -0.340 N 
HETATM   20  H16 UNL     1      24.755  -1.787  53.175  1.00  0.00     0.167 HD
BRANCH  19  21
HETATM   21  C12 UNL     1      23.280  -0.278  53.488  1.00  0.00     0.035 A 
HETATM   22  C13 UNL     1      22.668  -1.059  54.487  1.00  0.00     0.029 A 
HETATM   23  C14 UNL     1      21.348  -0.780  54.878  1.00  0.00     0.004 A 
HETATM   24  C15 UNL     1      20.669   0.268  54.265  1.00  0.00     0.024 A 
HETATM   25  C16 UNL     1      21.239   1.051  53.284  1.00  0.00     0.036 A 
HETATM   26 CL1  UNL     1      20.457   2.395  52.470  1.00  0.00    -0.084 Cl
HETATM   27  C17 UNL     1      22.528   0.740  52.936  1.00  0.00     0.053 A 
ENDBRANCH  19  21
ENDBRANCH   5  19
TORSDOF 7
ENDMDL
MODEL 9
REMARK VINA RESULT:      -6.6      2.784      4.723
REMARK  7 active torsions:
REMARK  status: ('A' for Active; 'I' for Inactive)
REMARK    1  A    between atoms: N1_2  and  C3_4 
REMARK    2  A    between atoms: C3_4  and  C4_5 
REMARK    3  A    between atoms: C4_5  and  N2_6 
REMARK    4  A    between atoms: C5_7  and  C6_8 
REMARK    5  A    between atoms: C7_9  and  C8_10 
REMARK    6  A    between atoms: C11_14  and  N4_15 
REMARK    7  A    between atoms: N4_15  and  C12_16 
ROOT
HETATM    1  C8  UNL     1      21.532   2.053  51.108  1.00  0.00     0.073 A 
HETATM    2  C9  UNL     1      21.160   3.071  52.015  1.00  0.00     0.147 A 
HETATM    3  N3  UNL     1      19.885   3.471  52.323  1.00  0.00    -0.267 NA
HETATM    4  C10 UNL     1      18.860   2.827  51.691  1.00  0.00     0.166 A 
HETATM    5  C11 UNL     1      19.169   1.848  50.812  1.00  0.00     0.146 A 
HETATM    6  N5  UNL     1      20.443   1.503  50.554  1.00  0.00    -0.229 NA
ENDROOT
BRANCH   1   7
HETATM    7  C7  UNL     1      22.995   1.758  50.947  1.00  0.00     0.014 C 
HETATM    8  C6  UNL     1      23.313   1.536  52.188  1.00  0.00     0.137 C 
BRANCH   8   9
HETATM    9  C5  UNL     1      24.588   1.193  52.666  1.00  0.00     0.155 A 
HETATM   10  N2  UNL     1      25.464   0.447  53.388  1.00  0.00    -0.045 N 
HETATM   11  H11 UNL     1      25.785   1.491  53.525  1.00  0.00     0.282 HD
HETATM   12  C18 UNL     1      23.827   0.193  53.271  1.00  0.00     0.399 A 
HETATM   13 BR1  UNL     1      22.320  -0.865  53.782  1.00  0.00    -0.167 Br
BRANCH  10  14
HETATM   14  C4  UNL     1      26.340  -0.377  54.117  1.00  0.00     0.267 C 
BRANCH  14  15
HETATM   15  C3  UNL     1      27.531   0.373  54.694  1.00  0.00     0.299 C 
BRANCH  15  16
HETATM   16  N1  UNL     1      28.409   0.867  53.642  1.00  0.00     0.081 N 
HETATM   17  C1  UNL     1      29.660   0.116  53.647  1.00  0.00     0.309 C 
HETATM   18  C2  UNL     1      28.604   2.274  53.615  1.00  0.00     0.309 C 
ENDBRANCH  15  16
ENDBRANCH  14  15
ENDBRANCH  10  14
ENDBRANCH   8   9
ENDBRANCH   1   7
BRANCH   5  19
HETATM   19  N4  UNL     1      18.186   1.081  50.134  1.00  0.00    -0.340 N 
HETATM   20  H16 UNL     1      17.917   1.196  49.149  1.00  0.00     0.167 HD
BRANCH  19  21
HETATM   21  C12 UNL     1      17.589   0.107  50.953  1.00  0.00     0.035 A 
HETATM   22  C13 UNL     1      16.237   0.018  50.569  1.00  0.00     0.029 A 
HETATM   23  C14 UNL     1      15.385  -0.886  51.225  1.00  0.00     0.004 A 
HETATM   24  C15 UNL     1      15.897  -1.678  52.247  1.00  0.00     0.024 A 
HETATM   25  C16 UNL     1      17.215  -1.616  52.647  1.00  0.00     0.036 A 
HETATM   26 CL1  UNL     1      17.942  -2.585  53.916  1.00  0.00    -0.084 Cl
HETATM   27  C17 UNL     1      18.007  -0.718  51.978  1.00  0.00     0.053 A 
ENDBRANCH  19  21
ENDBRANCH   5  19
TORSDOF 7
ENDMDL
