MODEL 1
REMARK VINA RESULT:      -7.6      0.000      0.000
REMARK  9 active torsions:
REMARK  status: ('A' for Active; 'I' for Inactive)
REMARK    1  A    between atoms: O1_2  and  C2_3 
REMARK    2  A    between atoms: C2_3  and  C3_4 
REMARK    3  A    between atoms: C3_4  and  O2_5 
REMARK    4  A    between atoms: O2_5  and  C4_6 
REMARK    5  A    between atoms: C8_12  and  N3_13 
REMARK    6  A    between atoms: C18_23  and  O3_24 
REMARK    7  A    between atoms: O3_24  and  C19_25 
REMARK    8  A    between atoms: C19_25  and  C20_26 
REMARK    9  A    between atoms: C20_26  and  O4_27 
ROOT
HETATM    1  C4  UNL     1      25.554  -0.202  54.386  1.00  0.00     0.104 A 
HETATM    2  C5  UNL     1      24.530  -0.992  54.853  1.00  0.00     0.072 A 
HETATM    3  C6  UNL     1      23.243  -0.883  54.442  1.00  0.00     0.075 A 
HETATM    4  N1  UNL     1      22.284  -1.682  54.937  1.00  0.00    -0.241 NA
HETATM    5  C7  UNL     1      20.990  -1.561  54.516  1.00  0.00     0.236 A 
HETATM    6  N2  UNL     1      20.690  -0.624  53.594  1.00  0.00    -0.224 NA
HETATM    7  C8  UNL     1      21.629   0.174  53.094  1.00  0.00     0.140 A 
HETATM    8  C16 UNL     1      22.941   0.067  53.506  1.00  0.00     0.041 A 
HETATM    9  C17 UNL     1      23.883   0.910  52.972  1.00  0.00     0.057 A 
HETATM   10  C18 UNL     1      25.175   0.751  53.430  1.00  0.00     0.103 A 
ENDROOT
BRANCH   7  11
HETATM   11  N3  UNL     1      21.161   1.118  52.107  1.00  0.00    -0.358 N 
HETATM   12  C9  UNL     1      20.410   2.288  52.578  1.00  0.00     0.152 C 
HETATM   13  C10 UNL     1      21.170   3.557  52.286  1.00  0.00    -0.007 C 
HETATM   14  C11 UNL     1      21.706   3.918  51.131  1.00  0.00    -0.002 C 
HETATM   15  C12 UNL     1      21.684   3.170  49.878  1.00  0.00     0.004 C 
HETATM   16  C13 UNL     1      21.610   1.850  49.808  1.00  0.00    -0.066 C 
HETATM   17  C14 UNL     1      21.601   1.302  48.426  1.00  0.00     0.045 C 
HETATM   18  C15 UNL     1      21.532   0.722  50.763  1.00  0.00     0.158 C 
ENDBRANCH   7  11
BRANCH  10  19
HETATM   19  O3  UNL     1      26.094   1.646  52.844  1.00  0.00    -0.346 OA
BRANCH  19  20
HETATM   20  C19 UNL     1      26.467   1.566  51.507  1.00  0.00     0.201 C 
BRANCH  20  21
HETATM   21  C20 UNL     1      26.082   2.907  50.873  1.00  0.00     0.193 C 
BRANCH  21  22
HETATM   22  O4  UNL     1      27.159   3.522  50.284  1.00  0.00    -0.394 OA
HETATM   23  C21 UNL     1      26.863   4.296  49.179  1.00  0.00     0.201 C 
ENDBRANCH  21  22
ENDBRANCH  20  21
ENDBRANCH  19  20
ENDBRANCH  10  19
BRANCH   1  24
HETATM   24  O2  UNL     1      26.888  -0.143  54.660  1.00  0.00    -0.346 OA
BRANCH  24  25
HETATM   25  C3  UNL     1      27.992  -0.609  53.993  1.00  0.00     0.201 C 
BRANCH  25  26
HETATM   26  C2  UNL     1      29.269   0.143  54.151  1.00  0.00     0.193 C 
BRANCH  26  27
HETATM   27  O1  UNL     1      28.992   1.319  54.868  1.00  0.00    -0.394 OA
HETATM   28  C1  UNL     1      29.172   2.365  53.941  1.00  0.00     0.201 C 
ENDBRANCH  26  27
ENDBRANCH  25  26
ENDBRANCH  24  25
ENDBRANCH   1  24
TORSDOF 9
ENDMDL
MODEL 2
REMARK VINA RESULT:      -7.3      2.491      4.936
REMARK  9 active torsions:
REMARK  status: ('A' for Active; 'I' for Inactive)
REMARK    1  A    between atoms: O1_2  and  C2_3 
REMARK    2  A    between atoms: C2_3  and  C3_4 
REMARK    3  A    between atoms: C3_4  and  O2_5 
REMARK    4  A    between atoms: O2_5  and  C4_6 
REMARK    5  A    between atoms: C8_12  and  N3_13 
REMARK    6  A    between atoms: C18_23  and  O3_24 
REMARK    7  A    between atoms: O3_24  and  C19_25 
REMARK    8  A    between atoms: C19_25  and  C20_26 
REMARK    9  A    between atoms: C20_26  and  O4_27 
ROOT
HETATM    1  C4  UNL     1      26.060   0.789  52.832  1.00  0.00     0.104 A 
HETATM    2  C5  UNL     1      26.727   1.751  52.110  1.00  0.00     0.072 A 
HETATM    3  C6  UNL     1      26.143   2.525  51.163  1.00  0.00     0.075 A 
HETATM    4  N1  UNL     1      26.847   3.447  50.487  1.00  0.00    -0.241 NA
HETATM    5  C7  UNL     1      26.248   4.220  49.532  1.00  0.00     0.236 A 
HETATM    6  N2  UNL     1      24.936   4.041  49.279  1.00  0.00    -0.224 NA
HETATM    7  C8  UNL     1      24.226   3.132  49.940  1.00  0.00     0.140 A 
HETATM    8  C16 UNL     1      24.812   2.342  50.907  1.00  0.00     0.041 A 
HETATM    9  C17 UNL     1      24.049   1.411  51.567  1.00  0.00     0.057 A 
HETATM   10  C18 UNL     1      24.700   0.654  52.520  1.00  0.00     0.103 A 
ENDROOT
BRANCH   7  11
HETATM   11  N3  UNL     1      22.832   3.063  49.570  1.00  0.00    -0.358 N 
HETATM   12  C9  UNL     1      22.484   2.349  48.336  1.00  0.00     0.152 C 
HETATM   13  C10 UNL     1      21.650   1.132  48.645  1.00  0.00    -0.007 C 
HETATM   14  C11 UNL     1      20.568   1.078  49.406  1.00  0.00    -0.002 C 
HETATM   15  C12 UNL     1      19.937   2.185  50.118  1.00  0.00     0.004 C 
HETATM   16  C13 UNL     1      20.590   3.253  50.549  1.00  0.00    -0.066 C 
HETATM   17  C14 UNL     1      19.744   4.256  51.249  1.00  0.00     0.045 C 
HETATM   18  C15 UNL     1      21.985   3.746  50.528  1.00  0.00     0.158 C 
ENDBRANCH   7  11
BRANCH  10  19
HETATM   19  O3  UNL     1      23.863  -0.283  53.161  1.00  0.00    -0.346 OA
BRANCH  19  20
HETATM   20  C19 UNL     1      22.596   0.044  53.631  1.00  0.00     0.201 C 
BRANCH  20  21
HETATM   21  C20 UNL     1      22.336  -0.868  54.835  1.00  0.00     0.193 C 
BRANCH  21  22
HETATM   22  O4  UNL     1      21.128  -1.513  54.737  1.00  0.00    -0.394 OA
HETATM   23  C21 UNL     1      20.235  -0.957  53.843  1.00  0.00     0.201 C 
ENDBRANCH  21  22
ENDBRANCH  20  21
ENDBRANCH  19  20
ENDBRANCH  10  19
BRANCH   1  24
HETATM   24  O2  UNL     1      26.446  -0.082  53.807  1.00  0.00    -0.346 OA
BRANCH  24  25
HETATM   25  C3  UNL     1      27.103   0.092  54.998  1.00  0.00     0.201 C 
BRANCH  25  26
HETATM   26  C2  UNL     1      28.588   0.209  54.964  1.00  0.00     0.193 C 
BRANCH  26  27
HETATM   27  O1  UNL     1      29.099  -0.954  54.363  1.00  0.00    -0.394 OA
HETATM   28  C1  UNL     1      30.012  -0.495  53.393  1.00  0.00     0.201 C 
ENDBRANCH  26  27
ENDBRANCH  25  26
ENDBRANCH  24  25
ENDBRANCH   1  24
TORSDOF 9
ENDMDL
MODEL 3
REMARK VINA RESULT:      -7.2      1.182      1.389
REMARK  9 active torsions:
REMARK  status: ('A' for Active; 'I' for Inactive)
REMARK    1  A    between atoms: O1_2  and  C2_3 
REMARK    2  A    between atoms: C2_3  and  C3_4 
REMARK    3  A    between atoms: C3_4  and  O2_5 
REMARK    4  A    between atoms: O2_5  and  C4_6 
REMARK    5  A    between atoms: C8_12  and  N3_13 
REMARK    6  A    between atoms: C18_23  and  O3_24 
REMARK    7  A    between atoms: O3_24  and  C19_25 
REMARK    8  A    between atoms: C19_25  and  C20_26 
REMARK    9  A    between atoms: C20_26  and  O4_27 
ROOT
HETATM    1  C4  UNL     1      25.704  -0.086  52.986  1.00  0.00     0.104 A 
HETATM    2  C5  UNL     1      24.634  -0.519  53.734  1.00  0.00     0.072 A 
HETATM    3  C6  UNL     1      23.380  -0.020  53.617  1.00  0.00     0.075 A 
HETATM    4  N1  UNL     1      22.374  -0.480  54.377  1.00  0.00    -0.241 NA
HETATM    5  C7  UNL     1      21.113   0.033  54.253  1.00  0.00     0.236 A 
HETATM    6  N2  UNL     1      20.895   1.012  53.352  1.00  0.00    -0.224 NA
HETATM    7  C8  UNL     1      21.882   1.478  52.592  1.00  0.00     0.140 A 
HETATM    8  C16 UNL     1      23.160   0.974  52.703  1.00  0.00     0.041 A 
HETATM    9  C17 UNL     1      24.154   1.482  51.905  1.00  0.00     0.057 A 
HETATM   10  C18 UNL     1      25.410   0.933  52.069  1.00  0.00     0.103 A 
ENDROOT
BRANCH   7  11
HETATM   11  N3  UNL     1      21.495   2.516  51.666  1.00  0.00    -0.358 N 
HETATM   12  C9  UNL     1      21.450   3.897  52.163  1.00  0.00     0.152 C 
HETATM   13  C10 UNL     1      22.481   4.746  51.461  1.00  0.00    -0.007 C 
HETATM   14  C11 UNL     1      22.682   4.841  50.157  1.00  0.00    -0.002 C 
HETATM   15  C12 UNL     1      21.952   4.147  49.101  1.00  0.00     0.004 C 
HETATM   16  C13 UNL     1      21.368   2.970  49.258  1.00  0.00    -0.066 C 
HETATM   17  C14 UNL     1      20.680   2.453  48.045  1.00  0.00     0.045 C 
HETATM   18  C15 UNL     1      21.204   1.985  50.349  1.00  0.00     0.158 C 
ENDBRANCH   7  11
BRANCH  10  19
HETATM   19  O3  UNL     1      26.385   1.497  51.221  1.00  0.00    -0.346 OA
BRANCH  19  20
HETATM   20  C19 UNL     1      26.538   2.870  51.066  1.00  0.00     0.201 C 
BRANCH  20  21
HETATM   21  C20 UNL     1      26.490   3.140  49.558  1.00  0.00     0.193 C 
BRANCH  21  22
HETATM   22  O4  UNL     1      27.377   4.119  49.185  1.00  0.00    -0.394 OA
HETATM   23  C21 UNL     1      26.806   5.328  48.838  1.00  0.00     0.201 C 
ENDBRANCH  21  22
ENDBRANCH  20  21
ENDBRANCH  19  20
ENDBRANCH  10  19
BRANCH   1  24
HETATM   24  O2  UNL     1      27.019  -0.442  52.945  1.00  0.00    -0.346 OA
BRANCH  24  25
HETATM   25  C3  UNL     1      28.164   0.191  53.357  1.00  0.00     0.201 C 
BRANCH  25  26
HETATM   26  C2  UNL     1      28.447   0.236  54.819  1.00  0.00     0.193 C 
BRANCH  26  27
HETATM   27  O1  UNL     1      29.063   1.467  55.102  1.00  0.00    -0.394 OA
HETATM   28  C1  UNL     1      28.865   2.250  53.948  1.00  0.00     0.201 C 
ENDBRANCH  26  27
ENDBRANCH  25  26
ENDBRANCH  24  25
ENDBRANCH   1  24
TORSDOF 9
ENDMDL
MODEL 4
REMARK VINA RESULT:      -7.1      2.958      6.591
REMARK  9 active torsions:
REMARK  status: ('A' for Active; 'I' for Inactive)
REMARK    1  A    between atoms: O1_2  and  C2_3 
REMARK    2  A    between atoms: C2_3  and  C3_4 
REMARK    3  A    between atoms: C3_4  and  O2_5 
REMARK    4  A    between atoms: O2_5  and  C4_6 
REMARK    5  A    between atoms: C8_12  and  N3_13 
REMARK    6  A    between atoms: C18_23  and  O3_24 
REMARK    7  A    between atoms: O3_24  and  C19_25 
REMARK    8  A    between atoms: C19_25  and  C20_26 
REMARK    9  A    between atoms: C20_26  and  O4_27 
ROOT
HETATM    1  C4  UNL     1      21.285   0.228  52.423  1.00  0.00     0.104 A 
HETATM    2  C5  UNL     1      21.496  -0.420  53.618  1.00  0.00     0.072 A 
HETATM    3  C6  UNL     1      22.721  -0.626  54.160  1.00  0.00     0.075 A 
HETATM    4  N1  UNL     1      22.866  -1.268  55.329  1.00  0.00    -0.241 NA
HETATM    5  C7  UNL     1      24.107  -1.472  55.865  1.00  0.00     0.236 A 
HETATM    6  N2  UNL     1      25.186  -1.017  55.197  1.00  0.00    -0.224 NA
HETATM    7  C8  UNL     1      25.059  -0.380  54.037  1.00  0.00     0.140 A 
HETATM    8  C16 UNL     1      23.815  -0.164  53.481  1.00  0.00     0.041 A 
HETATM    9  C17 UNL     1      23.722   0.495  52.281  1.00  0.00     0.057 A 
HETATM   10  C18 UNL     1      22.448   0.675  51.780  1.00  0.00     0.103 A 
ENDROOT
BRANCH   7  11
HETATM   11  N3  UNL     1      26.301   0.060  53.446  1.00  0.00    -0.358 N 
HETATM   12  C9  UNL     1      26.306   1.345  52.737  1.00  0.00     0.152 C 
HETATM   13  C10 UNL     1      27.203   2.334  53.440  1.00  0.00    -0.007 C 
HETATM   14  C11 UNL     1      28.450   2.137  53.836  1.00  0.00    -0.002 C 
HETATM   15  C12 UNL     1      29.242   0.921  53.680  1.00  0.00     0.004 C 
HETATM   16  C13 UNL     1      28.723  -0.295  53.617  1.00  0.00    -0.066 C 
HETATM   17  C14 UNL     1      29.719  -1.387  53.458  1.00  0.00     0.045 C 
HETATM   18  C15 UNL     1      27.371  -0.893  53.665  1.00  0.00     0.158 C 
ENDBRANCH   7  11
BRANCH  10  19
HETATM   19  O3  UNL     1      22.420   1.357  50.547  1.00  0.00    -0.346 OA
BRANCH  19  20
HETATM   20  C19 UNL     1      23.303   2.385  50.240  1.00  0.00     0.201 C 
BRANCH  20  21
HETATM   21  C20 UNL     1      22.485   3.681  50.281  1.00  0.00     0.193 C 
BRANCH  21  22
HETATM   22  O4  UNL     1      22.652   4.355  51.466  1.00  0.00    -0.394 OA
HETATM   23  C21 UNL     1      21.580   4.297  52.332  1.00  0.00     0.201 C 
ENDBRANCH  21  22
ENDBRANCH  20  21
ENDBRANCH  19  20
ENDBRANCH  10  19
BRANCH   1  24
HETATM   24  O2  UNL     1      20.163   0.534  51.712  1.00  0.00    -0.346 OA
BRANCH  24  25
HETATM   25  C3  UNL     1      18.848   0.678  52.073  1.00  0.00     0.201 C 
BRANCH  25  26
HETATM   26  C2  UNL     1      17.939  -0.486  51.873  1.00  0.00     0.193 C 
BRANCH  26  27
HETATM   27  O1  UNL     1      17.358  -0.798  53.113  1.00  0.00    -0.394 OA
HETATM   28  C1  UNL     1      17.883  -2.059  53.458  1.00  0.00     0.201 C 
ENDBRANCH  26  27
ENDBRANCH  25  26
ENDBRANCH  24  25
ENDBRANCH   1  24
TORSDOF 9
ENDMDL
MODEL 5
REMARK VINA RESULT:      -6.7      2.826      5.261
REMARK  9 active torsions:
REMARK  status: ('A' for Active; 'I' for Inactive)
REMARK    1  A    between atoms: O1_2  and  C2_3 
REMARK    2  A    between atoms: C2_3  and  C3_4 
REMARK    3  A    between atoms: C3_4  and  O2_5 
REMARK    4  A    between atoms: O2_5  and  C4_6 
REMARK    5  A    between atoms: C8_12  and  N3_13 
REMARK    6  A    between atoms: C18_23  and  O3_24 
REMARK    7  A    between atoms: O3_24  and  C19_25 
REMARK    8  A    between atoms: C19_25  and  C20_26 
REMARK    9  A    between atoms: C20_26  and  O4_27 
ROOT
HETATM    1  C4  UNL     1      25.951   1.327  52.608  1.00  0.00     0.104 A 
HETATM    2  C5  UNL     1      26.815   1.979  51.760  1.00  0.00     0.072 A 
HETATM    3  C6  UNL     1      26.425   2.887  50.834  1.00  0.00     0.075 A 
HETATM    4  N1  UNL     1      27.315   3.490  50.031  1.00  0.00    -0.241 NA
HETATM    5  C7  UNL     1      26.909   4.402  49.098  1.00  0.00     0.236 A 
HETATM    6  N2  UNL     1      25.595   4.688  48.997  1.00  0.00    -0.224 NA
HETATM    7  C8  UNL     1      24.701   4.099  49.785  1.00  0.00     0.140 A 
HETATM    8  C16 UNL     1      25.091   3.175  50.732  1.00  0.00     0.041 A 
HETATM    9  C17 UNL     1      24.140   2.585  51.527  1.00  0.00     0.057 A 
HETATM   10  C18 UNL     1      24.600   1.669  52.451  1.00  0.00     0.103 A 
ENDROOT
BRANCH   7  11
HETATM   11  N3  UNL     1      23.335   4.514  49.570  1.00  0.00    -0.358 N 
HETATM   12  C9  UNL     1      22.489   3.674  48.714  1.00  0.00     0.152 C 
HETATM   13  C10 UNL     1      21.355   3.079  49.510  1.00  0.00    -0.007 C 
HETATM   14  C11 UNL     1      20.523   3.721  50.314  1.00  0.00    -0.002 C 
HETATM   15  C12 UNL     1      20.514   5.150  50.614  1.00  0.00     0.004 C 
HETATM   16  C13 UNL     1      21.590   5.919  50.572  1.00  0.00    -0.066 C 
HETATM   17  C14 UNL     1      21.347   7.345  50.915  1.00  0.00     0.045 C 
HETATM   18  C15 UNL     1      23.028   5.747  50.269  1.00  0.00     0.158 C 
ENDBRANCH   7  11
BRANCH  10  19
HETATM   19  O3  UNL     1      23.576   1.099  53.234  1.00  0.00    -0.346 OA
BRANCH  19  20
HETATM   20  C19 UNL     1      22.751   0.084  52.764  1.00  0.00     0.201 C 
BRANCH  20  21
HETATM   21  C20 UNL     1      22.484  -0.841  53.957  1.00  0.00     0.193 C 
BRANCH  21  22
HETATM   22  O4  UNL     1      21.264  -1.463  53.859  1.00  0.00    -0.394 OA
HETATM   23  C21 UNL     1      20.179  -0.618  53.744  1.00  0.00     0.201 C 
ENDBRANCH  21  22
ENDBRANCH  20  21
ENDBRANCH  19  20
ENDBRANCH  10  19
BRANCH   1  24
HETATM   24  O2  UNL     1      26.128   0.398  53.589  1.00  0.00    -0.346 OA
BRANCH  24  25
HETATM   25  C3  UNL     1      26.725   0.454  54.823  1.00  0.00     0.201 C 
BRANCH  25  26
HETATM   26  C2  UNL     1      28.179   0.143  54.907  1.00  0.00     0.193 C 
BRANCH  26  27
HETATM   27  O1  UNL     1      28.421  -1.008  54.139  1.00  0.00    -0.394 OA
HETATM   28  C1  UNL     1      29.645  -0.764  53.486  1.00  0.00     0.201 C 
ENDBRANCH  26  27
ENDBRANCH  25  26
ENDBRANCH  24  25
ENDBRANCH   1  24
TORSDOF 9
ENDMDL
MODEL 6
REMARK VINA RESULT:      -6.6      1.883      2.392
REMARK  9 active torsions:
REMARK  status: ('A' for Active; 'I' for Inactive)
REMARK    1  A    between atoms: O1_2  and  C2_3 
REMARK    2  A    between atoms: C2_3  and  C3_4 
REMARK    3  A    between atoms: C3_4  and  O2_5 
REMARK    4  A    between atoms: O2_5  and  C4_6 
REMARK    5  A    between atoms: C8_12  and  N3_13 
REMARK    6  A    between atoms: C18_23  and  O3_24 
REMARK    7  A    between atoms: O3_24  and  C19_25 
REMARK    8  A    between atoms: C19_25  and  C20_26 
REMARK    9  A    between atoms: C20_26  and  O4_27 
ROOT
HETATM    1  C4  UNL     1      25.261   0.868  52.600  1.00  0.00     0.104 A 
HETATM    2  C5  UNL     1      24.717   0.003  53.521  1.00  0.00     0.072 A 
HETATM    3  C6  UNL     1      23.386  -0.155  53.716  1.00  0.00     0.075 A 
HETATM    4  N1  UNL     1      22.913  -1.014  54.633  1.00  0.00    -0.241 NA
HETATM    5  C7  UNL     1      21.568  -1.163  54.822  1.00  0.00     0.236 A 
HETATM    6  N2  UNL     1      20.721  -0.432  54.070  1.00  0.00    -0.224 NA
HETATM    7  C8  UNL     1      21.173   0.422  53.157  1.00  0.00     0.140 A 
HETATM    8  C16 UNL     1      22.527   0.587  52.952  1.00  0.00     0.041 A 
HETATM    9  C17 UNL     1      22.959   1.480  52.003  1.00  0.00     0.057 A 
HETATM   10  C18 UNL     1      24.326   1.597  51.852  1.00  0.00     0.103 A 
ENDROOT
BRANCH   7  11
HETATM   11  N3  UNL     1      20.148   1.124  52.421  1.00  0.00    -0.358 N 
HETATM   12  C9  UNL     1      20.116   2.588  52.517  1.00  0.00     0.152 C 
HETATM   13  C10 UNL     1      20.404   3.213  51.175  1.00  0.00    -0.007 C 
HETATM   14  C11 UNL     1      19.832   2.918  50.019  1.00  0.00    -0.002 C 
HETATM   15  C12 UNL     1      18.793   1.921  49.780  1.00  0.00     0.004 C 
HETATM   16  C13 UNL     1      18.634   0.831  50.513  1.00  0.00    -0.066 C 
HETATM   17  C14 UNL     1      17.510  -0.044  50.087  1.00  0.00     0.045 C 
HETATM   18  C15 UNL     1      19.292   0.214  51.686  1.00  0.00     0.158 C 
ENDBRANCH   7  11
BRANCH  10  19
HETATM   19  O3  UNL     1      24.704   2.529  50.864  1.00  0.00    -0.346 OA
BRANCH  19  20
HETATM   20  C19 UNL     1      23.819   2.997  49.899  1.00  0.00     0.201 C 
BRANCH  20  21
HETATM   21  C20 UNL     1      24.116   4.491  49.732  1.00  0.00     0.193 C 
BRANCH  21  22
HETATM   22  O4  UNL     1      24.093   5.154  50.934  1.00  0.00    -0.394 OA
HETATM   23  C21 UNL     1      22.980   5.942  51.151  1.00  0.00     0.201 C 
ENDBRANCH  21  22
ENDBRANCH  20  21
ENDBRANCH  19  20
ENDBRANCH  10  19
BRANCH   1  24
HETATM   24  O2  UNL     1      26.541   1.176  52.250  1.00  0.00    -0.346 OA
BRANCH  24  25
HETATM   25  C3  UNL     1      27.479   2.009  52.806  1.00  0.00     0.201 C 
BRANCH  25  26
HETATM   26  C2  UNL     1      28.735   1.397  53.323  1.00  0.00     0.193 C 
BRANCH  26  27
HETATM   27  O1  UNL     1      28.664   1.386  54.726  1.00  0.00    -0.394 OA
HETATM   28  C1  UNL     1      28.295   0.069  55.064  1.00  0.00     0.201 C 
ENDBRANCH  26  27
ENDBRANCH  25  26
ENDBRANCH  24  25
ENDBRANCH   1  24
TORSDOF 9
ENDMDL
MODEL 7
REMARK VINA RESULT:      -6.6      2.839      6.290
REMARK  9 active torsions:
REMARK  status: ('A' for Active; 'I' for Inactive)
REMARK    1  A    between atoms: O1_2  and  C2_3 
REMARK    2  A    between atoms: C2_3  and  C3_4 
REMARK    3  A    between atoms: C3_4  and  O2_5 
REMARK    4  A    between atoms: O2_5  and  C4_6 
REMARK    5  A    between atoms: C8_12  and  N3_13 
REMARK    6  A    between atoms: C18_23  and  O3_24 
REMARK    7  A    between atoms: O3_24  and  C19_25 
REMARK    8  A    between atoms: C19_25  and  C20_26 
REMARK    9  A    between atoms: C20_26  and  O4_27 
ROOT
HETATM    1  C4  UNL     1      22.587   1.044  51.526  1.00  0.00     0.104 A 
HETATM    2  C5  UNL     1      21.977   1.498  50.380  1.00  0.00     0.072 A 
HETATM    3  C6  UNL     1      22.430   2.543  49.646  1.00  0.00     0.075 A 
HETATM    4  N1  UNL     1      21.791   2.943  48.536  1.00  0.00    -0.241 NA
HETATM    5  C7  UNL     1      22.256   4.000  47.805  1.00  0.00     0.236 A 
HETATM    6  N2  UNL     1      23.371   4.636  48.218  1.00  0.00    -0.224 NA
HETATM    7  C8  UNL     1      24.015   4.251  49.316  1.00  0.00     0.140 A 
HETATM    8  C16 UNL     1      23.561   3.187  50.066  1.00  0.00     0.041 A 
HETATM    9  C17 UNL     1      24.250   2.820  51.195  1.00  0.00     0.057 A 
HETATM   10  C18 UNL     1      23.739   1.749  51.900  1.00  0.00     0.103 A 
ENDROOT
BRANCH   7  11
HETATM   11  N3  UNL     1      25.198   5.019  49.626  1.00  0.00    -0.358 N 
HETATM   12  C9  UNL     1      26.468   4.295  49.768  1.00  0.00     0.152 C 
HETATM   13  C10 UNL     1      27.438   4.710  48.690  1.00  0.00    -0.007 C 
HETATM   14  C11 UNL     1      27.767   5.944  48.346  1.00  0.00    -0.002 C 
HETATM   15  C12 UNL     1      27.266   7.184  48.930  1.00  0.00     0.004 C 
HETATM   16  C13 UNL     1      26.074   7.307  49.493  1.00  0.00    -0.066 C 
HETATM   17  C14 UNL     1      25.776   8.664  50.023  1.00  0.00     0.045 C 
HETATM   18  C15 UNL     1      24.908   6.433  49.749  1.00  0.00     0.158 C 
ENDBRANCH   7  11
BRANCH  10  19
HETATM   19  O3  UNL     1      24.491   1.422  53.048  1.00  0.00    -0.346 OA
BRANCH  19  20
HETATM   20  C19 UNL     1      25.675   2.071  53.377  1.00  0.00     0.201 C 
BRANCH  20  21
HETATM   21  C20 UNL     1      26.618   0.994  53.925  1.00  0.00     0.193 C 
BRANCH  21  22
HETATM   22  O4  UNL     1      26.171  -0.272  53.636  1.00  0.00    -0.394 OA
HETATM   23  C21 UNL     1      27.039  -1.046  52.892  1.00  0.00     0.201 C 
ENDBRANCH  21  22
ENDBRANCH  20  21
ENDBRANCH  19  20
ENDBRANCH  10  19
BRANCH   1  24
HETATM   24  O2  UNL     1      22.304   0.035  52.397  1.00  0.00    -0.346 OA
BRANCH  24  25
HETATM   25  C3  UNL     1      21.206  -0.242  53.171  1.00  0.00     0.201 C 
BRANCH  25  26
HETATM   26  C2  UNL     1      21.355  -0.150  54.651  1.00  0.00     0.193 C 
BRANCH  26  27
HETATM   27  O1  UNL     1      21.656  -1.434  55.135  1.00  0.00    -0.394 OA
HETATM   28  C1  UNL     1      23.039  -1.411  55.403  1.00  0.00     0.201 C 
ENDBRANCH  26  27
ENDBRANCH  25  26
ENDBRANCH  24  25
ENDBRANCH   1  24
TORSDOF 9
ENDMDL
MODEL 8
REMARK VINA RESULT:      -6.6      2.596      5.575
REMARK  9 active torsions:
REMARK  status: ('A' for Active; 'I' for Inactive)
REMARK    1  A    between atoms: O1_2  and  C2_3 
REMARK    2  A    between atoms: C2_3  and  C3_4 
REMARK    3  A    between atoms: C3_4  and  O2_5 
REMARK    4  A    between atoms: O2_5  and  C4_6 
REMARK    5  A    between atoms: C8_12  and  N3_13 
REMARK    6  A    between atoms: C18_23  and  O3_24 
REMARK    7  A    between atoms: O3_24  and  C19_25 
REMARK    8  A    between atoms: C19_25  and  C20_26 
REMARK    9  A    between atoms: C20_26  and  O4_27 
ROOT
HETATM    1  C4  UNL     1      22.980   0.631  52.207  1.00  0.00     0.104 A 
HETATM    2  C5  UNL     1      22.163   0.491  51.110  1.00  0.00     0.072 A 
HETATM    3  C6  UNL     1      22.023   1.433  50.146  1.00  0.00     0.075 A 
HETATM    4  N1  UNL     1      21.207   1.241  49.098  1.00  0.00    -0.241 NA
HETATM    5  C7  UNL     1      21.072   2.200  48.133  1.00  0.00     0.236 A 
HETATM    6  N2  UNL     1      21.774   3.345  48.252  1.00  0.00    -0.224 NA
HETATM    7  C8  UNL     1      22.586   3.550  49.284  1.00  0.00     0.140 A 
HETATM    8  C16 UNL     1      22.736   2.595  50.268  1.00  0.00     0.041 A 
HETATM    9  C17 UNL     1      23.580   2.842  51.321  1.00  0.00     0.057 A 
HETATM   10  C18 UNL     1      23.680   1.844  52.270  1.00  0.00     0.103 A 
ENDROOT
BRANCH   7  11
HETATM   11  N3  UNL     1      23.280   4.816  49.269  1.00  0.00    -0.358 N 
HETATM   12  C9  UNL     1      22.509   6.025  49.584  1.00  0.00     0.152 C 
HETATM   13  C10 UNL     1      23.012   6.658  50.857  1.00  0.00    -0.007 C 
HETATM   14  C11 UNL     1      24.267   6.945  51.162  1.00  0.00    -0.002 C 
HETATM   15  C12 UNL     1      25.449   6.715  50.337  1.00  0.00     0.004 C 
HETATM   16  C13 UNL     1      25.543   5.751  49.435  1.00  0.00    -0.066 C 
HETATM   17  C14 UNL     1      26.841   5.704  48.711  1.00  0.00     0.045 C 
HETATM   18  C15 UNL     1      24.680   4.661  48.928  1.00  0.00     0.158 C 
ENDBRANCH   7  11
BRANCH  10  19
HETATM   19  O3  UNL     1      24.562   2.159  53.325  1.00  0.00    -0.346 OA
BRANCH  19  20
HETATM   20  C19 UNL     1      25.940   2.014  53.216  1.00  0.00     0.201 C 
BRANCH  20  21
HETATM   21  C20 UNL     1      26.360   1.051  54.333  1.00  0.00     0.193 C 
BRANCH  21  22
HETATM   22  O4  UNL     1      27.666   1.242  54.710  1.00  0.00    -0.394 OA
HETATM   23  C21 UNL     1      28.459   0.112  54.681  1.00  0.00     0.201 C 
ENDBRANCH  21  22
ENDBRANCH  20  21
ENDBRANCH  19  20
ENDBRANCH  10  19
BRANCH   1  24
HETATM   24  O2  UNL     1      23.261  -0.172  53.271  1.00  0.00    -0.346 OA
BRANCH  24  25
HETATM   25  C3  UNL     1      22.541  -0.520  54.385  1.00  0.00     0.201 C 
BRANCH  25  26
HETATM   26  C2  UNL     1      21.228  -1.195  54.184  1.00  0.00     0.193 C 
BRANCH  26  27
HETATM   27  O1  UNL     1      20.226  -0.211  54.223  1.00  0.00    -0.394 OA
HETATM   28  C1  UNL     1      19.327  -0.562  53.196  1.00  0.00     0.201 C 
ENDBRANCH  26  27
ENDBRANCH  25  26
ENDBRANCH  24  25
ENDBRANCH   1  24
TORSDOF 9
ENDMDL
MODEL 9
REMARK VINA RESULT:      -6.6      3.175      5.454
REMARK  9 active torsions:
REMARK  status: ('A' for Active; 'I' for Inactive)
REMARK    1  A    between atoms: O1_2  and  C2_3 
REMARK    2  A    between atoms: C2_3  and  C3_4 
REMARK    3  A    between atoms: C3_4  and  O2_5 
REMARK    4  A    between atoms: O2_5  and  C4_6 
REMARK    5  A    between atoms: C8_12  and  N3_13 
REMARK    6  A    between atoms: C18_23  and  O3_24 
REMARK    7  A    between atoms: O3_24  and  C19_25 
REMARK    8  A    between atoms: C19_25  and  C20_26 
REMARK    9  A    between atoms: C20_26  and  O4_27 
ROOT
HETATM    1  C4  UNL     1      25.768   1.410  52.092  1.00  0.00     0.104 A 
HETATM    2  C5  UNL     1      26.632   1.977  51.184  1.00  0.00     0.072 A 
HETATM    3  C6  UNL     1      26.359   3.105  50.484  1.00  0.00     0.075 A 
HETATM    4  N1  UNL     1      27.241   3.610  49.608  1.00  0.00    -0.241 NA
HETATM    5  C7  UNL     1      26.954   4.747  48.906  1.00  0.00     0.236 A 
HETATM    6  N2  UNL     1      25.768   5.355  49.108  1.00  0.00    -0.224 NA
HETATM    7  C8  UNL     1      24.884   4.866  49.973  1.00  0.00     0.140 A 
HETATM    8  C16 UNL     1      25.155   3.720  50.690  1.00  0.00     0.041 A 
HETATM    9  C17 UNL     1      24.217   3.242  51.572  1.00  0.00     0.057 A 
HETATM   10  C18 UNL     1      24.553   2.090  52.255  1.00  0.00     0.103 A 
ENDROOT
BRANCH   7  11
HETATM   11  N3  UNL     1      23.664   5.630  50.092  1.00  0.00    -0.358 N 
HETATM   12  C9  UNL     1      23.611   6.680  51.116  1.00  0.00     0.152 C 
HETATM   13  C10 UNL     1      23.471   8.038  50.475  1.00  0.00    -0.007 C 
HETATM   14  C11 UNL     1      22.596   8.396  49.549  1.00  0.00    -0.002 C 
HETATM   15  C12 UNL     1      21.568   7.559  48.937  1.00  0.00     0.004 C 
HETATM   16  C13 UNL     1      21.669   6.246  48.804  1.00  0.00    -0.066 C 
HETATM   17  C14 UNL     1      20.500   5.598  48.152  1.00  0.00     0.045 C 
HETATM   18  C15 UNL     1      22.663   5.202  49.136  1.00  0.00     0.158 C 
ENDBRANCH   7  11
BRANCH  10  19
HETATM   19  O3  UNL     1      23.549   1.651  53.143  1.00  0.00    -0.346 OA
BRANCH  19  20
HETATM   20  C19 UNL     1      22.255   1.363  52.726  1.00  0.00     0.201 C 
BRANCH  20  21
HETATM   21  C20 UNL     1      22.055  -0.140  52.953  1.00  0.00     0.193 C 
BRANCH  21  22
HETATM   22  O4  UNL     1      21.636  -0.413  54.232  1.00  0.00    -0.394 OA
HETATM   23  C21 UNL     1      22.519  -1.150  54.995  1.00  0.00     0.201 C 
ENDBRANCH  21  22
ENDBRANCH  20  21
ENDBRANCH  19  20
ENDBRANCH  10  19
BRANCH   1  24
HETATM   24  O2  UNL     1      25.840   0.304  52.885  1.00  0.00    -0.346 OA
BRANCH  24  25
HETATM   25  C3  UNL     1      26.450   0.065  54.090  1.00  0.00     0.201 C 
BRANCH  25  26
HETATM   26  C2  UNL     1      27.939   0.065  54.129  1.00  0.00     0.193 C 
BRANCH  26  27
HETATM   27  O1  UNL     1      28.350   1.160  54.907  1.00  0.00    -0.394 OA
HETATM   28  C1  UNL     1      29.000   2.027  54.005  1.00  0.00     0.201 C 
ENDBRANCH  26  27
ENDBRANCH  25  26
ENDBRANCH  24  25
ENDBRANCH   1  24
TORSDOF 9
ENDMDL
