MODEL 1
REMARK VINA RESULT:      -7.7      0.000      0.000
REMARK  4 active torsions:
REMARK  status: ('A' for Active; 'I' for Inactive)
REMARK    1  A    between atoms: O1_2  and  C2_3 
REMARK    2  A    between atoms: C5_6  and  N1_7 
REMARK    3  A    between atoms: N1_7  and  C6_8 
REMARK    4  A    between atoms: C15_21  and  O2_22 
ROOT
HETATM    1  C2  UNL     1      22.247   4.104  52.085  1.00  0.00     0.076 C 
HETATM    2  C3  UNL     1      23.409   3.912  52.511  1.00  0.00     0.032 C 
HETATM    3  C4  UNL     1      24.191   2.819  53.106  1.00  0.00     0.219 A 
HETATM    4  C5  UNL     1      25.426   2.634  53.451  1.00  0.00     0.092 A 
HETATM    5  N2  UNL     1      25.233   3.177  52.075  1.00  0.00    -0.241 NA
HETATM    6  C12 UNL     1      24.272   2.500  51.310  1.00  0.00     0.181 C 
HETATM    7  N3  UNL     1      23.272   1.684  50.714  1.00  0.00    -0.247 NA
HETATM    8  C13 UNL     1      22.690   0.957  51.567  1.00  0.00     0.085 C 
HETATM    9  C14 UNL     1      22.239   1.597  52.643  1.00  0.00     0.045 C 
HETATM   10  C15 UNL     1      21.624   2.816  52.224  1.00  0.00     0.202 C 
ENDROOT
BRANCH   4  11
HETATM   11  N1  UNL     1      26.767   2.518  53.790  1.00  0.00    -0.370 N 
HETATM   12  H6  UNL     1      27.205   3.379  54.163  1.00  0.00     0.161 HD
BRANCH  11  13
HETATM   13  C6  UNL     1      27.427   1.276  53.613  1.00  0.00     0.031 A 
HETATM   14  C7  UNL     1      28.731   1.221  54.038  1.00  0.00     0.032 A 
HETATM   15  C8  UNL     1      29.474   0.068  53.917  1.00  0.00     0.046 A 
HETATM   16  C9  UNL     1      28.873  -1.023  53.360  1.00  0.00     0.138 A 
HETATM   17  F1  UNL     1      29.496  -2.211  53.189  1.00  0.00    -0.204 F 
HETATM   18  C10 UNL     1      27.548  -0.974  52.927  1.00  0.00     0.074 A 
HETATM   19 CL1  UNL     1      26.732  -2.364  52.201  1.00  0.00    -0.081 Cl
HETATM   20  C11 UNL     1      26.808   0.204  53.056  1.00  0.00     0.056 A 
ENDBRANCH  11  13
ENDBRANCH   4  11
BRANCH   1  21
HETATM   21  O1  UNL     1      21.900   5.356  51.615  1.00  0.00    -0.357 OA
HETATM   22  C1  UNL     1      22.340   5.638  50.277  1.00  0.00     0.209 C 
ENDBRANCH   1  21
BRANCH  10  23
HETATM   23  O2  UNL     1      20.606   2.610  51.232  1.00  0.00    -0.380 OA
HETATM   24  C16 UNL     1      19.443   2.836  51.918  1.00  0.00     0.202 C 
ENDBRANCH  10  23
TORSDOF 4
ENDMDL
MODEL 2
REMARK VINA RESULT:      -7.6      1.695      2.661
REMARK  4 active torsions:
REMARK  status: ('A' for Active; 'I' for Inactive)
REMARK    1  A    between atoms: O1_2  and  C2_3 
REMARK    2  A    between atoms: C5_6  and  N1_7 
REMARK    3  A    between atoms: N1_7  and  C6_8 
REMARK    4  A    between atoms: C15_21  and  O2_22 
ROOT
HETATM    1  C2  UNL     1      21.528   0.869  52.982  1.00  0.00     0.076 C 
HETATM    2  C3  UNL     1      22.750   1.146  53.003  1.00  0.00     0.032 C 
HETATM    3  C4  UNL     1      23.801   1.537  52.053  1.00  0.00     0.219 A 
HETATM    4  C5  UNL     1      25.040   1.906  52.132  1.00  0.00     0.092 A 
HETATM    5  N2  UNL     1      24.111   2.629  53.047  1.00  0.00    -0.241 NA
HETATM    6  C12 UNL     1      22.940   3.100  52.437  1.00  0.00     0.181 C 
HETATM    7  N3  UNL     1      21.834   3.489  51.630  1.00  0.00    -0.247 NA
HETATM    8  C13 UNL     1      21.844   2.907  50.510  1.00  0.00     0.085 C 
HETATM    9  C14 UNL     1      21.989   1.586  50.559  1.00  0.00     0.045 C 
HETATM   10  C15 UNL     1      21.164   1.075  51.607  1.00  0.00     0.202 C 
ENDROOT
BRANCH   4  11
HETATM   11  N1  UNL     1      26.361   2.295  52.305  1.00  0.00    -0.370 N 
HETATM   12  H6  UNL     1      26.564   3.285  52.079  1.00  0.00     0.161 HD
BRANCH  11  13
HETATM   13  C6  UNL     1      27.313   1.350  52.764  1.00  0.00     0.031 A 
HETATM   14  C7  UNL     1      28.416   1.866  53.399  1.00  0.00     0.032 A 
HETATM   15  C8  UNL     1      29.408   1.044  53.887  1.00  0.00     0.046 A 
HETATM   16  C9  UNL     1      29.262  -0.302  53.720  1.00  0.00     0.138 A 
HETATM   17  F1  UNL     1      30.165  -1.210  54.154  1.00  0.00    -0.204 F 
HETATM   18  C10 UNL     1      28.144  -0.831  53.075  1.00  0.00     0.074 A 
HETATM   19 CL1  UNL     1      27.916  -2.568  52.838  1.00  0.00    -0.081 Cl
HETATM   20  C11 UNL     1      27.146   0.015  52.585  1.00  0.00     0.056 A 
ENDBRANCH  11  13
ENDBRANCH   4  11
BRANCH   1  21
HETATM   21  O1  UNL     1      20.899   0.501  54.156  1.00  0.00    -0.357 OA
HETATM   22  C1  UNL     1      21.459  -0.654  54.800  1.00  0.00     0.209 C 
ENDBRANCH   1  21
BRANCH  10  23
HETATM   23  O2  UNL     1      19.791   1.480  51.478  1.00  0.00    -0.380 OA
HETATM   24  C16 UNL     1      19.131   0.300  51.267  1.00  0.00     0.202 C 
ENDBRANCH  10  23
TORSDOF 4
ENDMDL
MODEL 3
REMARK VINA RESULT:      -7.4      4.095      7.003
REMARK  4 active torsions:
REMARK  status: ('A' for Active; 'I' for Inactive)
REMARK    1  A    between atoms: O1_2  and  C2_3 
REMARK    2  A    between atoms: C5_6  and  N1_7 
REMARK    3  A    between atoms: N1_7  and  C6_8 
REMARK    4  A    between atoms: C15_21  and  O2_22 
ROOT
HETATM    1  C2  UNL     1      27.982   1.015  52.808  1.00  0.00     0.076 C 
HETATM    2  C3  UNL     1      26.924   1.503  52.349  1.00  0.00     0.032 C 
HETATM    3  C4  UNL     1      25.598   1.036  51.922  1.00  0.00     0.219 A 
HETATM    4  C5  UNL     1      24.492   1.590  51.537  1.00  0.00     0.092 A 
HETATM    5  N2  UNL     1      25.069   2.148  52.794  1.00  0.00    -0.241 NA
HETATM    6  C12 UNL     1      25.457   1.184  53.736  1.00  0.00     0.181 C 
HETATM    7  N3  UNL     1      25.777   0.058  54.543  1.00  0.00    -0.247 NA
HETATM    8  C13 UNL     1      25.730  -1.018  53.885  1.00  0.00     0.085 C 
HETATM    9  C14 UNL     1      26.407  -1.012  52.739  1.00  0.00     0.045 C 
HETATM   10  C15 UNL     1      27.669  -0.380  52.958  1.00  0.00     0.202 C 
ENDROOT
BRANCH   4  11
HETATM   11  N1  UNL     1      23.346   2.263  51.137  1.00  0.00    -0.370 N 
HETATM   12  H6  UNL     1      23.491   3.242  50.834  1.00  0.00     0.161 HD
BRANCH  11  13
HETATM   13  C6  UNL     1      22.097   1.594  51.166  1.00  0.00     0.031 A 
HETATM   14  C7  UNL     1      21.320   1.718  50.041  1.00  0.00     0.032 A 
HETATM   15  C8  UNL     1      20.086   1.112  49.954  1.00  0.00     0.046 A 
HETATM   16  C9  UNL     1      19.657   0.382  51.024  1.00  0.00     0.138 A 
HETATM   17  F1  UNL     1      18.467  -0.260  51.059  1.00  0.00    -0.204 F 
HETATM   18  C10 UNL     1      20.442   0.252  52.170  1.00  0.00     0.074 A 
HETATM   19 CL1  UNL     1      19.922  -0.684  53.577  1.00  0.00    -0.081 Cl
HETATM   20  C11 UNL     1      21.690   0.873  52.242  1.00  0.00     0.056 A 
ENDBRANCH  11  13
ENDBRANCH   4  11
BRANCH   1  21
HETATM   21  O1  UNL     1      29.058   1.847  53.054  1.00  0.00    -0.357 OA
HETATM   22  C1  UNL     1      29.319   2.095  54.444  1.00  0.00     0.209 C 
ENDBRANCH   1  21
BRANCH  10  23
HETATM   23  O2  UNL     1      28.407  -0.976  54.038  1.00  0.00    -0.380 OA
HETATM   24  C16 UNL     1      29.436  -1.617  53.403  1.00  0.00     0.202 C 
ENDBRANCH  10  23
TORSDOF 4
ENDMDL
MODEL 4
REMARK VINA RESULT:      -7.3      4.548      6.802
REMARK  4 active torsions:
REMARK  status: ('A' for Active; 'I' for Inactive)
REMARK    1  A    between atoms: O1_2  and  C2_3 
REMARK    2  A    between atoms: C5_6  and  N1_7 
REMARK    3  A    between atoms: N1_7  and  C6_8 
REMARK    4  A    between atoms: C15_21  and  O2_22 
ROOT
HETATM    1  C2  UNL     1      26.975  -0.565  53.192  1.00  0.00     0.076 C 
HETATM    2  C3  UNL     1      27.071   0.229  52.227  1.00  0.00     0.032 C 
HETATM    3  C4  UNL     1      26.274   1.294  51.602  1.00  0.00     0.219 A 
HETATM    4  C5  UNL     1      26.452   2.158  50.654  1.00  0.00     0.092 A 
HETATM    5  N2  UNL     1      27.546   2.104  51.666  1.00  0.00    -0.241 NA
HETATM    6  C12 UNL     1      27.109   2.121  52.999  1.00  0.00     0.181 C 
HETATM    7  N3  UNL     1      26.460   2.150  54.264  1.00  0.00    -0.247 NA
HETATM    8  C13 UNL     1      25.218   1.953  54.158  1.00  0.00     0.085 C 
HETATM    9  C14 UNL     1      24.871   0.888  53.441  1.00  0.00     0.045 C 
HETATM   10  C15 UNL     1      25.725  -0.200  53.800  1.00  0.00     0.202 C 
ENDROOT
BRANCH   4  11
HETATM   11  N1  UNL     1      26.726   3.054  49.629  1.00  0.00    -0.370 N 
HETATM   12  H6  UNL     1      27.369   2.705  48.897  1.00  0.00     0.161 HD
BRANCH  11  13
HETATM   13  C6  UNL     1      26.128   4.339  49.646  1.00  0.00     0.031 A 
HETATM   14  C7  UNL     1      26.753   5.304  48.895  1.00  0.00     0.032 A 
HETATM   15  C8  UNL     1      26.265   6.590  48.836  1.00  0.00     0.046 A 
HETATM   16  C9  UNL     1      25.138   6.879  49.549  1.00  0.00     0.138 A 
HETATM   17  F1  UNL     1      24.563   8.102  49.571  1.00  0.00    -0.204 F 
HETATM   18  C10 UNL     1      24.499   5.903  50.314  1.00  0.00     0.074 A 
HETATM   19 CL1  UNL     1      23.038   6.236  51.252  1.00  0.00    -0.081 Cl
HETATM   20  C11 UNL     1      25.007   4.603  50.364  1.00  0.00     0.056 A 
ENDBRANCH  11  13
ENDBRANCH   4  11
BRANCH   1  21
HETATM   21  O1  UNL     1      27.990  -1.473  53.421  1.00  0.00    -0.357 OA
HETATM   22  C1  UNL     1      29.282  -0.885  53.643  1.00  0.00     0.209 C 
ENDBRANCH   1  21
BRANCH  10  23
HETATM   23  O2  UNL     1      25.729  -0.457  55.214  1.00  0.00    -0.380 OA
HETATM   24  C16 UNL     1      24.613  -1.228  55.399  1.00  0.00     0.202 C 
ENDBRANCH  10  23
TORSDOF 4
ENDMDL
MODEL 5
REMARK VINA RESULT:      -7.1      1.727      2.565
REMARK  4 active torsions:
REMARK  status: ('A' for Active; 'I' for Inactive)
REMARK    1  A    between atoms: O1_2  and  C2_3 
REMARK    2  A    between atoms: C5_6  and  N1_7 
REMARK    3  A    between atoms: N1_7  and  C6_8 
REMARK    4  A    between atoms: C15_21  and  O2_22 
ROOT
HETATM    1  C2  UNL     1      23.902   4.718  50.270  1.00  0.00     0.076 C 
HETATM    2  C3  UNL     1      24.338   3.706  50.866  1.00  0.00     0.032 C 
HETATM    3  C4  UNL     1      24.165   3.042  52.166  1.00  0.00     0.219 A 
HETATM    4  C5  UNL     1      24.568   1.939  52.711  1.00  0.00     0.092 A 
HETATM    5  N2  UNL     1      23.975   1.786  51.352  1.00  0.00    -0.241 NA
HETATM    6  C12 UNL     1      22.754   2.451  51.170  1.00  0.00     0.181 C 
HETATM    7  N3  UNL     1      21.539   3.189  51.198  1.00  0.00    -0.247 NA
HETATM    8  C13 UNL     1      21.463   3.930  52.217  1.00  0.00     0.085 C 
HETATM    9  C14 UNL     1      22.525   4.702  52.437  1.00  0.00     0.045 C 
HETATM   10  C15 UNL     1      22.945   5.263  51.193  1.00  0.00     0.202 C 
ENDROOT
BRANCH   4  11
HETATM   11  N1  UNL     1      25.041   0.737  53.220  1.00  0.00    -0.370 N 
HETATM   12  H6  UNL     1      24.312   0.060  53.507  1.00  0.00     0.161 HD
BRANCH  11  13
HETATM   13  C6  UNL     1      26.439   0.518  53.308  1.00  0.00     0.031 A 
HETATM   14  C7  UNL     1      27.211   1.634  53.517  1.00  0.00     0.032 A 
HETATM   15  C8  UNL     1      28.582   1.546  53.620  1.00  0.00     0.046 A 
HETATM   16  C9  UNL     1      29.152   0.312  53.506  1.00  0.00     0.138 A 
HETATM   17  F1  UNL     1      30.484   0.095  53.589  1.00  0.00    -0.204 F 
HETATM   18  C10 UNL     1      28.373  -0.826  53.294  1.00  0.00     0.074 A 
HETATM   19 CL1  UNL     1      29.072  -2.443  53.141  1.00  0.00    -0.081 Cl
HETATM   20  C11 UNL     1      26.984  -0.719  53.192  1.00  0.00     0.056 A 
ENDBRANCH  11  13
ENDBRANCH   4  11
BRANCH   1  21
HETATM   21  O1  UNL     1      24.376   5.012  49.005  1.00  0.00    -0.357 OA
HETATM   22  C1  UNL     1      25.495   5.912  48.978  1.00  0.00     0.209 C 
ENDBRANCH   1  21
BRANCH  10  23
HETATM   23  O2  UNL     1      21.886   5.954  50.511  1.00  0.00    -0.380 OA
HETATM   24  C16 UNL     1      22.211   7.274  50.674  1.00  0.00     0.202 C 
ENDBRANCH  10  23
TORSDOF 4
ENDMDL
MODEL 6
REMARK VINA RESULT:      -7.0      4.471      7.140
REMARK  4 active torsions:
REMARK  status: ('A' for Active; 'I' for Inactive)
REMARK    1  A    between atoms: O1_2  and  C2_3 
REMARK    2  A    between atoms: C5_6  and  N1_7 
REMARK    3  A    between atoms: N1_7  and  C6_8 
REMARK    4  A    between atoms: C15_21  and  O2_22 
ROOT
HETATM    1  C2  UNL     1      27.968   1.067  52.813  1.00  0.00     0.076 C 
HETATM    2  C3  UNL     1      26.927   1.586  52.348  1.00  0.00     0.032 C 
HETATM    3  C4  UNL     1      25.597   1.156  51.893  1.00  0.00     0.219 A 
HETATM    4  C5  UNL     1      24.510   1.742  51.503  1.00  0.00     0.092 A 
HETATM    5  N2  UNL     1      25.079   2.263  52.778  1.00  0.00    -0.241 NA
HETATM    6  C12 UNL     1      25.432   1.273  53.707  1.00  0.00     0.181 C 
HETATM    7  N3  UNL     1      25.717   0.124  54.496  1.00  0.00    -0.247 NA
HETATM    8  C13 UNL     1      25.657  -0.938  53.816  1.00  0.00     0.085 C 
HETATM    9  C14 UNL     1      26.351  -0.924  52.681  1.00  0.00     0.045 C 
HETATM   10  C15 UNL     1      27.622  -0.323  52.931  1.00  0.00     0.202 C 
ENDROOT
BRANCH   4  11
HETATM   11  N1  UNL     1      23.384   2.447  51.100  1.00  0.00    -0.370 N 
HETATM   12  H6  UNL     1      22.482   1.960  51.242  1.00  0.00     0.161 HD
BRANCH  11  13
HETATM   13  C6  UNL     1      23.534   3.742  50.542  1.00  0.00     0.031 A 
HETATM   14  C7  UNL     1      24.519   3.879  49.596  1.00  0.00     0.032 A 
HETATM   15  C8  UNL     1      24.758   5.090  48.984  1.00  0.00     0.046 A 
HETATM   16  C9  UNL     1      23.985   6.153  49.348  1.00  0.00     0.138 A 
HETATM   17  F1  UNL     1      24.122   7.390  48.821  1.00  0.00    -0.204 F 
HETATM   18  C10 UNL     1      22.982   6.019  50.309  1.00  0.00     0.074 A 
HETATM   19 CL1  UNL     1      21.959   7.371  50.810  1.00  0.00    -0.081 Cl
HETATM   20  C11 UNL     1      22.753   4.785  50.920  1.00  0.00     0.056 A 
ENDBRANCH  11  13
ENDBRANCH   4  11
BRANCH   1  21
HETATM   21  O1  UNL     1      29.057   1.870  53.091  1.00  0.00    -0.357 OA
HETATM   22  C1  UNL     1      29.331   2.047  54.490  1.00  0.00     0.209 C 
ENDBRANCH   1  21
BRANCH  10  23
HETATM   23  O2  UNL     1      28.331  -0.956  54.009  1.00  0.00    -0.380 OA
HETATM   24  C16 UNL     1      29.365  -1.593  53.378  1.00  0.00     0.202 C 
ENDBRANCH  10  23
TORSDOF 4
ENDMDL
MODEL 7
REMARK VINA RESULT:      -7.0      1.932      2.680
REMARK  4 active torsions:
REMARK  status: ('A' for Active; 'I' for Inactive)
REMARK    1  A    between atoms: O1_2  and  C2_3 
REMARK    2  A    between atoms: C5_6  and  N1_7 
REMARK    3  A    between atoms: N1_7  and  C6_8 
REMARK    4  A    between atoms: C15_21  and  O2_22 
ROOT
HETATM    1  C2  UNL     1      19.833   2.709  51.998  1.00  0.00     0.076 C 
HETATM    2  C3  UNL     1      21.027   2.945  52.292  1.00  0.00     0.032 C 
HETATM    3  C4  UNL     1      22.282   2.199  52.460  1.00  0.00     0.219 A 
HETATM    4  C5  UNL     1      23.523   2.497  52.676  1.00  0.00     0.092 A 
HETATM    5  N2  UNL     1      22.880   3.258  51.567  1.00  0.00    -0.241 NA
HETATM    6  C12 UNL     1      22.160   2.468  50.659  1.00  0.00     0.181 C 
HETATM    7  N3  UNL     1      21.494   1.495  49.864  1.00  0.00    -0.247 NA
HETATM    8  C13 UNL     1      21.425   0.379  50.449  1.00  0.00     0.085 C 
HETATM    9  C14 UNL     1      20.955   0.419  51.693  1.00  0.00     0.045 C 
HETATM   10  C15 UNL     1      19.829   1.298  51.726  1.00  0.00     0.202 C 
ENDROOT
BRANCH   4  11
HETATM   11  N1  UNL     1      24.832   2.902  52.906  1.00  0.00    -0.370 N 
HETATM   12  H6  UNL     1      24.961   3.920  53.044  1.00  0.00     0.161 HD
BRANCH  11  13
HETATM   13  C6  UNL     1      25.867   1.935  52.938  1.00  0.00     0.031 A 
HETATM   14  C7  UNL     1      25.640   0.786  52.220  1.00  0.00     0.032 A 
HETATM   15  C8  UNL     1      26.574  -0.225  52.177  1.00  0.00     0.046 A 
HETATM   16  C9  UNL     1      27.736  -0.051  52.871  1.00  0.00     0.138 A 
HETATM   17  F1  UNL     1      28.728  -0.969  52.906  1.00  0.00    -0.204 F 
HETATM   18  C10 UNL     1      27.972   1.113  53.602  1.00  0.00     0.074 A 
HETATM   19 CL1  UNL     1      29.462   1.378  54.515  1.00  0.00    -0.081 Cl
HETATM   20  C11 UNL     1      27.014   2.129  53.636  1.00  0.00     0.056 A 
ENDBRANCH  11  13
ENDBRANCH   4  11
BRANCH   1  21
HETATM   21  O1  UNL     1      18.923   3.749  51.983  1.00  0.00    -0.357 OA
HETATM   22  C1  UNL     1      18.769   4.393  50.709  1.00  0.00     0.209 C 
ENDBRANCH   1  21
BRANCH  10  23
HETATM   23  O2  UNL     1      18.824   0.946  50.761  1.00  0.00    -0.380 OA
HETATM   24  C16 UNL     1      17.897   0.264  51.503  1.00  0.00     0.202 C 
ENDBRANCH  10  23
TORSDOF 4
ENDMDL
MODEL 8
REMARK VINA RESULT:      -6.9      4.047      6.881
REMARK  4 active torsions:
REMARK  status: ('A' for Active; 'I' for Inactive)
REMARK    1  A    between atoms: O1_2  and  C2_3 
REMARK    2  A    between atoms: C5_6  and  N1_7 
REMARK    3  A    between atoms: N1_7  and  C6_8 
REMARK    4  A    between atoms: C15_21  and  O2_22 
ROOT
HETATM    1  C2  UNL     1      26.925   1.542  51.943  1.00  0.00     0.076 C 
HETATM    2  C3  UNL     1      25.723   1.226  52.097  1.00  0.00     0.032 C 
HETATM    3  C4  UNL     1      24.941   0.211  52.816  1.00  0.00     0.219 A 
HETATM    4  C5  UNL     1      23.685  -0.026  53.023  1.00  0.00     0.092 A 
HETATM    5  N2  UNL     1      24.111   1.377  53.294  1.00  0.00    -0.241 NA
HETATM    6  C12 UNL     1      25.272   1.493  54.072  1.00  0.00     0.181 C 
HETATM    7  N3  UNL     1      26.449   1.388  54.864  1.00  0.00    -0.247 NA
HETATM    8  C13 UNL     1      26.904   0.210  54.874  1.00  0.00     0.085 C 
HETATM    9  C14 UNL     1      27.054  -0.349  53.676  1.00  0.00     0.045 C 
HETATM   10  C15 UNL     1      27.624   0.616  52.791  1.00  0.00     0.202 C 
ENDROOT
BRANCH   4  11
HETATM   11  N1  UNL     1      22.319  -0.206  53.198  1.00  0.00    -0.370 N 
HETATM   12  H6  UNL     1      22.042  -0.646  54.093  1.00  0.00     0.161 HD
BRANCH  11  13
HETATM   13  C6  UNL     1      21.424   0.209  52.180  1.00  0.00     0.031 A 
HETATM   14  C7  UNL     1      20.095   0.243  52.524  1.00  0.00     0.032 A 
HETATM   15  C8  UNL     1      19.133   0.630  51.618  1.00  0.00     0.046 A 
HETATM   16  C9  UNL     1      19.540   0.979  50.363  1.00  0.00     0.138 A 
HETATM   17  F1  UNL     1      18.693   1.376  49.387  1.00  0.00    -0.204 F 
HETATM   18  C10 UNL     1      20.889   0.946  50.008  1.00  0.00     0.074 A 
HETATM   19 CL1  UNL     1      21.459   1.389  48.395  1.00  0.00    -0.081 Cl
HETATM   20  C11 UNL     1      21.853   0.551  50.939  1.00  0.00     0.056 A 
ENDBRANCH  11  13
ENDBRANCH   4  11
BRANCH   1  21
HETATM   21  O1  UNL     1      27.244   2.599  51.112  1.00  0.00    -0.357 OA
HETATM   22  C1  UNL     1      26.116   3.232  50.487  1.00  0.00     0.209 C 
ENDBRANCH   1  21
BRANCH  10  23
HETATM   23  O2  UNL     1      28.845   1.179  53.299  1.00  0.00    -0.380 OA
HETATM   24  C16 UNL     1      29.689   0.104  53.360  1.00  0.00     0.202 C 
ENDBRANCH  10  23
TORSDOF 4
ENDMDL
MODEL 9
REMARK VINA RESULT:      -6.7      2.794      4.353
REMARK  4 active torsions:
REMARK  status: ('A' for Active; 'I' for Inactive)
REMARK    1  A    between atoms: O1_2  and  C2_3 
REMARK    2  A    between atoms: C5_6  and  N1_7 
REMARK    3  A    between atoms: N1_7  and  C6_8 
REMARK    4  A    between atoms: C15_21  and  O2_22 
ROOT
HETATM    1  C2  UNL     1      18.804   0.661  51.162  1.00  0.00     0.076 C 
HETATM    2  C3  UNL     1      19.838   0.208  51.705  1.00  0.00     0.032 C 
HETATM    3  C4  UNL     1      21.268   0.540  51.786  1.00  0.00     0.219 A 
HETATM    4  C5  UNL     1      22.294   0.095  52.438  1.00  0.00     0.092 A 
HETATM    5  N2  UNL     1      21.091   0.369  53.274  1.00  0.00    -0.241 NA
HETATM    6  C12 UNL     1      20.488   1.614  53.040  1.00  0.00     0.181 C 
HETATM    7  N3  UNL     1      20.039   2.906  52.651  1.00  0.00    -0.247 NA
HETATM    8  C13 UNL     1      20.600   3.298  51.590  1.00  0.00     0.085 C 
HETATM    9  C14 UNL     1      20.570   2.432  50.581  1.00  0.00     0.045 C 
HETATM   10  C15 UNL     1      19.265   1.857  50.512  1.00  0.00     0.202 C 
ENDROOT
BRANCH   4  11
HETATM   11  N1  UNL     1      23.340  -0.440  53.177  1.00  0.00    -0.370 N 
HETATM   12  H6  UNL     1      23.184  -1.400  53.534  1.00  0.00     0.161 HD
BRANCH  11  13
HETATM   13  C6  UNL     1      24.512   0.329  53.388  1.00  0.00     0.031 A 
HETATM   14  C7  UNL     1      24.459   1.634  52.966  1.00  0.00     0.032 A 
HETATM   15  C8  UNL     1      25.537   2.478  53.118  1.00  0.00     0.046 A 
HETATM   16  C9  UNL     1      26.664   1.976  53.700  1.00  0.00     0.138 A 
HETATM   17  F1  UNL     1      27.785   2.703  53.905  1.00  0.00    -0.204 F 
HETATM   18  C10 UNL     1      26.724   0.650  54.130  1.00  0.00     0.074 A 
HETATM   19 CL1  UNL     1      28.164  -0.039  54.889  1.00  0.00    -0.081 Cl
HETATM   20  C11 UNL     1      25.622  -0.193  53.969  1.00  0.00     0.056 A 
ENDBRANCH  11  13
ENDBRANCH   4  11
BRANCH   1  21
HETATM   21  O1  UNL     1      17.607  -0.011  51.326  1.00  0.00    -0.357 OA
HETATM   22  C1  UNL     1      16.940  -0.354  50.101  1.00  0.00     0.209 C 
ENDBRANCH   1  21
BRANCH  10  23
HETATM   23  O2  UNL     1      18.227   2.847  50.427  1.00  0.00    -0.380 OA
HETATM   24  C16 UNL     1      18.063   3.020  49.079  1.00  0.00     0.202 C 
ENDBRANCH  10  23
TORSDOF 4
ENDMDL
