MODEL 1
REMARK VINA RESULT:      -7.7      0.000      0.000
REMARK  6 active torsions:
REMARK  status: ('A' for Active; 'I' for Inactive)
REMARK    1  A    between atoms: C3_3  and  C4_4 
REMARK    2  A    between atoms: C4_4  and  C5_5 
REMARK    3  A    between atoms: N1_6  and  C6_7 
REMARK    4  A    between atoms: C6_7  and  C8_11 
REMARK    5  A    between atoms: C7_8  and  S1_9 
REMARK    6  A    between atoms: C16_20  and  N2_21 
ROOT
HETATM    1  C5  UNL     1      25.651   2.433  51.452  1.00  0.00     0.095 C 
HETATM    2  N1  UNL     1      25.235   1.323  51.909  1.00  0.00    -0.264 NA
ENDROOT
BRANCH   1   3
HETATM    3  C4  UNL     1      24.773   3.007  50.382  1.00  0.00     0.087 C 
BRANCH   3   4
HETATM    4  C3  UNL     1      24.736   4.491  50.439  1.00  0.00    -0.027 A 
HETATM    5  C2  UNL     1      25.461   5.433  49.856  1.00  0.00    -0.039 A 
HETATM    6  C1  UNL     1      26.539   5.031  48.956  1.00  0.00     0.046 C 
HETATM    7  C16 UNL     1      24.999   6.786  50.264  1.00  0.00     0.271 A 
HETATM    8  C15 UNL     1      23.885   6.428  51.180  1.00  0.00     0.037 A 
HETATM    9  C14 UNL     1      23.725   5.115  51.288  1.00  0.00     0.039 A 
HETATM   10 CL1  UNL     1      22.452   4.524  52.332  1.00  0.00    -0.084 Cl
BRANCH   7  11
HETATM   11  N2  UNL     1      26.042   7.355  51.083  1.00  0.00     0.090 N 
HETATM   12  H15 UNL     1      25.667   7.774  51.967  1.00  0.00     0.314 HD
HETATM   13  H16 UNL     1      26.878   6.776  51.189  1.00  0.00     0.314 HD
ENDBRANCH   7  11
ENDBRANCH   3   4
ENDBRANCH   1   3
BRANCH   2  14
HETATM   14  C6  UNL     1      25.824   0.534  52.909  1.00  0.00     0.073 C 
HETATM   15  C7  UNL     1      24.768   0.147  53.610  1.00  0.00     0.088 C 
BRANCH  15  16
HETATM   16  S1  UNL     1      23.216   0.773  52.986  1.00  0.00    -0.062 SA
HETATM   17  I1  UNL     1      21.351  -0.334  54.133  1.00  0.00     0.001 I 
ENDBRANCH  15  16
BRANCH  14  18
HETATM   18  C8  UNL     1      27.218   0.193  53.164  1.00  0.00    -0.007 A 
HETATM   19  C9  UNL     1      28.144   1.091  53.642  1.00  0.00     0.014 A 
HETATM   20  C10 UNL     1      29.423   0.612  53.830  1.00  0.00     0.001 A 
HETATM   21  C11 UNL     1      29.789  -0.696  53.563  1.00  0.00     0.000 A 
HETATM   22  C12 UNL     1      28.825  -1.568  53.083  1.00  0.00     0.001 A 
HETATM   23  C13 UNL     1      27.538  -1.119  52.884  1.00  0.00     0.014 A 
ENDBRANCH  14  18
ENDBRANCH   2  14
TORSDOF 6
ENDMDL
MODEL 2
REMARK VINA RESULT:      -7.6      3.696      6.494
REMARK  6 active torsions:
REMARK  status: ('A' for Active; 'I' for Inactive)
REMARK    1  A    between atoms: C3_3  and  C4_4 
REMARK    2  A    between atoms: C4_4  and  C5_5 
REMARK    3  A    between atoms: N1_6  and  C6_7 
REMARK    4  A    between atoms: C6_7  and  C8_11 
REMARK    5  A    between atoms: C7_8  and  S1_9 
REMARK    6  A    between atoms: C16_20  and  N2_21 
ROOT
HETATM    1  C5  UNL     1      25.114   0.696  52.171  1.00  0.00     0.095 C 
HETATM    2  N1  UNL     1      24.293   1.646  52.362  1.00  0.00    -0.264 NA
ENDROOT
BRANCH   1   3
HETATM    3  C4  UNL     1      26.487   1.159  51.791  1.00  0.00     0.087 C 
BRANCH   3   4
HETATM    4  C3  UNL     1      27.528   0.580  52.679  1.00  0.00    -0.027 A 
HETATM    5  C2  UNL     1      28.461   1.123  53.446  1.00  0.00    -0.039 A 
HETATM    6  C1  UNL     1      28.566   2.579  53.497  1.00  0.00     0.046 C 
HETATM    7  C16 UNL     1      29.255   0.075  54.138  1.00  0.00     0.271 A 
HETATM    8  C15 UNL     1      28.596  -1.152  53.618  1.00  0.00     0.037 A 
HETATM    9  C14 UNL     1      27.606  -0.874  52.781  1.00  0.00     0.039 A 
HETATM   10 CL1  UNL     1      26.724  -2.211  52.076  1.00  0.00    -0.084 Cl
BRANCH   7  11
HETATM   11  N2  UNL     1      30.580   0.107  53.567  1.00  0.00     0.090 N 
HETATM   12  H15 UNL     1      31.327   0.017  54.295  1.00  0.00     0.314 HD
HETATM   13  H16 UNL     1      30.708  -0.466  52.730  1.00  0.00     0.314 HD
ENDBRANCH   7  11
ENDBRANCH   3   4
ENDBRANCH   1   3
BRANCH   2  14
HETATM   14  C6  UNL     1      22.941   1.548  52.727  1.00  0.00     0.073 C 
HETATM   15  C7  UNL     1      22.486   2.755  52.422  1.00  0.00     0.088 C 
BRANCH  15  16
HETATM   16  S1  UNL     1      23.728   3.845  51.743  1.00  0.00    -0.062 SA
HETATM   17  I1  UNL     1      23.538   3.902  49.297  1.00  0.00     0.001 I 
ENDBRANCH  15  16
BRANCH  14  18
HETATM   18  C8  UNL     1      22.179   0.443  53.294  1.00  0.00    -0.007 A 
HETATM   19  C9  UNL     1      22.735  -0.539  54.080  1.00  0.00     0.014 A 
HETATM   20  C10 UNL     1      21.879  -1.516  54.540  1.00  0.00     0.001 A 
HETATM   21  C11 UNL     1      20.527  -1.539  54.246  1.00  0.00     0.000 A 
HETATM   22  C12 UNL     1      20.006  -0.530  53.451  1.00  0.00     0.001 A 
HETATM   23  C13 UNL     1      20.837   0.460  52.975  1.00  0.00     0.014 A 
ENDBRANCH  14  18
ENDBRANCH   2  14
TORSDOF 6
ENDMDL
MODEL 3
REMARK VINA RESULT:      -7.4      2.746      6.596
REMARK  6 active torsions:
REMARK  status: ('A' for Active; 'I' for Inactive)
REMARK    1  A    between atoms: C3_3  and  C4_4 
REMARK    2  A    between atoms: C4_4  and  C5_5 
REMARK    3  A    between atoms: N1_6  and  C6_7 
REMARK    4  A    between atoms: C6_7  and  C8_11 
REMARK    5  A    between atoms: C7_8  and  S1_9 
REMARK    6  A    between atoms: C16_20  and  N2_21 
ROOT
HETATM    1  C5  UNL     1      25.244   3.191  51.639  1.00  0.00     0.095 C 
HETATM    2  N1  UNL     1      24.454   3.864  50.906  1.00  0.00    -0.264 NA
ENDROOT
BRANCH   1   3
HETATM    3  C4  UNL     1      24.623   2.730  52.922  1.00  0.00     0.087 C 
BRANCH   3   4
HETATM    4  C3  UNL     1      25.149   1.405  53.342  1.00  0.00    -0.027 A 
HETATM    5  C2  UNL     1      24.576   0.223  53.515  1.00  0.00    -0.039 A 
HETATM    6  C1  UNL     1      23.142   0.096  53.266  1.00  0.00     0.046 C 
HETATM    7  C16 UNL     1      25.572  -0.789  53.952  1.00  0.00     0.271 A 
HETATM    8  C15 UNL     1      26.804   0.042  53.992  1.00  0.00     0.037 A 
HETATM    9  C14 UNL     1      26.573   1.300  53.644  1.00  0.00     0.039 A 
HETATM   10 CL1  UNL     1      27.923   2.414  53.639  1.00  0.00    -0.084 Cl
BRANCH   7  11
HETATM   11  N2  UNL     1      25.255  -1.125  55.319  1.00  0.00     0.090 N 
HETATM   12  H15 UNL     1      25.462  -0.338  55.978  1.00  0.00     0.314 HD
HETATM   13  H16 UNL     1      24.356  -1.591  55.456  1.00  0.00     0.314 HD
ENDBRANCH   7  11
ENDBRANCH   3   4
ENDBRANCH   1   3
BRANCH   2  14
HETATM   14  C6  UNL     1      24.727   4.434  49.652  1.00  0.00     0.073 C 
HETATM   15  C7  UNL     1      23.566   4.290  49.028  1.00  0.00     0.088 C 
BRANCH  15  16
HETATM   16  S1  UNL     1      22.307   3.497  50.016  1.00  0.00    -0.062 SA
HETATM   17  I1  UNL     1      21.486   1.493  48.863  1.00  0.00     0.001 I 
ENDBRANCH  15  16
BRANCH  14  18
HETATM   18  C8  UNL     1      25.940   5.038  49.117  1.00  0.00    -0.007 A 
HETATM   19  C9  UNL     1      27.139   4.371  49.014  1.00  0.00     0.014 A 
HETATM   20  C10 UNL     1      28.194   5.084  48.485  1.00  0.00     0.001 A 
HETATM   21  C11 UNL     1      28.088   6.400  48.072  1.00  0.00     0.000 A 
HETATM   22  C12 UNL     1      26.862   7.035  48.193  1.00  0.00     0.001 A 
HETATM   23  C13 UNL     1      25.789   6.350  48.718  1.00  0.00     0.014 A 
ENDBRANCH  14  18
ENDBRANCH   2  14
TORSDOF 6
ENDMDL
MODEL 4
REMARK VINA RESULT:      -7.4      1.451      1.978
REMARK  6 active torsions:
REMARK  status: ('A' for Active; 'I' for Inactive)
REMARK    1  A    between atoms: C3_3  and  C4_4 
REMARK    2  A    between atoms: C4_4  and  C5_5 
REMARK    3  A    between atoms: N1_6  and  C6_7 
REMARK    4  A    between atoms: C6_7  and  C8_11 
REMARK    5  A    between atoms: C7_8  and  S1_9 
REMARK    6  A    between atoms: C16_20  and  N2_21 
ROOT
HETATM    1  C5  UNL     1      25.495   2.216  51.539  1.00  0.00     0.095 C 
HETATM    2  N1  UNL     1      25.059   1.173  52.119  1.00  0.00    -0.264 NA
ENDROOT
BRANCH   1   3
HETATM    3  C4  UNL     1      24.491   2.861  50.633  1.00  0.00     0.087 C 
BRANCH   3   4
HETATM    4  C3  UNL     1      24.511   4.342  50.757  1.00  0.00    -0.027 A 
HETATM    5  C2  UNL     1      23.767   5.198  51.441  1.00  0.00    -0.039 A 
HETATM    6  C1  UNL     1      22.683   4.678  52.270  1.00  0.00     0.046 C 
HETATM    7  C16 UNL     1      24.217   6.595  51.207  1.00  0.00     0.271 A 
HETATM    8  C15 UNL     1      25.347   6.363  50.270  1.00  0.00     0.037 A 
HETATM    9  C14 UNL     1      25.525   5.075  50.005  1.00  0.00     0.039 A 
HETATM   10 CL1  UNL     1      26.818   4.629  48.915  1.00  0.00    -0.084 Cl
BRANCH   7  11
HETATM   11  N2  UNL     1      23.178   7.249  50.448  1.00  0.00     0.090 N 
HETATM   12  H15 UNL     1      22.400   6.594  50.198  1.00  0.00     0.314 HD
HETATM   13  H16 UNL     1      22.889   8.163  50.803  1.00  0.00     0.314 HD
ENDBRANCH   7  11
ENDBRANCH   3   4
ENDBRANCH   1   3
BRANCH   2  14
HETATM   14  C6  UNL     1      25.744   0.345  53.022  1.00  0.00     0.073 C 
HETATM   15  C7  UNL     1      24.748  -0.287  53.625  1.00  0.00     0.088 C 
BRANCH  15  16
HETATM   16  S1  UNL     1      23.129   0.186  53.037  1.00  0.00    -0.062 SA
HETATM   17  I1  UNL     1      21.401  -0.992  54.320  1.00  0.00     0.001 I 
ENDBRANCH  15  16
BRANCH  14  18
HETATM   18  C8  UNL     1      27.169   0.180  53.278  1.00  0.00    -0.007 A 
HETATM   19  C9  UNL     1      27.978   1.185  53.756  1.00  0.00     0.014 A 
HETATM   20  C10 UNL     1      29.305   0.868  53.945  1.00  0.00     0.001 A 
HETATM   21  C11 UNL     1      29.831  -0.384  53.678  1.00  0.00     0.000 A 
HETATM   22  C12 UNL     1      28.983  -1.369  53.197  1.00  0.00     0.001 A 
HETATM   23  C13 UNL     1      27.651  -1.082  52.997  1.00  0.00     0.014 A 
ENDBRANCH  14  18
ENDBRANCH   2  14
TORSDOF 6
ENDMDL
MODEL 5
REMARK VINA RESULT:      -7.0      2.348      3.058
REMARK  6 active torsions:
REMARK  status: ('A' for Active; 'I' for Inactive)
REMARK    1  A    between atoms: C3_3  and  C4_4 
REMARK    2  A    between atoms: C4_4  and  C5_5 
REMARK    3  A    between atoms: N1_6  and  C6_7 
REMARK    4  A    between atoms: C6_7  and  C8_11 
REMARK    5  A    between atoms: C7_8  and  S1_9 
REMARK    6  A    between atoms: C16_20  and  N2_21 
ROOT
HETATM    1  C5  UNL     1      25.329   2.421  52.601  1.00  0.00     0.095 C 
HETATM    2  N1  UNL     1      24.815   1.379  53.116  1.00  0.00    -0.264 NA
ENDROOT
BRANCH   1   3
HETATM    3  C4  UNL     1      24.337   3.516  52.351  1.00  0.00     0.087 C 
BRANCH   3   4
HETATM    4  C3  UNL     1      23.598   3.308  51.079  1.00  0.00    -0.027 A 
HETATM    5  C2  UNL     1      22.313   3.144  50.801  1.00  0.00    -0.039 A 
HETATM    6  C1  UNL     1      21.351   3.157  51.899  1.00  0.00     0.046 C 
HETATM    7  C16 UNL     1      22.106   2.971  49.339  1.00  0.00     0.271 A 
HETATM    8  C15 UNL     1      23.507   3.068  48.853  1.00  0.00     0.037 A 
HETATM    9  C14 UNL     1      24.370   3.261  49.841  1.00  0.00     0.039 A 
HETATM   10 CL1  UNL     1      26.067   3.397  49.438  1.00  0.00    -0.084 Cl
BRANCH   7  11
HETATM   11  N2  UNL     1      21.690   1.605  49.134  1.00  0.00     0.090 N 
HETATM   12  H15 UNL     1      22.346   0.920  49.580  1.00  0.00     0.314 HD
HETATM   13  H16 UNL     1      20.695   1.425  49.285  1.00  0.00     0.314 HD
ENDBRANCH   7  11
ENDBRANCH   3   4
ENDBRANCH   1   3
BRANCH   2  14
HETATM   14  C6  UNL     1      25.469   0.188  53.469  1.00  0.00     0.073 C 
HETATM   15  C7  UNL     1      24.453  -0.651  53.608  1.00  0.00     0.088 C 
BRANCH  15  16
HETATM   16  S1  UNL     1      22.856   0.088  53.300  1.00  0.00    -0.062 SA
HETATM   17  I1  UNL     1      21.089  -1.321  54.254  1.00  0.00     0.001 I 
ENDBRANCH  15  16
BRANCH  14  18
HETATM   18  C8  UNL     1      26.883  -0.111  53.651  1.00  0.00    -0.007 A 
HETATM   19  C9  UNL     1      27.714   0.613  54.475  1.00  0.00     0.014 A 
HETATM   20  C10 UNL     1      29.027   0.201  54.538  1.00  0.00     0.001 A 
HETATM   21  C11 UNL     1      29.519  -0.877  53.824  1.00  0.00     0.000 A 
HETATM   22  C12 UNL     1      28.649  -1.580  53.005  1.00  0.00     0.001 A 
HETATM   23  C13 UNL     1      27.330  -1.193  52.921  1.00  0.00     0.014 A 
ENDBRANCH  14  18
ENDBRANCH   2  14
TORSDOF 6
ENDMDL
MODEL 6
REMARK VINA RESULT:      -6.8      3.810      4.996
REMARK  6 active torsions:
REMARK  status: ('A' for Active; 'I' for Inactive)
REMARK    1  A    between atoms: C3_3  and  C4_4 
REMARK    2  A    between atoms: C4_4  and  C5_5 
REMARK    3  A    between atoms: N1_6  and  C6_7 
REMARK    4  A    between atoms: C6_7  and  C8_11 
REMARK    5  A    between atoms: C7_8  and  S1_9 
REMARK    6  A    between atoms: C16_20  and  N2_21 
ROOT
HETATM    1  C5  UNL     1      24.025   1.998  52.647  1.00  0.00     0.095 C 
HETATM    2  N1  UNL     1      24.844   2.453  51.789  1.00  0.00    -0.264 NA
ENDROOT
BRANCH   1   3
HETATM    3  C4  UNL     1      22.673   2.641  52.584  1.00  0.00     0.087 C 
BRANCH   3   4
HETATM    4  C3  UNL     1      21.661   1.734  51.983  1.00  0.00    -0.027 A 
HETATM    5  C2  UNL     1      21.176   1.614  50.756  1.00  0.00    -0.039 A 
HETATM    6  C1  UNL     1      21.674   2.508  49.715  1.00  0.00     0.046 C 
HETATM    7  C16 UNL     1      20.163   0.528  50.692  1.00  0.00     0.271 A 
HETATM    8  C15 UNL     1      20.171   0.065  52.104  1.00  0.00     0.037 A 
HETATM    9  C14 UNL     1      21.026   0.749  52.852  1.00  0.00     0.039 A 
HETATM   10 CL1  UNL     1      21.159   0.327  54.545  1.00  0.00    -0.084 Cl
BRANCH   7  11
HETATM   11  N2  UNL     1      18.884   1.161  50.472  1.00  0.00     0.090 N 
HETATM   12  H15 UNL     1      18.369   1.334  51.367  1.00  0.00     0.314 HD
HETATM   13  H16 UNL     1      18.891   1.939  49.809  1.00  0.00     0.314 HD
ENDBRANCH   7  11
ENDBRANCH   3   4
ENDBRANCH   1   3
BRANCH   2  14
HETATM   14  C6  UNL     1      26.178   2.065  51.590  1.00  0.00     0.073 C 
HETATM   15  C7  UNL     1      26.524   2.799  50.543  1.00  0.00     0.088 C 
BRANCH  15  16
HETATM   16  S1  UNL     1      25.217   3.854  49.935  1.00  0.00    -0.062 SA
HETATM   17  I1  UNL     1      26.171   5.924  49.027  1.00  0.00     0.001 I 
ENDBRANCH  15  16
BRANCH  14  18
HETATM   18  C8  UNL     1      27.017   1.113  52.307  1.00  0.00    -0.007 A 
HETATM   19  C9  UNL     1      26.846  -0.251  52.242  1.00  0.00     0.014 A 
HETATM   20  C10 UNL     1      27.723  -1.015  52.980  1.00  0.00     0.001 A 
HETATM   21  C11 UNL     1      28.732  -0.474  53.757  1.00  0.00     0.000 A 
HETATM   22  C12 UNL     1      28.870   0.904  53.795  1.00  0.00     0.001 A 
HETATM   23  C13 UNL     1      28.009   1.696  53.068  1.00  0.00     0.014 A 
ENDBRANCH  14  18
ENDBRANCH   2  14
TORSDOF 6
ENDMDL
MODEL 7
REMARK VINA RESULT:      -6.7      2.526      4.146
REMARK  6 active torsions:
REMARK  status: ('A' for Active; 'I' for Inactive)
REMARK    1  A    between atoms: C3_3  and  C4_4 
REMARK    2  A    between atoms: C4_4  and  C5_5 
REMARK    3  A    between atoms: N1_6  and  C6_7 
REMARK    4  A    between atoms: C6_7  and  C8_11 
REMARK    5  A    between atoms: C7_8  and  S1_9 
REMARK    6  A    between atoms: C16_20  and  N2_21 
ROOT
HETATM    1  C5  UNL     1      24.671   2.215  51.268  1.00  0.00     0.095 C 
HETATM    2  N1  UNL     1      25.193   1.169  51.766  1.00  0.00    -0.264 NA
ENDROOT
BRANCH   1   3
HETATM    3  C4  UNL     1      25.569   2.932  50.306  1.00  0.00     0.087 C 
BRANCH   3   4
HETATM    4  C3  UNL     1      25.300   4.394  50.290  1.00  0.00    -0.027 A 
HETATM    5  C2  UNL     1      25.870   5.406  49.654  1.00  0.00    -0.039 A 
HETATM    6  C1  UNL     1      26.997   5.132  48.766  1.00  0.00     0.046 C 
HETATM    7  C16 UNL     1      25.203   6.690  49.997  1.00  0.00     0.271 A 
HETATM    8  C15 UNL     1      24.159   6.209  50.940  1.00  0.00     0.037 A 
HETATM    9  C14 UNL     1      24.206   4.895  51.115  1.00  0.00     0.039 A 
HETATM   10 CL1  UNL     1      23.040   4.167  52.198  1.00  0.00    -0.084 Cl
BRANCH   7  11
HETATM   11  N2  UNL     1      26.145   7.455  50.779  1.00  0.00     0.090 N 
HETATM   12  H15 UNL     1      27.129   7.339  50.438  1.00  0.00     0.314 HD
HETATM   13  H16 UNL     1      25.861   8.414  50.987  1.00  0.00     0.314 HD
ENDBRANCH   7  11
ENDBRANCH   3   4
ENDBRANCH   1   3
BRANCH   2  14
HETATM   14  C6  UNL     1      24.618   0.283  52.690  1.00  0.00     0.073 C 
HETATM   15  C7  UNL     1      25.678  -0.379  53.130  1.00  0.00     0.088 C 
BRANCH  15  16
HETATM   16  S1  UNL     1      27.216   0.140  52.387  1.00  0.00    -0.062 SA
HETATM   17  I1  UNL     1      28.199   1.966  53.698  1.00  0.00     0.001 I 
ENDBRANCH  15  16
BRANCH  14  18
HETATM   18  C8  UNL     1      23.233   0.092  53.100  1.00  0.00    -0.007 A 
HETATM   19  C9  UNL     1      22.154   0.484  52.341  1.00  0.00     0.014 A 
HETATM   20  C10 UNL     1      20.907   0.232  52.871  1.00  0.00     0.001 A 
HETATM   21  C11 UNL     1      20.713  -0.381  54.096  1.00  0.00     0.000 A 
HETATM   22  C12 UNL     1      21.826  -0.761  54.829  1.00  0.00     0.001 A 
HETATM   23  C13 UNL     1      23.087  -0.522  54.327  1.00  0.00     0.014 A 
ENDBRANCH  14  18
ENDBRANCH   2  14
TORSDOF 6
ENDMDL
MODEL 8
REMARK VINA RESULT:      -6.6      2.021      2.385
REMARK  6 active torsions:
REMARK  status: ('A' for Active; 'I' for Inactive)
REMARK    1  A    between atoms: C3_3  and  C4_4 
REMARK    2  A    between atoms: C4_4  and  C5_5 
REMARK    3  A    between atoms: N1_6  and  C6_7 
REMARK    4  A    between atoms: C6_7  and  C8_11 
REMARK    5  A    between atoms: C7_8  and  S1_9 
REMARK    6  A    between atoms: C16_20  and  N2_21 
ROOT
HETATM    1  C5  UNL     1      24.356   3.149  52.714  1.00  0.00     0.095 C 
HETATM    2  N1  UNL     1      24.237   1.894  52.873  1.00  0.00    -0.264 NA
ENDROOT
BRANCH   1   3
HETATM    3  C4  UNL     1      23.103   3.812  52.230  1.00  0.00     0.087 C 
BRANCH   3   4
HETATM    4  C3  UNL     1      23.243   4.298  50.833  1.00  0.00    -0.027 A 
HETATM    5  C2  UNL     1      23.628   5.456  50.317  1.00  0.00    -0.039 A 
HETATM    6  C1  UNL     1      24.013   6.534  51.224  1.00  0.00     0.046 C 
HETATM    7  C16 UNL     1      23.586   5.414  48.832  1.00  0.00     0.271 A 
HETATM    8  C15 UNL     1      23.108   4.024  48.613  1.00  0.00     0.037 A 
HETATM    9  C14 UNL     1      22.908   3.376  49.752  1.00  0.00     0.039 A 
HETATM   10 CL1  UNL     1      22.343   1.722  49.670  1.00  0.00    -0.084 Cl
BRANCH   7  11
HETATM   11  N2  UNL     1      22.516   6.290  48.419  1.00  0.00     0.090 N 
HETATM   12  H15 UNL     1      21.778   5.784  47.875  1.00  0.00     0.314 HD
HETATM   13  H16 UNL     1      22.173   6.929  49.139  1.00  0.00     0.314 HD
ENDBRANCH   7  11
ENDBRANCH   3   4
ENDBRANCH   1   3
BRANCH   2  14
HETATM   14  C6  UNL     1      25.218   0.991  53.312  1.00  0.00     0.073 C 
HETATM   15  C7  UNL     1      24.543  -0.148  53.354  1.00  0.00     0.088 C 
BRANCH  15  16
HETATM   16  S1  UNL     1      22.832   0.007  52.865  1.00  0.00    -0.062 SA
HETATM   17  I1  UNL     1      21.413  -1.309  54.375  1.00  0.00     0.001 I 
ENDBRANCH  15  16
BRANCH  14  18
HETATM   18  C8  UNL     1      26.622   1.190  53.650  1.00  0.00    -0.007 A 
HETATM   19  C9  UNL     1      27.368   2.255  53.201  1.00  0.00     0.014 A 
HETATM   20  C10 UNL     1      28.683   2.299  53.610  1.00  0.00     0.001 A 
HETATM   21  C11 UNL     1      29.255   1.341  54.428  1.00  0.00     0.000 A 
HETATM   22  C12 UNL     1      28.470   0.283  54.857  1.00  0.00     0.001 A 
HETATM   23  C13 UNL     1      27.151   0.211  54.465  1.00  0.00     0.014 A 
ENDBRANCH  14  18
ENDBRANCH   2  14
TORSDOF 6
ENDMDL
MODEL 9
REMARK VINA RESULT:      -6.5      2.601      3.386
REMARK  6 active torsions:
REMARK  status: ('A' for Active; 'I' for Inactive)
REMARK    1  A    between atoms: C3_3  and  C4_4 
REMARK    2  A    between atoms: C4_4  and  C5_5 
REMARK    3  A    between atoms: N1_6  and  C6_7 
REMARK    4  A    between atoms: C6_7  and  C8_11 
REMARK    5  A    between atoms: C7_8  and  S1_9 
REMARK    6  A    between atoms: C16_20  and  N2_21 
ROOT
HETATM    1  C5  UNL     1      25.720   4.616  50.192  1.00  0.00     0.095 C 
HETATM    2  N1  UNL     1      24.809   3.730  50.176  1.00  0.00    -0.264 NA
ENDROOT
BRANCH   1   3
HETATM    3  C4  UNL     1      25.752   5.464  48.958  1.00  0.00     0.087 C 
BRANCH   3   4
HETATM    4  C3  UNL     1      26.023   6.890  49.278  1.00  0.00    -0.027 A 
HETATM    5  C2  UNL     1      27.073   7.673  49.082  1.00  0.00    -0.039 A 
HETATM    6  C1  UNL     1      28.251   7.114  48.424  1.00  0.00     0.046 C 
HETATM    7  C16 UNL     1      26.818   9.041  49.604  1.00  0.00     0.271 A 
HETATM    8  C15 UNL     1      25.437   8.879  50.127  1.00  0.00     0.037 A 
HETATM    9  C14 UNL     1      24.971   7.651  49.946  1.00  0.00     0.039 A 
HETATM   10 CL1  UNL     1      23.353   7.292  50.507  1.00  0.00    -0.084 Cl
BRANCH   7  11
HETATM   11  N2  UNL     1      27.677   9.218  50.750  1.00  0.00     0.090 N 
HETATM   12  H15 UNL     1      28.667   9.420  50.475  1.00  0.00     0.314 HD
HETATM   13  H16 UNL     1      27.296   9.808  51.493  1.00  0.00     0.314 HD
ENDBRANCH   7  11
ENDBRANCH   3   4
ENDBRANCH   1   3
BRANCH   2  14
HETATM   14  C6  UNL     1      24.517   2.785  51.171  1.00  0.00     0.073 C 
HETATM   15  C7  UNL     1      23.198   2.692  51.083  1.00  0.00     0.088 C 
BRANCH  15  16
HETATM   16  S1  UNL     1      22.481   3.743  49.829  1.00  0.00    -0.062 SA
HETATM   17  I1  UNL     1      22.065   2.440  47.791  1.00  0.00     0.001 I 
ENDBRANCH  15  16
BRANCH  14  18
HETATM   18  C8  UNL     1      25.387   2.061  52.090  1.00  0.00    -0.007 A 
HETATM   19  C9  UNL     1      25.407   2.279  53.448  1.00  0.00     0.014 A 
HETATM   20  C10 UNL     1      26.287   1.512  54.180  1.00  0.00     0.001 A 
HETATM   21  C11 UNL     1      27.120   0.564  53.612  1.00  0.00     0.000 A 
HETATM   22  C12 UNL     1      27.068   0.375  52.240  1.00  0.00     0.001 A 
HETATM   23  C13 UNL     1      26.199   1.127  51.481  1.00  0.00     0.014 A 
ENDBRANCH  14  18
ENDBRANCH   2  14
TORSDOF 6
ENDMDL
