MODEL 1
REMARK VINA RESULT:      -7.3      0.000      0.000
REMARK  5 active torsions:
REMARK  status: ('A' for Active; 'I' for Inactive)
REMARK    1  A    between atoms: C2_2  and  C3_3 
REMARK    2  A    between atoms: C5_5  and  O1_6 
REMARK    3  A    between atoms: C16_18  and  C17_19 
REMARK    4  A    between atoms: C17_19  and  N2_20 
REMARK    5  A    between atoms: N2_20  and  C18_21 
ROOT
HETATM    1  C3  UNL     1      23.953   4.759  49.297  1.00  0.00     0.046 C 
HETATM    2  C4  UNL     1      24.245   5.427  50.643  1.00  0.00     0.077 C 
HETATM    3  C5  UNL     1      23.561   4.717  51.800  1.00  0.00     0.045 C 
HETATM    4  C7  UNL     1      23.883   3.718  52.692  1.00  0.00     0.035 C 
HETATM    5  C8  UNL     1      24.859   2.679  53.244  1.00  0.00     0.141 C 
HETATM    6  N1  UNL     1      25.975   2.768  52.322  1.00  0.00    -0.377 N 
HETATM    7  C9  UNL     1      25.065   2.700  51.208  1.00  0.00     0.040 A 
HETATM    8  C10 UNL     1      25.224   3.602  50.205  1.00  0.00     0.038 A 
HETATM    9  C11 UNL     1      24.094   3.235  49.564  1.00  0.00    -0.048 A 
HETATM   10  C12 UNL     1      22.969   2.518  49.352  1.00  0.00     0.009 A 
HETATM   11  C13 UNL     1      22.928   1.608  50.462  1.00  0.00     0.015 A 
HETATM   12  C14 UNL     1      24.018   1.772  51.362  1.00  0.00    -0.001 A 
HETATM   13  C15 UNL     1      24.390   1.275  52.747  1.00  0.00    -0.021 C 
HETATM   14  C16 UNL     1      24.189   0.008  53.014  1.00  0.00     0.003 C 
HETATM   15  H12 UNL     1      27.000   2.849  52.186  1.00  0.00     0.160 HD
ENDROOT
BRANCH  14  16
HETATM   16  C17 UNL     1      24.468  -0.586  54.341  1.00  0.00     0.147 C 
BRANCH  16  17
HETATM   17  N2  UNL     1      25.885  -0.710  54.620  1.00  0.00    -0.396 N 
HETATM   18  H19 UNL     1      26.298  -1.622  54.961  1.00  0.00     0.159 HD
BRANCH  17  19
HETATM   19  C18 UNL     1      27.086   0.019  54.609  1.00  0.00     0.078 C 
HETATM   20  C19 UNL     1      28.048  -0.222  53.746  1.00  0.00    -0.014 C 
HETATM   21  C20 UNL     1      29.331   0.519  53.695  1.00  0.00     0.037 C 
ENDBRANCH  17  19
ENDBRANCH  16  17
ENDBRANCH  14  16
BRANCH   3  22
HETATM   22  O1  UNL     1      22.250   5.199  52.035  1.00  0.00    -0.360 OA
HETATM   23  C6  UNL     1      21.122   4.391  52.136  1.00  0.00     0.209 C 
ENDBRANCH   3  22
BRANCH   1  24
HETATM   24  C2  UNL     1      22.556   5.029  48.871  1.00  0.00    -0.027 C 
HETATM   25  C1  UNL     1      21.414   5.598  48.555  1.00  0.00     0.007 C 
ENDBRANCH   1  24
TORSDOF 5
ENDMDL
MODEL 2
REMARK VINA RESULT:      -7.0      2.033      3.336
REMARK  5 active torsions:
REMARK  status: ('A' for Active; 'I' for Inactive)
REMARK    1  A    between atoms: C2_2  and  C3_3 
REMARK    2  A    between atoms: C5_5  and  O1_6 
REMARK    3  A    between atoms: C16_18  and  C17_19 
REMARK    4  A    between atoms: C17_19  and  N2_20 
REMARK    5  A    between atoms: N2_20  and  C18_21 
ROOT
HETATM    1  C3  UNL     1      24.670   5.027  49.102  1.00  0.00     0.046 C 
HETATM    2  C4  UNL     1      24.793   5.656  50.493  1.00  0.00     0.077 C 
HETATM    3  C5  UNL     1      23.785   5.084  51.476  1.00  0.00     0.045 C 
HETATM    4  C7  UNL     1      23.753   4.058  52.394  1.00  0.00     0.035 C 
HETATM    5  C8  UNL     1      24.415   2.879  53.109  1.00  0.00     0.141 C 
HETATM    6  N1  UNL     1      25.692   2.772  52.430  1.00  0.00    -0.377 N 
HETATM    7  C9  UNL     1      25.025   2.839  51.155  1.00  0.00     0.040 A 
HETATM    8  C10 UNL     1      25.526   3.689  50.222  1.00  0.00     0.038 A 
HETATM    9  C11 UNL     1      24.503   3.505  49.362  1.00  0.00    -0.048 A 
HETATM   10  C12 UNL     1      23.342   2.980  48.915  1.00  0.00     0.009 A 
HETATM   11  C13 UNL     1      22.931   2.104  49.976  1.00  0.00     0.015 A 
HETATM   12  C14 UNL     1      23.831   2.099  51.079  1.00  0.00    -0.001 A 
HETATM   13  C15 UNL     1      23.831   1.565  52.500  1.00  0.00    -0.021 C 
HETATM   14  C16 UNL     1      23.376   0.352  52.696  1.00  0.00     0.003 C 
HETATM   15  H12 UNL     1      26.722   2.681  52.503  1.00  0.00     0.160 HD
ENDROOT
BRANCH  14  16
HETATM   16  C17 UNL     1      23.283  -0.261  54.040  1.00  0.00     0.147 C 
BRANCH  16  17
HETATM   17  N2  UNL     1      21.918  -0.534  54.446  1.00  0.00    -0.396 N 
HETATM   18  H19 UNL     1      21.594  -0.353  55.436  1.00  0.00     0.159 HD
BRANCH  17  19
HETATM   19  C18 UNL     1      20.692  -1.015  53.958  1.00  0.00     0.078 C 
HETATM   20  C19 UNL     1      19.852  -0.254  53.291  1.00  0.00    -0.014 C 
HETATM   21  C20 UNL     1      18.547  -0.714  52.757  1.00  0.00     0.037 C 
ENDBRANCH  17  19
ENDBRANCH  16  17
ENDBRANCH  14  16
BRANCH   3  22
HETATM   22  O1  UNL     1      22.549   5.779  51.454  1.00  0.00    -0.360 OA
HETATM   23  C6  UNL     1      21.304   5.165  51.368  1.00  0.00     0.209 C 
ENDBRANCH   3  22
BRANCH   1  24
HETATM   24  C2  UNL     1      23.451   5.517  48.412  1.00  0.00    -0.027 C 
HETATM   25  C1  UNL     1      22.498   6.262  47.896  1.00  0.00     0.007 C 
ENDBRANCH   1  24
TORSDOF 5
ENDMDL
MODEL 3
REMARK VINA RESULT:      -6.6      7.604      9.886
REMARK  5 active torsions:
REMARK  status: ('A' for Active; 'I' for Inactive)
REMARK    1  A    between atoms: C2_2  and  C3_3 
REMARK    2  A    between atoms: C5_5  and  O1_6 
REMARK    3  A    between atoms: C16_18  and  C17_19 
REMARK    4  A    between atoms: C17_19  and  N2_20 
REMARK    5  A    between atoms: N2_20  and  C18_21 
ROOT
HETATM    1  C3  UNL     1      34.454   4.995  47.612  1.00  0.00     0.046 C 
HETATM    2  C4  UNL     1      34.373   6.524  47.571  1.00  0.00     0.077 C 
HETATM    3  C5  UNL     1      33.102   7.017  46.899  1.00  0.00     0.045 C 
HETATM    4  C7  UNL     1      31.832   7.372  47.298  1.00  0.00     0.035 C 
HETATM    5  C8  UNL     1      30.774   7.564  48.386  1.00  0.00     0.141 C 
HETATM    6  N1  UNL     1      31.446   7.073  49.573  1.00  0.00    -0.377 N 
HETATM    7  C9  UNL     1      31.851   5.889  48.860  1.00  0.00     0.040 A 
HETATM    8  C10 UNL     1      33.148   5.501  48.961  1.00  0.00     0.038 A 
HETATM    9  C11 UNL     1      33.033   4.529  48.032  1.00  0.00    -0.048 A 
HETATM   10  C12 UNL     1      32.401   3.755  47.124  1.00  0.00     0.009 A 
HETATM   11  C13 UNL     1      31.055   4.256  47.123  1.00  0.00     0.015 A 
HETATM   12  C14 UNL     1      30.862   5.344  48.020  1.00  0.00    -0.001 A 
HETATM   13  C15 UNL     1      29.776   6.367  48.294  1.00  0.00    -0.021 C 
HETATM   14  C16 UNL     1      28.535   5.946  48.330  1.00  0.00     0.003 C 
HETATM   15  H12 UNL     1      31.700   7.225  50.567  1.00  0.00     0.160 HD
ENDROOT
BRANCH  14  16
HETATM   16  C17 UNL     1      27.386   6.854  48.543  1.00  0.00     0.147 C 
BRANCH  16  17
HETATM   17  N2  UNL     1      26.529   6.439  49.636  1.00  0.00    -0.396 N 
HETATM   18  H19 UNL     1      26.582   6.908  50.582  1.00  0.00     0.159 HD
BRANCH  17  19
HETATM   19  C18 UNL     1      25.515   5.524  49.963  1.00  0.00     0.078 C 
HETATM   20  C19 UNL     1      25.428   4.338  49.403  1.00  0.00    -0.014 C 
HETATM   21  C20 UNL     1      24.377   3.339  49.714  1.00  0.00     0.037 C 
ENDBRANCH  17  19
ENDBRANCH  16  17
ENDBRANCH  14  16
BRANCH   3  22
HETATM   22  O1  UNL     1      33.245   7.153  45.496  1.00  0.00    -0.360 OA
HETATM   23  C6  UNL     1      32.357   6.632  44.561  1.00  0.00     0.209 C 
ENDBRANCH   3  22
BRANCH   1  24
HETATM   24  C2  UNL     1      34.742   4.450  46.262  1.00  0.00    -0.027 C 
HETATM   25  C1  UNL     1      35.314   3.918  45.205  1.00  0.00     0.007 C 
ENDBRANCH   1  24
TORSDOF 5
ENDMDL
MODEL 4
REMARK VINA RESULT:      -6.5      8.011     10.472
REMARK  5 active torsions:
REMARK  status: ('A' for Active; 'I' for Inactive)
REMARK    1  A    between atoms: C2_2  and  C3_3 
REMARK    2  A    between atoms: C5_5  and  O1_6 
REMARK    3  A    between atoms: C16_18  and  C17_19 
REMARK    4  A    between atoms: C17_19  and  N2_20 
REMARK    5  A    between atoms: N2_20  and  C18_21 
ROOT
HETATM    1  C3  UNL     1      34.494   4.813  47.590  1.00  0.00     0.046 C 
HETATM    2  C4  UNL     1      34.445   6.344  47.537  1.00  0.00     0.077 C 
HETATM    3  C5  UNL     1      33.189   6.858  46.853  1.00  0.00     0.045 C 
HETATM    4  C7  UNL     1      31.924   7.241  47.240  1.00  0.00     0.035 C 
HETATM    5  C8  UNL     1      30.862   7.462  48.318  1.00  0.00     0.141 C 
HETATM    6  N1  UNL     1      31.515   6.965  49.514  1.00  0.00    -0.377 N 
HETATM    7  C9  UNL     1      31.900   5.768  48.812  1.00  0.00     0.040 A 
HETATM    8  C10 UNL     1      33.189   5.354  48.925  1.00  0.00     0.038 A 
HETATM    9  C11 UNL     1      33.060   4.379  48.002  1.00  0.00    -0.048 A 
HETATM   10  C12 UNL     1      32.420   3.613  47.093  1.00  0.00     0.009 A 
HETATM   11  C13 UNL     1      31.084   4.140  47.079  1.00  0.00     0.015 A 
HETATM   12  C14 UNL     1      30.907   5.238  47.968  1.00  0.00    -0.001 A 
HETATM   13  C15 UNL     1      29.840   6.285  48.227  1.00  0.00    -0.021 C 
HETATM   14  C16 UNL     1      28.591   5.890  48.255  1.00  0.00     0.003 C 
HETATM   15  H12 UNL     1      31.764   7.119  50.509  1.00  0.00     0.160 HD
ENDROOT
BRANCH  14  16
HETATM   16  C17 UNL     1      27.459   6.823  48.454  1.00  0.00     0.147 C 
BRANCH  16  17
HETATM   17  N2  UNL     1      27.737   7.852  49.436  1.00  0.00    -0.396 N 
HETATM   18  H19 UNL     1      28.069   7.606  50.408  1.00  0.00     0.159 HD
BRANCH  17  19
HETATM   19  C18 UNL     1      27.733   9.245  49.613  1.00  0.00     0.078 C 
HETATM   20  C19 UNL     1      28.356  10.062  48.791  1.00  0.00    -0.014 C 
HETATM   21  C20 UNL     1      28.380  11.538  48.935  1.00  0.00     0.037 C 
ENDBRANCH  17  19
ENDBRANCH  16  17
ENDBRANCH  14  16
BRANCH   3  22
HETATM   22  O1  UNL     1      33.345   6.981  45.450  1.00  0.00    -0.360 OA
HETATM   23  C6  UNL     1      32.379   6.620  44.517  1.00  0.00     0.209 C 
ENDBRANCH   3  22
BRANCH   1  24
HETATM   24  C2  UNL     1      34.781   4.253  46.245  1.00  0.00    -0.027 C 
HETATM   25  C1  UNL     1      35.189   4.067  45.010  1.00  0.00     0.007 C 
ENDBRANCH   1  24
TORSDOF 5
ENDMDL
MODEL 5
REMARK VINA RESULT:      -6.3      2.883      3.807
REMARK  5 active torsions:
REMARK  status: ('A' for Active; 'I' for Inactive)
REMARK    1  A    between atoms: C2_2  and  C3_3 
REMARK    2  A    between atoms: C5_5  and  O1_6 
REMARK    3  A    between atoms: C16_18  and  C17_19 
REMARK    4  A    between atoms: C17_19  and  N2_20 
REMARK    5  A    between atoms: N2_20  and  C18_21 
ROOT
HETATM    1  C3  UNL     1      23.407   3.747  48.931  1.00  0.00     0.046 C 
HETATM    2  C4  UNL     1      23.203   4.434  50.285  1.00  0.00     0.077 C 
HETATM    3  C5  UNL     1      21.790   4.255  50.816  1.00  0.00     0.045 C 
HETATM    4  C7  UNL     1      21.132   3.363  51.633  1.00  0.00     0.035 C 
HETATM    5  C8  UNL     1      21.118   2.112  52.512  1.00  0.00     0.141 C 
HETATM    6  N1  UNL     1      22.461   1.591  52.346  1.00  0.00    -0.377 N 
HETATM    7  C9  UNL     1      22.346   1.733  50.918  1.00  0.00     0.040 A 
HETATM    8  C10 UNL     1      23.373   2.323  50.255  1.00  0.00     0.038 A 
HETATM    9  C11 UNL     1      22.719   2.361  49.075  1.00  0.00    -0.048 A 
HETATM   10  C12 UNL     1      21.695   2.148  48.221  1.00  0.00     0.009 A 
HETATM   11  C13 UNL     1      20.694   1.518  49.035  1.00  0.00     0.015 A 
HETATM   12  C14 UNL     1      21.097   1.355  50.391  1.00  0.00    -0.001 A 
HETATM   13  C15 UNL     1      20.432   0.968  51.699  1.00  0.00    -0.021 C 
HETATM   14  C16 UNL     1      19.603  -0.047  51.686  1.00  0.00     0.003 C 
HETATM   15  H12 UNL     1      23.322   1.220  52.790  1.00  0.00     0.160 HD
ENDROOT
BRANCH  14  16
HETATM   16  C17 UNL     1      18.860  -0.491  52.886  1.00  0.00     0.147 C 
BRANCH  16  17
HETATM   17  N2  UNL     1      19.713  -1.097  53.889  1.00  0.00    -0.396 N 
HETATM   18  H19 UNL     1      19.511  -2.063  54.268  1.00  0.00     0.159 HD
BRANCH  17  19
HETATM   19  C18 UNL     1      20.865  -0.858  54.656  1.00  0.00     0.078 C 
HETATM   20  C19 UNL     1      21.952  -1.588  54.540  1.00  0.00    -0.014 C 
HETATM   21  C20 UNL     1      23.192  -1.375  55.326  1.00  0.00     0.037 C 
ENDBRANCH  17  19
ENDBRANCH  16  17
ENDBRANCH  14  16
BRANCH   3  22
HETATM   22  O1  UNL     1      20.906   5.265  50.359  1.00  0.00    -0.360 OA
HETATM   23  C6  UNL     1      19.622   5.027  49.880  1.00  0.00     0.209 C 
ENDBRANCH   3  22
BRANCH   1  24
HETATM   24  C2  UNL     1      22.716   4.499  47.854  1.00  0.00    -0.027 C 
HETATM   25  C1  UNL     1      22.277   5.434  47.041  1.00  0.00     0.007 C 
ENDBRANCH   1  24
TORSDOF 5
ENDMDL
MODEL 6
REMARK VINA RESULT:      -6.3      4.253      5.747
REMARK  5 active torsions:
REMARK  status: ('A' for Active; 'I' for Inactive)
REMARK    1  A    between atoms: C2_2  and  C3_3 
REMARK    2  A    between atoms: C5_5  and  O1_6 
REMARK    3  A    between atoms: C16_18  and  C17_19 
REMARK    4  A    between atoms: C17_19  and  N2_20 
REMARK    5  A    between atoms: N2_20  and  C18_21 
ROOT
HETATM    1  C3  UNL     1      23.675   2.832  50.436  1.00  0.00     0.046 C 
HETATM    2  C4  UNL     1      23.146   3.555  51.678  1.00  0.00     0.077 C 
HETATM    3  C5  UNL     1      21.630   3.662  51.681  1.00  0.00     0.045 C 
HETATM    4  C7  UNL     1      20.575   2.922  52.168  1.00  0.00     0.035 C 
HETATM    5  C8  UNL     1      20.023   1.704  52.909  1.00  0.00     0.141 C 
HETATM    6  N1  UNL     1      21.217   0.928  53.182  1.00  0.00    -0.377 N 
HETATM    7  C9  UNL     1      21.633   1.080  51.811  1.00  0.00     0.040 A 
HETATM    8  C10 UNL     1      22.918   1.452  51.577  1.00  0.00     0.038 A 
HETATM    9  C11 UNL     1      22.734   1.610  50.250  1.00  0.00    -0.048 A 
HETATM   10  C12 UNL     1      22.050   1.597  49.086  1.00  0.00     0.009 A 
HETATM   11  C13 UNL     1      20.730   1.181  49.468  1.00  0.00     0.015 A 
HETATM   12  C14 UNL     1      20.598   0.952  50.867  1.00  0.00    -0.001 A 
HETATM   13  C15 UNL     1      19.461   0.712  51.843  1.00  0.00    -0.021 C 
HETATM   14  C16 UNL     1      18.514  -0.119  51.484  1.00  0.00     0.003 C 
HETATM   15  H12 UNL     1      21.785   0.399  53.869  1.00  0.00     0.160 HD
ENDROOT
BRANCH  14  16
HETATM   16  C17 UNL     1      17.331  -0.400  52.328  1.00  0.00     0.147 C 
BRANCH  16  17
HETATM   17  N2  UNL     1      17.578  -1.418  53.330  1.00  0.00    -0.396 N 
HETATM   18  H19 UNL     1      17.740  -1.161  54.343  1.00  0.00     0.159 HD
BRANCH  17  19
HETATM   19  C18 UNL     1      17.700  -2.808  53.492  1.00  0.00     0.078 C 
HETATM   20  C19 UNL     1      16.658  -3.610  53.504  1.00  0.00    -0.014 C 
HETATM   21  C20 UNL     1      16.736  -5.081  53.671  1.00  0.00     0.037 C 
ENDBRANCH  17  19
ENDBRANCH  16  17
ENDBRANCH  14  16
BRANCH   3  22
HETATM   22  O1  UNL     1      21.165   4.822  51.013  1.00  0.00    -0.360 OA
HETATM   23  C6  UNL     1      21.610   6.113  51.279  1.00  0.00     0.209 C 
ENDBRANCH   3  22
BRANCH   1  24
HETATM   24  C2  UNL     1      23.555   3.698  49.236  1.00  0.00    -0.027 C 
HETATM   25  C1  UNL     1      23.449   4.718  48.414  1.00  0.00     0.007 C 
ENDBRANCH   1  24
TORSDOF 5
ENDMDL
MODEL 7
REMARK VINA RESULT:      -6.1      2.960      4.723
REMARK  5 active torsions:
REMARK  status: ('A' for Active; 'I' for Inactive)
REMARK    1  A    between atoms: C2_2  and  C3_3 
REMARK    2  A    between atoms: C5_5  and  O1_6 
REMARK    3  A    between atoms: C16_18  and  C17_19 
REMARK    4  A    between atoms: C17_19  and  N2_20 
REMARK    5  A    between atoms: N2_20  and  C18_21 
ROOT
HETATM    1  C3  UNL     1      25.960   8.518  48.559  1.00  0.00     0.046 C 
HETATM    2  C4  UNL     1      24.527   8.857  48.981  1.00  0.00     0.077 C 
HETATM    3  C5  UNL     1      23.615   7.641  48.955  1.00  0.00     0.045 C 
HETATM    4  C7  UNL     1      23.211   6.673  49.848  1.00  0.00     0.035 C 
HETATM    5  C8  UNL     1      23.238   6.040  51.240  1.00  0.00     0.141 C 
HETATM    6  N1  UNL     1      24.228   6.841  51.935  1.00  0.00    -0.377 N 
HETATM    7  C9  UNL     1      25.132   6.696  50.823  1.00  0.00     0.040 A 
HETATM    8  C10 UNL     1      25.749   7.813  50.359  1.00  0.00     0.038 A 
HETATM    9  C11 UNL     1      26.292   7.189  49.292  1.00  0.00    -0.048 A 
HETATM   10  C12 UNL     1      26.569   6.149  48.477  1.00  0.00     0.009 A 
HETATM   11  C13 UNL     1      25.876   5.045  49.079  1.00  0.00     0.015 A 
HETATM   12  C14 UNL     1      25.163   5.408  50.256  1.00  0.00    -0.001 A 
HETATM   13  C15 UNL     1      24.132   4.762  51.164  1.00  0.00    -0.021 C 
HETATM   14  C16 UNL     1      24.316   3.510  51.503  1.00  0.00     0.003 C 
HETATM   15  H12 UNL     1      24.486   7.382  52.781  1.00  0.00     0.160 HD
ENDROOT
BRANCH  14  16
HETATM   16  C17 UNL     1      23.359   2.757  52.344  1.00  0.00     0.147 C 
BRANCH  16  17
HETATM   17  N2  UNL     1      23.758   1.382  52.568  1.00  0.00    -0.396 N 
HETATM   18  H19 UNL     1      24.702   1.027  52.249  1.00  0.00     0.159 HD
BRANCH  17  19
HETATM   19  C18 UNL     1      23.309   0.174  53.125  1.00  0.00     0.078 C 
HETATM   20  C19 UNL     1      22.230   0.101  53.873  1.00  0.00    -0.014 C 
HETATM   21  C20 UNL     1      21.716  -1.150  54.482  1.00  0.00     0.037 C 
ENDBRANCH  17  19
ENDBRANCH  16  17
ENDBRANCH  14  16
BRANCH   3  22
HETATM   22  O1  UNL     1      23.016   7.437  47.687  1.00  0.00    -0.360 OA
HETATM   23  C6  UNL     1      22.764   6.188  47.129  1.00  0.00     0.209 C 
ENDBRANCH   3  22
BRANCH   1  24
HETATM   24  C2  UNL     1      26.031   8.273  47.097  1.00  0.00    -0.027 C 
HETATM   25  C1  UNL     1      26.003   8.393  45.788  1.00  0.00     0.007 C 
ENDBRANCH   1  24
TORSDOF 5
ENDMDL
MODEL 8
REMARK VINA RESULT:      -6.0      3.251      5.771
REMARK  5 active torsions:
REMARK  status: ('A' for Active; 'I' for Inactive)
REMARK    1  A    between atoms: C2_2  and  C3_3 
REMARK    2  A    between atoms: C5_5  and  O1_6 
REMARK    3  A    between atoms: C16_18  and  C17_19 
REMARK    4  A    between atoms: C17_19  and  N2_20 
REMARK    5  A    between atoms: N2_20  and  C18_21 
ROOT
HETATM    1  C3  UNL     1      21.732   0.655  51.169  1.00  0.00     0.046 C 
HETATM    2  C4  UNL     1      20.695   1.419  50.339  1.00  0.00     0.077 C 
HETATM    3  C5  UNL     1      20.469   2.830  50.856  1.00  0.00     0.045 C 
HETATM    4  C7  UNL     1      20.985   4.082  50.607  1.00  0.00     0.035 C 
HETATM    5  C8  UNL     1      21.944   5.012  49.863  1.00  0.00     0.141 C 
HETATM    6  N1  UNL     1      22.728   4.088  49.065  1.00  0.00    -0.377 N 
HETATM    7  C9  UNL     1      22.938   3.259  50.223  1.00  0.00     0.040 A 
HETATM    8  C10 UNL     1      22.737   1.922  50.091  1.00  0.00     0.038 A 
HETATM    9  C11 UNL     1      22.884   1.670  51.408  1.00  0.00    -0.048 A 
HETATM   10  C12 UNL     1      23.117   1.963  52.705  1.00  0.00     0.009 A 
HETATM   11  C13 UNL     1      23.322   3.385  52.704  1.00  0.00     0.015 A 
HETATM   12  C14 UNL     1      23.203   3.966  51.410  1.00  0.00    -0.001 A 
HETATM   13  C15 UNL     1      23.112   5.368  50.836  1.00  0.00    -0.021 C 
HETATM   14  C16 UNL     1      23.926   6.277  51.314  1.00  0.00     0.003 C 
HETATM   15  H12 UNL     1      23.123   3.843  48.138  1.00  0.00     0.160 HD
ENDROOT
BRANCH  14  16
HETATM   16  C17 UNL     1      23.903   7.688  50.868  1.00  0.00     0.147 C 
BRANCH  16  17
HETATM   17  N2  UNL     1      25.210   8.185  50.488  1.00  0.00    -0.396 N 
HETATM   18  H19 UNL     1      25.481   9.194  50.648  1.00  0.00     0.159 HD
BRANCH  17  19
HETATM   19  C18 UNL     1      26.424   7.781  49.908  1.00  0.00     0.078 C 
HETATM   20  C19 UNL     1      26.476   6.949  48.891  1.00  0.00    -0.014 C 
HETATM   21  C20 UNL     1      27.731   6.494  48.244  1.00  0.00     0.037 C 
ENDBRANCH  17  19
ENDBRANCH  16  17
ENDBRANCH  14  16
BRANCH   3  22
HETATM   22  O1  UNL     1      19.466   2.888  51.856  1.00  0.00    -0.360 OA
HETATM   23  C6  UNL     1      18.105   3.018  51.598  1.00  0.00     0.209 C 
ENDBRANCH   3  22
BRANCH   1  24
HETATM   24  C2  UNL     1      21.168   0.273  52.488  1.00  0.00    -0.027 C 
HETATM   25  C1  UNL     1      20.369  -0.062  53.476  1.00  0.00     0.007 C 
ENDBRANCH   1  24
TORSDOF 5
ENDMDL
MODEL 9
REMARK VINA RESULT:      -5.9      9.856     12.406
REMARK  5 active torsions:
REMARK  status: ('A' for Active; 'I' for Inactive)
REMARK    1  A    between atoms: C2_2  and  C3_3 
REMARK    2  A    between atoms: C5_5  and  O1_6 
REMARK    3  A    between atoms: C16_18  and  C17_19 
REMARK    4  A    between atoms: C17_19  and  N2_20 
REMARK    5  A    between atoms: N2_20  and  C18_21 
ROOT
HETATM    1  C3  UNL     1      34.010   3.870  47.462  1.00  0.00     0.046 C 
HETATM    2  C4  UNL     1      34.716   4.442  46.229  1.00  0.00     0.077 C 
HETATM    3  C5  UNL     1      33.896   5.523  45.545  1.00  0.00     0.045 C 
HETATM    4  C7  UNL     1      33.793   6.895  45.613  1.00  0.00     0.035 C 
HETATM    5  C8  UNL     1      34.209   8.242  46.205  1.00  0.00     0.141 C 
HETATM    6  N1  UNL     1      35.137   7.856  47.251  1.00  0.00    -0.377 N 
HETATM    7  C9  UNL     1      34.198   6.874  47.728  1.00  0.00     0.040 A 
HETATM    8  C10 UNL     1      34.664   5.624  47.985  1.00  0.00     0.038 A 
HETATM    9  C11 UNL     1      33.438   5.107  48.209  1.00  0.00    -0.048 A 
HETATM   10  C12 UNL     1      32.094   5.120  48.332  1.00  0.00     0.009 A 
HETATM   11  C13 UNL     1      31.736   6.482  48.050  1.00  0.00     0.015 A 
HETATM   12  C14 UNL     1      32.858   7.302  47.742  1.00  0.00    -0.001 A 
HETATM   13  C15 UNL     1      33.084   8.697  47.188  1.00  0.00    -0.021 C 
HETATM   14  C16 UNL     1      32.335   9.667  47.651  1.00  0.00     0.003 C 
HETATM   15  H12 UNL     1      36.058   7.996  47.706  1.00  0.00     0.160 HD
ENDROOT
BRANCH  14  16
HETATM   16  C17 UNL     1      32.430  11.059  47.158  1.00  0.00     0.147 C 
BRANCH  16  17
HETATM   17  N2  UNL     1      31.550  11.972  47.861  1.00  0.00    -0.396 N 
HETATM   18  H19 UNL     1      31.869  12.476  48.734  1.00  0.00     0.159 HD
BRANCH  17  19
HETATM   19  C18 UNL     1      30.257  12.518  47.819  1.00  0.00     0.078 C 
HETATM   20  C19 UNL     1      29.505  12.631  48.892  1.00  0.00    -0.014 C 
HETATM   21  C20 UNL     1      28.135  13.201  48.899  1.00  0.00     0.037 C 
ENDBRANCH  17  19
ENDBRANCH  16  17
ENDBRANCH  14  16
BRANCH   3  22
HETATM   22  O1  UNL     1      33.000   4.998  44.581  1.00  0.00    -0.360 OA
HETATM   23  C6  UNL     1      33.342   4.709  43.264  1.00  0.00     0.209 C 
ENDBRANCH   3  22
BRANCH   1  24
HETATM   24  C2  UNL     1      32.873   3.004  47.059  1.00  0.00    -0.027 C 
HETATM   25  C1  UNL     1      32.122   2.003  46.656  1.00  0.00     0.007 C 
ENDBRANCH   1  24
TORSDOF 5
ENDMDL
