MODEL 1
REMARK VINA RESULT:      -8.7      0.000      0.000
REMARK  4 active torsions:
REMARK  status: ('A' for Active; 'I' for Inactive)
REMARK    1  A    between atoms: O1_2  and  C2_3 
REMARK    2  A    between atoms: C6_9  and  N3_10 
REMARK    3  A    between atoms: N3_10  and  C7_11 
REMARK    4  A    between atoms: C18_22  and  O2_23 
ROOT
HETATM    1  C2  UNL     1      27.346   0.549  53.373  1.00  0.00     0.103 A 
HETATM    2  C3  UNL     1      26.762  -0.208  54.367  1.00  0.00     0.072 A 
HETATM    3  C4  UNL     1      25.419  -0.400  54.389  1.00  0.00     0.075 A 
HETATM    4  N1  UNL     1      24.933  -1.153  55.396  1.00  0.00    -0.241 NA
HETATM    5  C5  UNL     1      23.602  -1.401  55.503  1.00  0.00     0.236 A 
HETATM    6  N2  UNL     1      22.801  -0.872  54.575  1.00  0.00    -0.224 NA
HETATM    7  C6  UNL     1      23.182  -0.117  53.543  1.00  0.00     0.142 A 
HETATM    8  C16 UNL     1      24.532   0.118  53.459  1.00  0.00     0.042 A 
HETATM    9  C17 UNL     1      25.147   0.860  52.493  1.00  0.00     0.057 A 
HETATM   10  C18 UNL     1      26.506   1.088  52.423  1.00  0.00     0.102 A 
ENDROOT
BRANCH   7  11
HETATM   11  N3  UNL     1      22.330   0.439  52.567  1.00  0.00    -0.340 N 
HETATM   12  H6  UNL     1      22.662   1.150  51.899  1.00  0.00     0.167 HD
BRANCH  11  13
HETATM   13  C7  UNL     1      20.966   0.159  52.331  1.00  0.00     0.034 A 
HETATM   14  C8  UNL     1      20.319   0.573  51.188  1.00  0.00     0.030 A 
HETATM   15  C9  UNL     1      18.982   0.323  50.929  1.00  0.00     0.010 A 
HETATM   16  C10 UNL     1      18.209  -0.382  51.842  1.00  0.00    -0.051 A 
HETATM   17  C11 UNL     1      18.815  -0.802  52.975  1.00  0.00    -0.046 A 
HETATM   18  C15 UNL     1      16.930  -0.955  52.228  1.00  0.00     0.048 A 
HETATM   19  C12 UNL     1      20.142  -0.532  53.194  1.00  0.00     0.037 A 
HETATM   20  C13 UNL     1      17.601  -1.419  53.478  1.00  0.00     0.019 A 
HETATM   21  C14 UNL     1      17.630  -2.935  53.588  1.00  0.00     0.015 C 
ENDBRANCH  11  13
ENDBRANCH   7  11
BRANCH  10  22
HETATM   22  O2  UNL     1      27.052   1.859  51.401  1.00  0.00    -0.353 OA
HETATM   23  C19 UNL     1      26.320   2.833  50.701  1.00  0.00     0.210 C 
ENDBRANCH  10  22
BRANCH   1  24
HETATM   24  O1  UNL     1      28.699   0.803  53.264  1.00  0.00    -0.353 OA
HETATM   25  C1  UNL     1      29.635  -0.006  53.928  1.00  0.00     0.210 C 
ENDBRANCH   1  24
TORSDOF 4
ENDMDL
MODEL 2
REMARK VINA RESULT:      -8.7      1.897      2.680
REMARK  4 active torsions:
REMARK  status: ('A' for Active; 'I' for Inactive)
REMARK    1  A    between atoms: O1_2  and  C2_3 
REMARK    2  A    between atoms: C6_9  and  N3_10 
REMARK    3  A    between atoms: N3_10  and  C7_11 
REMARK    4  A    between atoms: C18_22  and  O2_23 
ROOT
HETATM    1  C2  UNL     1      26.461   1.182  54.032  1.00  0.00     0.103 A 
HETATM    2  C3  UNL     1      25.880   2.416  53.830  1.00  0.00     0.072 A 
HETATM    3  C4  UNL     1      24.685   2.520  53.197  1.00  0.00     0.075 A 
HETATM    4  N1  UNL     1      24.190   3.765  53.042  1.00  0.00    -0.241 NA
HETATM    5  C5  UNL     1      23.000   3.972  52.420  1.00  0.00     0.236 A 
HETATM    6  N2  UNL     1      22.345   2.897  51.973  1.00  0.00    -0.224 NA
HETATM    7  C6  UNL     1      22.747   1.629  52.077  1.00  0.00     0.142 A 
HETATM    8  C16 UNL     1      23.953   1.450  52.709  1.00  0.00     0.042 A 
HETATM    9  C17 UNL     1      24.559   0.248  52.928  1.00  0.00     0.057 A 
HETATM   10  C18 UNL     1      25.773   0.083  53.564  1.00  0.00     0.102 A 
ENDROOT
BRANCH   7  11
HETATM   11  N3  UNL     1      22.051   0.500  51.601  1.00  0.00    -0.340 N 
HETATM   12  H6  UNL     1      22.538  -0.283  51.140  1.00  0.00     0.167 HD
BRANCH  11  13
HETATM   13  C7  UNL     1      20.664   0.237  51.654  1.00  0.00     0.034 A 
HETATM   14  C8  UNL     1      19.795   0.683  50.683  1.00  0.00     0.030 A 
HETATM   15  C9  UNL     1      18.430   0.450  50.710  1.00  0.00     0.010 A 
HETATM   16  C10 UNL     1      17.860  -0.269  51.751  1.00  0.00    -0.051 A 
HETATM   17  C11 UNL     1      18.687  -0.721  52.720  1.00  0.00    -0.046 A 
HETATM   18  C15 UNL     1      16.684  -0.841  52.387  1.00  0.00     0.048 A 
HETATM   19  C12 UNL     1      20.033  -0.468  52.658  1.00  0.00     0.037 A 
HETATM   20  C13 UNL     1      17.599  -1.340  53.456  1.00  0.00     0.019 A 
HETATM   21  C14 UNL     1      17.630  -2.858  53.525  1.00  0.00     0.015 C 
ENDBRANCH  11  13
ENDBRANCH   7  11
BRANCH  10  22
HETATM   22  O2  UNL     1      26.322  -1.183  53.746  1.00  0.00    -0.353 OA
HETATM   23  C19 UNL     1      26.928  -1.911  52.708  1.00  0.00     0.210 C 
ENDBRANCH  10  22
BRANCH   1  24
HETATM   24  O1  UNL     1      27.671   0.971  54.663  1.00  0.00    -0.353 OA
HETATM   25  C1  UNL     1      28.880   1.146  53.970  1.00  0.00     0.210 C 
ENDBRANCH   1  24
TORSDOF 4
ENDMDL
MODEL 3
REMARK VINA RESULT:      -8.5      1.957      3.378
REMARK  4 active torsions:
REMARK  status: ('A' for Active; 'I' for Inactive)
REMARK    1  A    between atoms: O1_2  and  C2_3 
REMARK    2  A    between atoms: C6_9  and  N3_10 
REMARK    3  A    between atoms: N3_10  and  C7_11 
REMARK    4  A    between atoms: C18_22  and  O2_23 
ROOT
HETATM    1  C2  UNL     1      27.272  -0.048  53.625  1.00  0.00     0.103 A 
HETATM    2  C3  UNL     1      27.557   0.857  52.623  1.00  0.00     0.072 A 
HETATM    3  C4  UNL     1      26.587   1.665  52.128  1.00  0.00     0.075 A 
HETATM    4  N1  UNL     1      26.953   2.519  51.150  1.00  0.00    -0.241 NA
HETATM    5  C5  UNL     1      26.052   3.367  50.590  1.00  0.00     0.236 A 
HETATM    6  N2  UNL     1      24.797   3.321  51.046  1.00  0.00    -0.224 NA
HETATM    7  C6  UNL     1      24.337   2.517  52.006  1.00  0.00     0.142 A 
HETATM    8  C16 UNL     1      25.268   1.670  52.554  1.00  0.00     0.042 A 
HETATM    9  C17 UNL     1      25.026   0.763  53.544  1.00  0.00     0.057 A 
HETATM   10  C18 UNL     1      25.973  -0.083  54.084  1.00  0.00     0.102 A 
ENDROOT
BRANCH   7  11
HETATM   11  N3  UNL     1      23.010   2.473  52.481  1.00  0.00    -0.340 N 
HETATM   12  H6  UNL     1      22.733   2.936  53.359  1.00  0.00     0.167 HD
BRANCH  11  13
HETATM   13  C7  UNL     1      21.890   1.839  51.900  1.00  0.00     0.034 A 
HETATM   14  C8  UNL     1      21.809   1.585  50.549  1.00  0.00     0.030 A 
HETATM   15  C9  UNL     1      20.723   0.973  49.947  1.00  0.00     0.010 A 
HETATM   16  C10 UNL     1      19.631   0.574  50.705  1.00  0.00    -0.051 A 
HETATM   17  C11 UNL     1      19.679   0.810  52.035  1.00  0.00    -0.046 A 
HETATM   18  C15 UNL     1      18.315  -0.038  50.789  1.00  0.00     0.048 A 
HETATM   19  C12 UNL     1      20.774   1.420  52.594  1.00  0.00     0.037 A 
HETATM   20  C13 UNL     1      18.370   0.222  52.258  1.00  0.00     0.019 A 
HETATM   21  C14 UNL     1      18.354  -1.062  53.071  1.00  0.00     0.015 C 
ENDBRANCH  11  13
ENDBRANCH   7  11
BRANCH  10  22
HETATM   22  O2  UNL     1      25.641  -0.981  55.095  1.00  0.00    -0.353 OA
HETATM   23  C19 UNL     1      24.313  -1.287  55.440  1.00  0.00     0.210 C 
ENDBRANCH  10  22
BRANCH   1  24
HETATM   24  O1  UNL     1      28.187  -0.911  54.194  1.00  0.00    -0.353 OA
HETATM   25  C1  UNL     1      29.534  -0.888  53.801  1.00  0.00     0.210 C 
ENDBRANCH   1  24
TORSDOF 4
ENDMDL
MODEL 4
REMARK VINA RESULT:      -8.4      3.635      8.306
REMARK  4 active torsions:
REMARK  status: ('A' for Active; 'I' for Inactive)
REMARK    1  A    between atoms: O1_2  and  C2_3 
REMARK    2  A    between atoms: C6_9  and  N3_10 
REMARK    3  A    between atoms: N3_10  and  C7_11 
REMARK    4  A    between atoms: C18_22  and  O2_23 
ROOT
HETATM    1  C2  UNL     1      23.039   0.077  53.185  1.00  0.00     0.103 A 
HETATM    2  C3  UNL     1      24.372   0.102  53.537  1.00  0.00     0.072 A 
HETATM    3  C4  UNL     1      25.248   0.889  52.864  1.00  0.00     0.075 A 
HETATM    4  N1  UNL     1      26.532   0.852  53.275  1.00  0.00    -0.241 NA
HETATM    5  C5  UNL     1      27.483   1.603  52.663  1.00  0.00     0.236 A 
HETATM    6  N2  UNL     1      27.096   2.375  51.644  1.00  0.00    -0.224 NA
HETATM    7  C6  UNL     1      25.856   2.483  51.163  1.00  0.00     0.142 A 
HETATM    8  C16 UNL     1      24.915   1.713  51.801  1.00  0.00     0.042 A 
HETATM    9  C17 UNL     1      23.590   1.660  51.482  1.00  0.00     0.057 A 
HETATM   10  C18 UNL     1      22.655   0.879  52.131  1.00  0.00     0.102 A 
ENDROOT
BRANCH   7  11
HETATM   11  N3  UNL     1      25.455   3.300  50.087  1.00  0.00    -0.340 N 
HETATM   12  H6  UNL     1      24.591   3.112  49.557  1.00  0.00     0.167 HD
BRANCH  11  13
HETATM   13  C7  UNL     1      26.102   4.440  49.561  1.00  0.00     0.034 A 
HETATM   14  C8  UNL     1      25.537   5.694  49.613  1.00  0.00     0.030 A 
HETATM   15  C9  UNL     1      26.141   6.830  49.100  1.00  0.00     0.010 A 
HETATM   16  C10 UNL     1      27.386   6.751  48.492  1.00  0.00    -0.051 A 
HETATM   17  C11 UNL     1      27.968   5.533  48.425  1.00  0.00    -0.046 A 
HETATM   18  C15 UNL     1      28.498   7.399  47.816  1.00  0.00     0.048 A 
HETATM   19  C12 UNL     1      27.336   4.431  48.944  1.00  0.00     0.037 A 
HETATM   20  C13 UNL     1      29.140   6.053  47.744  1.00  0.00     0.019 A 
HETATM   21  C14 UNL     1      30.440   5.992  48.529  1.00  0.00     0.015 C 
ENDBRANCH  11  13
ENDBRANCH   7  11
BRANCH  10  22
HETATM   22  O2  UNL     1      21.319   0.884  51.741  1.00  0.00    -0.353 OA
HETATM   23  C19 UNL     1      20.471   1.989  51.931  1.00  0.00     0.210 C 
ENDBRANCH  10  22
BRANCH   1  24
HETATM   24  O1  UNL     1      22.071  -0.688  53.805  1.00  0.00    -0.353 OA
HETATM   25  C1  UNL     1      22.366  -1.404  54.976  1.00  0.00     0.210 C 
ENDBRANCH   1  24
TORSDOF 4
ENDMDL
MODEL 5
REMARK VINA RESULT:      -8.4      2.864      6.482
REMARK  4 active torsions:
REMARK  status: ('A' for Active; 'I' for Inactive)
REMARK    1  A    between atoms: O1_2  and  C2_3 
REMARK    2  A    between atoms: C6_9  and  N3_10 
REMARK    3  A    between atoms: N3_10  and  C7_11 
REMARK    4  A    between atoms: C18_22  and  O2_23 
ROOT
HETATM    1  C2  UNL     1      26.382   0.096  53.865  1.00  0.00     0.103 A 
HETATM    2  C3  UNL     1      25.193  -0.402  53.376  1.00  0.00     0.072 A 
HETATM    3  C4  UNL     1      24.210   0.437  52.965  1.00  0.00     0.075 A 
HETATM    4  N1  UNL     1      23.081  -0.136  52.501  1.00  0.00    -0.241 NA
HETATM    5  C5  UNL     1      22.041   0.621  52.068  1.00  0.00     0.236 A 
HETATM    6  N2  UNL     1      22.182   1.948  52.118  1.00  0.00    -0.224 NA
HETATM    7  C6  UNL     1      23.254   2.610  52.557  1.00  0.00     0.142 A 
HETATM    8  C16 UNL     1      24.291   1.820  52.989  1.00  0.00     0.042 A 
HETATM    9  C17 UNL     1      25.480   2.275  53.479  1.00  0.00     0.057 A 
HETATM   10  C18 UNL     1      26.513   1.468  53.911  1.00  0.00     0.102 A 
ENDROOT
BRANCH   7  11
HETATM   11  N3  UNL     1      23.396   4.012  52.609  1.00  0.00    -0.340 N 
HETATM   12  H6  UNL     1      23.017   4.567  53.390  1.00  0.00     0.167 HD
BRANCH  11  13
HETATM   13  C7  UNL     1      24.031   4.865  51.678  1.00  0.00     0.034 A 
HETATM   14  C8  UNL     1      23.914   6.235  51.741  1.00  0.00     0.030 A 
HETATM   15  C9  UNL     1      24.516   7.099  50.841  1.00  0.00     0.010 A 
HETATM   16  C10 UNL     1      25.290   6.603  49.801  1.00  0.00    -0.051 A 
HETATM   17  C11 UNL     1      25.424   5.261  49.713  1.00  0.00    -0.046 A 
HETATM   18  C15 UNL     1      26.121   6.836  48.631  1.00  0.00     0.048 A 
HETATM   19  C12 UNL     1      24.811   4.439  50.624  1.00  0.00     0.037 A 
HETATM   20  C13 UNL     1      26.269   5.353  48.535  1.00  0.00     0.019 A 
HETATM   21  C14 UNL     1      27.709   4.905  48.720  1.00  0.00     0.015 C 
ENDBRANCH  11  13
ENDBRANCH   7  11
BRANCH  10  22
HETATM   22  O2  UNL     1      27.696   2.015  54.398  1.00  0.00    -0.353 OA
HETATM   23  C19 UNL     1      28.710   2.514  53.561  1.00  0.00     0.210 C 
ENDBRANCH  10  22
BRANCH   1  24
HETATM   24  O1  UNL     1      27.440  -0.672  54.308  1.00  0.00    -0.353 OA
HETATM   25  C1  UNL     1      28.366  -1.207  53.398  1.00  0.00     0.210 C 
ENDBRANCH   1  24
TORSDOF 4
ENDMDL
MODEL 6
REMARK VINA RESULT:      -8.2      2.000      3.039
REMARK  4 active torsions:
REMARK  status: ('A' for Active; 'I' for Inactive)
REMARK    1  A    between atoms: O1_2  and  C2_3 
REMARK    2  A    between atoms: C6_9  and  N3_10 
REMARK    3  A    between atoms: N3_10  and  C7_11 
REMARK    4  A    between atoms: C18_22  and  O2_23 
ROOT
HETATM    1  C2  UNL     1      25.639   3.430  50.900  1.00  0.00     0.103 A 
HETATM    2  C3  UNL     1      26.290   2.233  51.115  1.00  0.00     0.072 A 
HETATM    3  C4  UNL     1      25.710   1.255  51.855  1.00  0.00     0.075 A 
HETATM    4  N1  UNL     1      26.418   0.119  52.015  1.00  0.00    -0.241 NA
HETATM    5  C5  UNL     1      25.921  -0.917  52.740  1.00  0.00     0.236 A 
HETATM    6  N2  UNL     1      24.712  -0.763  53.284  1.00  0.00    -0.224 NA
HETATM    7  C6  UNL     1      23.934   0.317  53.185  1.00  0.00     0.142 A 
HETATM    8  C16 UNL     1      24.460   1.348  52.446  1.00  0.00     0.042 A 
HETATM    9  C17 UNL     1      23.849   2.545  52.212  1.00  0.00     0.057 A 
HETATM   10  C18 UNL     1      24.391   3.573  51.469  1.00  0.00     0.102 A 
ENDROOT
BRANCH   7  11
HETATM   11  N3  UNL     1      22.658   0.473  53.763  1.00  0.00    -0.340 N 
HETATM   12  H6  UNL     1      22.538   0.821  54.725  1.00  0.00     0.167 HD
BRANCH  11  13
HETATM   13  C7  UNL     1      21.395   0.204  53.189  1.00  0.00     0.034 A 
HETATM   14  C8  UNL     1      21.080   0.577  51.902  1.00  0.00     0.030 A 
HETATM   15  C9  UNL     1      19.850   0.336  51.313  1.00  0.00     0.010 A 
HETATM   16  C10 UNL     1      18.848  -0.316  52.019  1.00  0.00    -0.051 A 
HETATM   17  C11 UNL     1      19.127  -0.695  53.286  1.00  0.00    -0.046 A 
HETATM   18  C15 UNL     1      17.498  -0.852  52.079  1.00  0.00     0.048 A 
HETATM   19  C12 UNL     1      20.358  -0.437  53.833  1.00  0.00     0.037 A 
HETATM   20  C13 UNL     1      17.808  -1.272  53.477  1.00  0.00     0.019 A 
HETATM   21  C14 UNL     1      17.767  -2.782  53.649  1.00  0.00     0.015 C 
ENDBRANCH  11  13
ENDBRANCH   7  11
BRANCH  10  22
HETATM   22  O2  UNL     1      23.697   4.764  51.277  1.00  0.00    -0.353 OA
HETATM   23  C19 UNL     1      22.440   5.019  51.852  1.00  0.00     0.210 C 
ENDBRANCH  10  22
BRANCH   1  24
HETATM   24  O1  UNL     1      26.143   4.484  50.164  1.00  0.00    -0.353 OA
HETATM   25  C1  UNL     1      27.020   4.254  49.092  1.00  0.00     0.210 C 
ENDBRANCH   1  24
TORSDOF 4
ENDMDL
MODEL 7
REMARK VINA RESULT:      -8.2      3.731      8.205
REMARK  4 active torsions:
REMARK  status: ('A' for Active; 'I' for Inactive)
REMARK    1  A    between atoms: O1_2  and  C2_3 
REMARK    2  A    between atoms: C6_9  and  N3_10 
REMARK    3  A    between atoms: N3_10  and  C7_11 
REMARK    4  A    between atoms: C18_22  and  O2_23 
ROOT
HETATM    1  C2  UNL     1      25.442  -0.191  53.658  1.00  0.00     0.103 A 
HETATM    2  C3  UNL     1      24.238   0.322  53.225  1.00  0.00     0.072 A 
HETATM    3  C4  UNL     1      24.198   1.230  52.218  1.00  0.00     0.075 A 
HETATM    4  N1  UNL     1      22.979   1.680  51.858  1.00  0.00    -0.241 NA
HETATM    5  C5  UNL     1      22.836   2.591  50.861  1.00  0.00     0.236 A 
HETATM    6  N2  UNL     1      23.947   3.020  50.256  1.00  0.00    -0.224 NA
HETATM    7  C6  UNL     1      25.194   2.638  50.536  1.00  0.00     0.142 A 
HETATM    8  C16 UNL     1      25.309   1.716  51.548  1.00  0.00     0.042 A 
HETATM    9  C17 UNL     1      26.480   1.186  52.004  1.00  0.00     0.057 A 
HETATM   10  C18 UNL     1      26.580   0.261  53.024  1.00  0.00     0.102 A 
ENDROOT
BRANCH   7  11
HETATM   11  N3  UNL     1      26.362   3.095  49.893  1.00  0.00    -0.340 N 
HETATM   12  H6  UNL     1      27.191   2.493  49.780  1.00  0.00     0.167 HD
BRANCH  11  13
HETATM   13  C7  UNL     1      26.612   4.364  49.324  1.00  0.00     0.034 A 
HETATM   14  C8  UNL     1      25.664   5.363  49.315  1.00  0.00     0.030 A 
HETATM   15  C9  UNL     1      25.874   6.614  48.759  1.00  0.00     0.010 A 
HETATM   16  C10 UNL     1      27.090   6.926  48.168  1.00  0.00    -0.051 A 
HETATM   17  C11 UNL     1      28.041   5.966  48.161  1.00  0.00    -0.046 A 
HETATM   18  C15 UNL     1      27.944   7.878  47.475  1.00  0.00     0.048 A 
HETATM   19  C12 UNL     1      27.795   4.739  48.721  1.00  0.00     0.037 A 
HETATM   20  C13 UNL     1      28.994   6.816  47.469  1.00  0.00     0.019 A 
HETATM   21  C14 UNL     1      30.222   7.217  48.269  1.00  0.00     0.015 C 
ENDBRANCH  11  13
ENDBRANCH   7  11
BRANCH  10  22
HETATM   22  O2  UNL     1      27.817  -0.230  53.429  1.00  0.00    -0.353 OA
HETATM   23  C19 UNL     1      28.646   0.443  54.342  1.00  0.00     0.210 C 
ENDBRANCH  10  22
BRANCH   1  24
HETATM   24  O1  UNL     1      25.589  -1.116  54.673  1.00  0.00    -0.353 OA
HETATM   25  C1  UNL     1      24.598  -1.262  55.657  1.00  0.00     0.210 C 
ENDBRANCH   1  24
TORSDOF 4
ENDMDL
MODEL 8
REMARK VINA RESULT:      -7.8      1.537      2.069
REMARK  4 active torsions:
REMARK  status: ('A' for Active; 'I' for Inactive)
REMARK    1  A    between atoms: O1_2  and  C2_3 
REMARK    2  A    between atoms: C6_9  and  N3_10 
REMARK    3  A    between atoms: N3_10  and  C7_11 
REMARK    4  A    between atoms: C18_22  and  O2_23 
ROOT
HETATM    1  C2  UNL     1      27.222   0.641  53.617  1.00  0.00     0.103 A 
HETATM    2  C3  UNL     1      26.611  -0.047  54.643  1.00  0.00     0.072 A 
HETATM    3  C4  UNL     1      25.310  -0.420  54.545  1.00  0.00     0.075 A 
HETATM    4  N1  UNL     1      24.793  -1.088  55.595  1.00  0.00    -0.241 NA
HETATM    5  C5  UNL     1      23.500  -1.503  55.591  1.00  0.00     0.236 A 
HETATM    6  N2  UNL     1      22.768  -1.224  54.509  1.00  0.00    -0.224 NA
HETATM    7  C6  UNL     1      23.185  -0.572  53.422  1.00  0.00     0.142 A 
HETATM    8  C16 UNL     1      24.495  -0.164  53.454  1.00  0.00     0.042 A 
HETATM    9  C17 UNL     1      25.135   0.517  52.460  1.00  0.00     0.057 A 
HETATM   10  C18 UNL     1      26.453   0.922  52.507  1.00  0.00     0.102 A 
ENDROOT
BRANCH   7  11
HETATM   11  N3  UNL     1      22.406  -0.280  52.284  1.00  0.00    -0.340 N 
HETATM   12  H6  UNL     1      22.543  -0.776  51.391  1.00  0.00     0.167 HD
BRANCH  11  13
HETATM   13  C7  UNL     1      21.370   0.671  52.150  1.00  0.00     0.034 A 
HETATM   14  C8  UNL     1      21.548   1.999  52.465  1.00  0.00     0.030 A 
HETATM   15  C9  UNL     1      20.552   2.955  52.352  1.00  0.00     0.010 A 
HETATM   16  C10 UNL     1      19.288   2.603  51.900  1.00  0.00    -0.051 A 
HETATM   17  C11 UNL     1      19.081   1.305  51.583  1.00  0.00    -0.046 A 
HETATM   18  C15 UNL     1      17.925   2.978  51.561  1.00  0.00     0.048 A 
HETATM   19  C12 UNL     1      20.094   0.389  51.709  1.00  0.00     0.037 A 
HETATM   20  C13 UNL     1      17.698   1.544  51.210  1.00  0.00     0.019 A 
HETATM   21  C14 UNL     1      17.370   1.357  49.738  1.00  0.00     0.015 C 
ENDBRANCH  11  13
ENDBRANCH   7  11
BRANCH  10  22
HETATM   22  O2  UNL     1      27.030   1.614  51.447  1.00  0.00    -0.353 OA
HETATM   23  C19 UNL     1      26.395   2.686  50.796  1.00  0.00     0.210 C 
ENDBRANCH  10  22
BRANCH   1  24
HETATM   24  O1  UNL     1      28.536   1.065  53.621  1.00  0.00    -0.353 OA
HETATM   25  C1  UNL     1      29.588   0.136  53.685  1.00  0.00     0.210 C 
ENDBRANCH   1  24
TORSDOF 4
ENDMDL
MODEL 9
REMARK VINA RESULT:      -7.8      2.606      4.272
REMARK  4 active torsions:
REMARK  status: ('A' for Active; 'I' for Inactive)
REMARK    1  A    between atoms: O1_2  and  C2_3 
REMARK    2  A    between atoms: C6_9  and  N3_10 
REMARK    3  A    between atoms: N3_10  and  C7_11 
REMARK    4  A    between atoms: C18_22  and  O2_23 
ROOT
HETATM    1  C2  UNL     1      26.698   0.510  54.333  1.00  0.00     0.103 A 
HETATM    2  C3  UNL     1      25.827  -0.281  55.054  1.00  0.00     0.072 A 
HETATM    3  C4  UNL     1      24.566  -0.502  54.607  1.00  0.00     0.075 A 
HETATM    4  N1  UNL     1      23.783  -1.287  55.375  1.00  0.00    -0.241 NA
HETATM    5  C5  UNL     1      22.504  -1.565  55.012  1.00  0.00     0.236 A 
HETATM    6  N2  UNL     1      22.058  -1.033  53.871  1.00  0.00    -0.224 NA
HETATM    7  C6  UNL     1      22.751  -0.248  53.044  1.00  0.00     0.142 A 
HETATM    8  C16 UNL     1      24.040   0.017  53.435  1.00  0.00     0.042 A 
HETATM    9  C17 UNL     1      24.930   0.793  52.751  1.00  0.00     0.057 A 
HETATM   10  C18 UNL     1      26.223   1.052  53.158  1.00  0.00     0.102 A 
ENDROOT
BRANCH   7  11
HETATM   11  N3  UNL     1      22.273   0.311  51.841  1.00  0.00    -0.340 N 
HETATM   12  H6  UNL     1      21.940  -0.278  51.065  1.00  0.00     0.167 HD
BRANCH  11  13
HETATM   13  C7  UNL     1      22.166   1.675  51.489  1.00  0.00     0.034 A 
HETATM   14  C8  UNL     1      21.446   2.574  52.244  1.00  0.00     0.030 A 
HETATM   15  C9  UNL     1      21.315   3.914  51.921  1.00  0.00     0.010 A 
HETATM   16  C10 UNL     1      21.926   4.427  50.785  1.00  0.00    -0.051 A 
HETATM   17  C11 UNL     1      22.639   3.570  50.023  1.00  0.00    -0.046 A 
HETATM   18  C15 UNL     1      22.209   5.554  49.911  1.00  0.00     0.048 A 
HETATM   19  C12 UNL     1      22.745   2.248  50.376  1.00  0.00     0.037 A 
HETATM   20  C13 UNL     1      22.998   4.605  49.070  1.00  0.00     0.019 A 
HETATM   21  C14 UNL     1      24.472   4.971  49.018  1.00  0.00     0.015 C 
ENDBRANCH  11  13
ENDBRANCH   7  11
BRANCH  10  22
HETATM   22  O2  UNL     1      27.067   1.856  52.398  1.00  0.00    -0.353 OA
HETATM   23  C19 UNL     1      26.646   2.525  51.236  1.00  0.00     0.210 C 
ENDBRANCH  10  22
BRANCH   1  24
HETATM   24  O1  UNL     1      27.998   0.794  54.701  1.00  0.00    -0.353 OA
HETATM   25  C1  UNL     1      29.021  -0.146  54.502  1.00  0.00     0.210 C 
ENDBRANCH   1  24
TORSDOF 4
ENDMDL
