MODEL 1
REMARK VINA RESULT:      -7.5      0.000      0.000
REMARK  8 active torsions:
REMARK  status: ('A' for Active; 'I' for Inactive)
REMARK    1  A    between atoms: C2_2  and  C3_3 
REMARK    2  A    between atoms: C3_3  and  N1_4 
REMARK    3  A    between atoms: N1_4  and  C4_5 
REMARK    4  A    between atoms: C4_5  and  C5_6 
REMARK    5  A    between atoms: C5_6  and  O1_7 
REMARK    6  A    between atoms: O1_7  and  C6_8 
REMARK    7  A    between atoms: N2_12  and  C10_13 
REMARK    8  A    between atoms: C20_27  and  O2_28 
ROOT
HETATM    1  C6  UNL     1      23.653   0.276  52.669  1.00  0.00     0.182 C 
HETATM    2  C7  UNL     1      23.983   1.557  52.092  1.00  0.00     0.005 C 
HETATM    3  C8  UNL     1      24.004   2.825  51.822  1.00  0.00    -0.008 C 
HETATM    4  C9  UNL     1      24.132   4.242  51.419  1.00  0.00     0.152 C 
HETATM    5  N2  UNL     1      22.974   4.839  50.849  1.00  0.00    -0.360 N 
HETATM    6  C16 UNL     1      21.780   5.061  51.641  1.00  0.00     0.264 C 
HETATM    7  N3  UNL     1      21.096   3.815  51.806  1.00  0.00    -0.302 N 
HETATM    8  C17 UNL     1      19.797   3.748  51.617  1.00  0.00     0.232 A 
HETATM    9  N4  UNL     1      20.694   2.682  51.990  1.00  0.00    -0.196 NA
HETATM   10  C18 UNL     1      20.107   1.664  52.606  1.00  0.00     0.110 C 
HETATM   11  C19 UNL     1      21.455   1.120  52.638  1.00  0.00     0.056 C 
HETATM   12  C20 UNL     1      22.215   0.074  53.030  1.00  0.00     0.129 C 
ENDROOT
BRANCH   1  13
HETATM   13  O1  UNL     1      24.358  -0.033  53.822  1.00  0.00    -0.377 OA
BRANCH  13  14
HETATM   14  C5  UNL     1      25.715  -0.025  53.687  1.00  0.00     0.188 C 
BRANCH  14  15
HETATM   15  C4  UNL     1      26.503   0.287  54.929  1.00  0.00     0.140 C 
BRANCH  15  16
HETATM   16  N1  UNL     1      27.814  -0.316  54.936  1.00  0.00    -0.419 N 
HETATM   17  H8  UNL     1      27.852  -1.276  54.582  1.00  0.00     0.153 HD
BRANCH  16  18
HETATM   18  C3  UNL     1      28.888   0.547  54.568  1.00  0.00     0.113 C 
BRANCH  18  19
HETATM   19  C2  UNL     1      29.834  -0.128  53.575  1.00  0.00     0.015 C 
HETATM   20  C1  UNL     1      29.451  -1.564  53.364  1.00  0.00     0.006 C 
ENDBRANCH  18  19
ENDBRANCH  16  18
ENDBRANCH  15  16
ENDBRANCH  14  15
ENDBRANCH  13  14
ENDBRANCH   1  13
BRANCH  12  21
HETATM   21  O2  UNL     1      22.351  -1.207  53.654  1.00  0.00    -0.378 OA
HETATM   22  C21 UNL     1      21.337  -1.669  54.526  1.00  0.00     0.202 C 
ENDBRANCH  12  21
BRANCH   5  23
HETATM   23  C10 UNL     1      22.893   5.261  49.493  1.00  0.00     0.033 A 
HETATM   24  C11 UNL     1      23.233   6.531  49.019  1.00  0.00     0.032 A 
HETATM   25  C12 UNL     1      23.152   6.895  47.698  1.00  0.00     0.046 A 
HETATM   26  C13 UNL     1      22.728   6.026  46.747  1.00  0.00     0.138 A 
HETATM   27  F1  UNL     1      22.660   6.415  45.462  1.00  0.00    -0.204 F 
HETATM   28  C14 UNL     1      22.368   4.735  47.129  1.00  0.00     0.074 A 
HETATM   29 CL1  UNL     1      21.825   3.646  45.899  1.00  0.00    -0.081 Cl
HETATM   30  C15 UNL     1      22.478   4.448  48.469  1.00  0.00     0.056 A 
ENDBRANCH   5  23
TORSDOF 8
ENDMDL
MODEL 2
REMARK VINA RESULT:      -7.5      4.068      7.242
REMARK  8 active torsions:
REMARK  status: ('A' for Active; 'I' for Inactive)
REMARK    1  A    between atoms: C2_2  and  C3_3 
REMARK    2  A    between atoms: C3_3  and  N1_4 
REMARK    3  A    between atoms: N1_4  and  C4_5 
REMARK    4  A    between atoms: C4_5  and  C5_6 
REMARK    5  A    between atoms: C5_6  and  O1_7 
REMARK    6  A    between atoms: O1_7  and  C6_8 
REMARK    7  A    between atoms: N2_12  and  C10_13 
REMARK    8  A    between atoms: C20_27  and  O2_28 
ROOT
HETATM    1  C6  UNL     1      21.155   1.139  49.663  1.00  0.00     0.182 C 
HETATM    2  C7  UNL     1      21.987   0.957  50.828  1.00  0.00     0.005 C 
HETATM    3  C8  UNL     1      22.738   1.182  51.860  1.00  0.00    -0.008 C 
HETATM    4  C9  UNL     1      23.601   1.296  53.056  1.00  0.00     0.152 C 
HETATM    5  N2  UNL     1      24.866   1.916  52.860  1.00  0.00    -0.360 N 
HETATM    6  C16 UNL     1      24.966   3.323  52.522  1.00  0.00     0.264 C 
HETATM    7  N3  UNL     1      24.633   3.491  51.140  1.00  0.00    -0.302 N 
HETATM    8  C17 UNL     1      25.390   4.237  50.367  1.00  0.00     0.232 A 
HETATM    9  N4  UNL     1      24.195   3.515  50.005  1.00  0.00    -0.196 NA
HETATM   10  C18 UNL     1      23.578   3.985  48.929  1.00  0.00     0.110 C 
HETATM   11  C19 UNL     1      22.644   2.903  49.196  1.00  0.00     0.056 C 
HETATM   12  C20 UNL     1      21.511   2.293  48.781  1.00  0.00     0.129 C 
ENDROOT
BRANCH   1  13
HETATM   13  O1  UNL     1      19.807   1.304  49.940  1.00  0.00    -0.377 OA
BRANCH  13  14
HETATM   14  C5  UNL     1      19.226   0.268  50.612  1.00  0.00     0.188 C 
BRANCH  14  15
HETATM   15  C4  UNL     1      18.752   0.565  52.007  1.00  0.00     0.140 C 
BRANCH  15  16
HETATM   16  N1  UNL     1      19.018  -0.506  52.938  1.00  0.00    -0.419 N 
HETATM   17  H8  UNL     1      18.931  -1.449  52.550  1.00  0.00     0.153 HD
BRANCH  16  18
HETATM   18  C3  UNL     1      20.101  -0.280  53.838  1.00  0.00     0.113 C 
BRANCH  18  19
HETATM   19  C2  UNL     1      20.855  -1.575  54.144  1.00  0.00     0.015 C 
HETATM   20  C1  UNL     1      22.090  -1.296  54.950  1.00  0.00     0.006 C 
ENDBRANCH  18  19
ENDBRANCH  16  18
ENDBRANCH  15  16
ENDBRANCH  14  15
ENDBRANCH  13  14
ENDBRANCH   1  13
BRANCH  12  21
HETATM   21  O2  UNL     1      20.411   2.186  47.870  1.00  0.00    -0.378 OA
HETATM   22  C21 UNL     1      20.084   3.285  47.041  1.00  0.00     0.202 C 
ENDBRANCH  12  21
BRANCH   5  23
HETATM   23  C10 UNL     1      26.105   1.228  52.979  1.00  0.00     0.033 A 
HETATM   24  C11 UNL     1      27.326   1.815  53.326  1.00  0.00     0.032 A 
HETATM   25  C12 UNL     1      28.499   1.112  53.443  1.00  0.00     0.046 A 
HETATM   26  C13 UNL     1      28.551  -0.226  53.224  1.00  0.00     0.138 A 
HETATM   27  F1  UNL     1      29.716  -0.883  53.347  1.00  0.00    -0.204 F 
HETATM   28  C14 UNL     1      27.380  -0.894  52.874  1.00  0.00     0.074 A 
HETATM   29 CL1  UNL     1      27.471  -2.599  52.595  1.00  0.00    -0.081 Cl
HETATM   30  C15 UNL     1      26.246  -0.121  52.778  1.00  0.00     0.056 A 
ENDBRANCH   5  23
TORSDOF 8
ENDMDL
MODEL 3
REMARK VINA RESULT:      -7.1      4.780      7.451
REMARK  8 active torsions:
REMARK  status: ('A' for Active; 'I' for Inactive)
REMARK    1  A    between atoms: C2_2  and  C3_3 
REMARK    2  A    between atoms: C3_3  and  N1_4 
REMARK    3  A    between atoms: N1_4  and  C4_5 
REMARK    4  A    between atoms: C4_5  and  C5_6 
REMARK    5  A    between atoms: C5_6  and  O1_7 
REMARK    6  A    between atoms: O1_7  and  C6_8 
REMARK    7  A    between atoms: N2_12  and  C10_13 
REMARK    8  A    between atoms: C20_27  and  O2_28 
ROOT
HETATM    1  C6  UNL     1      22.737   6.715  50.770  1.00  0.00     0.182 C 
HETATM    2  C7  UNL     1      23.320   5.403  50.924  1.00  0.00     0.005 C 
HETATM    3  C8  UNL     1      23.609   4.151  50.760  1.00  0.00    -0.008 C 
HETATM    4  C9  UNL     1      24.031   2.735  50.685  1.00  0.00     0.152 C 
HETATM    5  N2  UNL     1      23.013   1.764  50.893  1.00  0.00    -0.360 N 
HETATM    6  C16 UNL     1      21.928   1.603  49.944  1.00  0.00     0.264 C 
HETATM    7  N3  UNL     1      20.992   2.672  50.126  1.00  0.00    -0.302 N 
HETATM    8  C17 UNL     1      19.704   2.415  50.182  1.00  0.00     0.232 A 
HETATM    9  N4  UNL     1      20.358   3.697  50.284  1.00  0.00    -0.196 NA
HETATM   10  C18 UNL     1      19.584   4.730  49.978  1.00  0.00     0.110 C 
HETATM   11  C19 UNL     1      20.779   5.502  50.277  1.00  0.00     0.056 C 
HETATM   12  C20 UNL     1      21.305   6.746  50.339  1.00  0.00     0.129 C 
ENDROOT
BRANCH   1  13
HETATM   13  O1  UNL     1      23.399   7.535  49.870  1.00  0.00    -0.377 OA
BRANCH  13  14
HETATM   14  C5  UNL     1      24.595   8.023  50.307  1.00  0.00     0.188 C 
BRANCH  14  15
HETATM   15  C4  UNL     1      25.732   7.971  49.324  1.00  0.00     0.140 C 
BRANCH  15  16
HETATM   16  N1  UNL     1      26.735   6.992  49.667  1.00  0.00    -0.419 N 
HETATM   17  H8  UNL     1      26.384   6.165  50.160  1.00  0.00     0.153 HD
BRANCH  16  18
HETATM   18  C3  UNL     1      27.738   6.771  48.678  1.00  0.00     0.113 C 
BRANCH  18  19
HETATM   19  C2  UNL     1      27.920   5.281  48.387  1.00  0.00     0.015 C 
HETATM   20  C1  UNL     1      26.978   4.456  49.216  1.00  0.00     0.006 C 
ENDBRANCH  18  19
ENDBRANCH  16  18
ENDBRANCH  15  16
ENDBRANCH  14  15
ENDBRANCH  13  14
ENDBRANCH   1  13
BRANCH  12  21
HETATM   21  O2  UNL     1      21.178   8.165  50.193  1.00  0.00    -0.378 OA
HETATM   22  C21 UNL     1      19.918   8.722  49.869  1.00  0.00     0.202 C 
ENDBRANCH  12  21
BRANCH   5  23
HETATM   23  C10 UNL     1      22.976   0.892  52.016  1.00  0.00     0.033 A 
HETATM   24  C11 UNL     1      21.841   0.223  52.483  1.00  0.00     0.032 A 
HETATM   25  C12 UNL     1      21.851  -0.622  53.565  1.00  0.00     0.046 A 
HETATM   26  C13 UNL     1      22.987  -0.866  54.265  1.00  0.00     0.138 A 
HETATM   27  F1  UNL     1      22.960  -1.698  55.320  1.00  0.00    -0.204 F 
HETATM   28  C14 UNL     1      24.167  -0.241  53.870  1.00  0.00     0.074 A 
HETATM   29 CL1  UNL     1      25.602  -0.563  54.782  1.00  0.00    -0.081 Cl
HETATM   30  C15 UNL     1      24.076   0.589  52.777  1.00  0.00     0.056 A 
ENDBRANCH   5  23
TORSDOF 8
ENDMDL
MODEL 4
REMARK VINA RESULT:      -7.0      4.221      8.391
REMARK  8 active torsions:
REMARK  status: ('A' for Active; 'I' for Inactive)
REMARK    1  A    between atoms: C2_2  and  C3_3 
REMARK    2  A    between atoms: C3_3  and  N1_4 
REMARK    3  A    between atoms: N1_4  and  C4_5 
REMARK    4  A    between atoms: C4_5  and  C5_6 
REMARK    5  A    between atoms: C5_6  and  O1_7 
REMARK    6  A    between atoms: O1_7  and  C6_8 
REMARK    7  A    between atoms: N2_12  and  C10_13 
REMARK    8  A    between atoms: C20_27  and  O2_28 
ROOT
HETATM    1  C6  UNL     1      20.774   1.025  49.694  1.00  0.00     0.182 C 
HETATM    2  C7  UNL     1      21.566   0.709  50.860  1.00  0.00     0.005 C 
HETATM    3  C8  UNL     1      22.286   0.814  51.932  1.00  0.00    -0.008 C 
HETATM    4  C9  UNL     1      23.112   0.790  53.158  1.00  0.00     0.152 C 
HETATM    5  N2  UNL     1      24.392   1.402  53.066  1.00  0.00    -0.360 N 
HETATM    6  C16 UNL     1      24.525   2.833  52.877  1.00  0.00     0.264 C 
HETATM    7  N3  UNL     1      24.239   3.148  51.509  1.00  0.00    -0.302 N 
HETATM    8  C17 UNL     1      25.033   3.954  50.840  1.00  0.00     0.232 A 
HETATM    9  N4  UNL     1      23.839   3.295  50.371  1.00  0.00    -0.196 NA
HETATM   10  C18 UNL     1      23.264   3.884  49.330  1.00  0.00     0.110 C 
HETATM   11  C19 UNL     1      22.304   2.798  49.456  1.00  0.00     0.056 C 
HETATM   12  C20 UNL     1      21.176   2.256  48.946  1.00  0.00     0.129 C 
ENDROOT
BRANCH   1  13
HETATM   13  O1  UNL     1      19.420   1.186  49.946  1.00  0.00    -0.377 OA
BRANCH  13  14
HETATM   14  C5  UNL     1      19.113   1.579  51.216  1.00  0.00     0.188 C 
BRANCH  14  15
HETATM   15  C4  UNL     1      18.641   2.998  51.374  1.00  0.00     0.140 C 
BRANCH  15  16
HETATM   16  N1  UNL     1      17.999   3.517  50.190  1.00  0.00    -0.419 N 
HETATM   17  H8  UNL     1      18.139   2.963  49.341  1.00  0.00     0.153 HD
BRANCH  16  18
HETATM   18  C3  UNL     1      16.697   4.066  50.391  1.00  0.00     0.113 C 
BRANCH  18  19
HETATM   19  C2  UNL     1      16.378   4.221  51.879  1.00  0.00     0.015 C 
HETATM   20  C1  UNL     1      15.060   3.583  52.212  1.00  0.00     0.006 C 
ENDBRANCH  18  19
ENDBRANCH  16  18
ENDBRANCH  15  16
ENDBRANCH  14  15
ENDBRANCH  13  14
ENDBRANCH   1  13
BRANCH  12  21
HETATM   21  O2  UNL     1      20.105   2.263  47.996  1.00  0.00    -0.378 OA
HETATM   22  C21 UNL     1      19.966   3.358  47.111  1.00  0.00     0.202 C 
ENDBRANCH  12  21
BRANCH   5  23
HETATM   23  C10 UNL     1      25.616   0.682  53.152  1.00  0.00     0.033 A 
HETATM   24  C11 UNL     1      25.809  -0.638  52.734  1.00  0.00     0.032 A 
HETATM   25  C12 UNL     1      27.011  -1.294  52.823  1.00  0.00     0.046 A 
HETATM   26  C13 UNL     1      28.113  -0.690  53.335  1.00  0.00     0.138 A 
HETATM   27  F1  UNL     1      29.275  -1.361  53.408  1.00  0.00    -0.204 F 
HETATM   28  C14 UNL     1      28.013   0.628  53.777  1.00  0.00     0.074 A 
HETATM   29 CL1  UNL     1      29.430   1.375  54.430  1.00  0.00    -0.081 Cl
HETATM   30  C15 UNL     1      26.776   1.215  53.653  1.00  0.00     0.056 A 
ENDBRANCH   5  23
TORSDOF 8
ENDMDL
MODEL 5
REMARK VINA RESULT:      -7.0      5.775      8.458
REMARK  8 active torsions:
REMARK  status: ('A' for Active; 'I' for Inactive)
REMARK    1  A    between atoms: C2_2  and  C3_3 
REMARK    2  A    between atoms: C3_3  and  N1_4 
REMARK    3  A    between atoms: N1_4  and  C4_5 
REMARK    4  A    between atoms: C4_5  and  C5_6 
REMARK    5  A    between atoms: C5_6  and  O1_7 
REMARK    6  A    between atoms: O1_7  and  C6_8 
REMARK    7  A    between atoms: N2_12  and  C10_13 
REMARK    8  A    between atoms: C20_27  and  O2_28 
ROOT
HETATM    1  C6  UNL     1      27.475   7.203  48.705  1.00  0.00     0.182 C 
HETATM    2  C7  UNL     1      27.357   5.785  48.952  1.00  0.00     0.005 C 
HETATM    3  C8  UNL     1      26.873   4.596  49.131  1.00  0.00    -0.008 C 
HETATM    4  C9  UNL     1      26.456   3.194  49.352  1.00  0.00     0.152 C 
HETATM    5  N2  UNL     1      25.623   2.958  50.480  1.00  0.00    -0.360 N 
HETATM    6  C16 UNL     1      24.271   3.480  50.534  1.00  0.00     0.264 C 
HETATM    7  N3  UNL     1      24.328   4.880  50.828  1.00  0.00    -0.302 N 
HETATM    8  C17 UNL     1      23.537   5.391  51.745  1.00  0.00     0.232 A 
HETATM    9  N4  UNL     1      24.518   6.076  50.940  1.00  0.00    -0.196 NA
HETATM   10  C18 UNL     1      24.304   7.378  50.807  1.00  0.00     0.110 C 
HETATM   11  C19 UNL     1      25.513   7.328  50.002  1.00  0.00     0.056 C 
HETATM   12  C20 UNL     1      26.379   8.055  49.261  1.00  0.00     0.129 C 
ENDROOT
BRANCH   1  13
HETATM   13  O1  UNL     1      27.553   7.548  47.365  1.00  0.00    -0.377 OA
BRANCH  13  14
HETATM   14  C5  UNL     1      28.794   7.429  46.810  1.00  0.00     0.188 C 
BRANCH  14  15
HETATM   15  C4  UNL     1      29.859   8.330  47.369  1.00  0.00     0.140 C 
BRANCH  15  16
HETATM   16  N1  UNL     1      31.091   7.637  47.665  1.00  0.00    -0.419 N 
HETATM   17  H8  UNL     1      31.945   8.144  47.416  1.00  0.00     0.153 HD
BRANCH  16  18
HETATM   18  C3  UNL     1      31.108   6.917  48.896  1.00  0.00     0.113 C 
BRANCH  18  19
HETATM   19  C2  UNL     1      31.847   5.586  48.756  1.00  0.00     0.015 C 
HETATM   20  C1  UNL     1      31.315   4.799  47.594  1.00  0.00     0.006 C 
ENDBRANCH  18  19
ENDBRANCH  16  18
ENDBRANCH  15  16
ENDBRANCH  14  15
ENDBRANCH  13  14
ENDBRANCH   1  13
BRANCH  12  21
HETATM   21  O2  UNL     1      26.804   9.303  48.703  1.00  0.00    -0.378 OA
HETATM   22  C21 UNL     1      25.874  10.362  48.576  1.00  0.00     0.202 C 
ENDBRANCH  12  21
BRANCH   5  23
HETATM   23  C10 UNL     1      26.032   2.206  51.616  1.00  0.00     0.033 A 
HETATM   24  C11 UNL     1      27.281   2.297  52.238  1.00  0.00     0.032 A 
HETATM   25  C12 UNL     1      27.633   1.561  53.343  1.00  0.00     0.046 A 
HETATM   26  C13 UNL     1      26.773   0.681  53.913  1.00  0.00     0.138 A 
HETATM   27  F1  UNL     1      27.150  -0.023  54.994  1.00  0.00    -0.204 F 
HETATM   28  C14 UNL     1      25.504   0.526  53.359  1.00  0.00     0.074 A 
HETATM   29 CL1  UNL     1      24.427  -0.606  54.101  1.00  0.00    -0.081 Cl
HETATM   30  C15 UNL     1      25.227   1.298  52.255  1.00  0.00     0.056 A 
ENDBRANCH   5  23
TORSDOF 8
ENDMDL
MODEL 6
REMARK VINA RESULT:      -7.0      6.914      9.145
REMARK  8 active torsions:
REMARK  status: ('A' for Active; 'I' for Inactive)
REMARK    1  A    between atoms: C2_2  and  C3_3 
REMARK    2  A    between atoms: C3_3  and  N1_4 
REMARK    3  A    between atoms: N1_4  and  C4_5 
REMARK    4  A    between atoms: C4_5  and  C5_6 
REMARK    5  A    between atoms: C5_6  and  O1_7 
REMARK    6  A    between atoms: O1_7  and  C6_8 
REMARK    7  A    between atoms: N2_12  and  C10_13 
REMARK    8  A    between atoms: C20_27  and  O2_28 
ROOT
HETATM    1  C6  UNL     1      30.619   7.316  48.624  1.00  0.00     0.182 C 
HETATM    2  C7  UNL     1      29.703   6.200  48.644  1.00  0.00     0.005 C 
HETATM    3  C8  UNL     1      28.644   5.466  48.507  1.00  0.00    -0.008 C 
HETATM    4  C9  UNL     1      27.512   4.520  48.407  1.00  0.00     0.152 C 
HETATM    5  N2  UNL     1      26.349   4.850  49.156  1.00  0.00    -0.360 N 
HETATM    6  C16 UNL     1      25.547   6.010  48.820  1.00  0.00     0.264 C 
HETATM    7  N3  UNL     1      26.220   7.186  49.284  1.00  0.00    -0.302 N 
HETATM    8  C17 UNL     1      25.553   8.110  49.940  1.00  0.00     0.232 A 
HETATM    9  N4  UNL     1      26.953   8.105  49.595  1.00  0.00    -0.196 NA
HETATM   10  C18 UNL     1      27.511   9.308  49.557  1.00  0.00     0.110 C 
HETATM   11  C19 UNL     1      28.706   8.562  49.200  1.00  0.00     0.056 C 
HETATM   12  C20 UNL     1      30.016   8.660  48.882  1.00  0.00     0.129 C 
ENDROOT
BRANCH   1  13
HETATM   13  O1  UNL     1      31.322   7.461  47.438  1.00  0.00    -0.377 OA
BRANCH  13  14
HETATM   14  C5  UNL     1      32.391   6.625  47.296  1.00  0.00     0.188 C 
BRANCH  14  15
HETATM   15  C4  UNL     1      33.281   6.477  48.498  1.00  0.00     0.140 C 
BRANCH  15  16
HETATM   16  N1  UNL     1      33.632   5.105  48.778  1.00  0.00    -0.419 N 
HETATM   17  H8  UNL     1      32.862   4.435  48.698  1.00  0.00     0.153 HD
BRANCH  16  18
HETATM   18  C3  UNL     1      34.903   4.685  48.285  1.00  0.00     0.113 C 
BRANCH  18  19
HETATM   19  C2  UNL     1      34.793   3.381  47.493  1.00  0.00     0.015 C 
HETATM   20  C1  UNL     1      33.440   2.757  47.677  1.00  0.00     0.006 C 
ENDBRANCH  18  19
ENDBRANCH  16  18
ENDBRANCH  15  16
ENDBRANCH  14  15
ENDBRANCH  13  14
ENDBRANCH   1  13
BRANCH  12  21
HETATM   21  O2  UNL     1      31.191   9.446  48.652  1.00  0.00    -0.378 OA
HETATM   22  C21 UNL     1      31.074  10.849  48.512  1.00  0.00     0.202 C 
ENDBRANCH  12  21
BRANCH   5  23
HETATM   23  C10 UNL     1      25.886   4.088  50.265  1.00  0.00     0.033 A 
HETATM   24  C11 UNL     1      24.684   4.301  50.946  1.00  0.00     0.032 A 
HETATM   25  C12 UNL     1      24.266   3.534  52.005  1.00  0.00     0.046 A 
HETATM   26  C13 UNL     1      25.010   2.499  52.469  1.00  0.00     0.138 A 
HETATM   27  F1  UNL     1      24.572   1.769  53.509  1.00  0.00    -0.204 F 
HETATM   28  C14 UNL     1      26.225   2.214  51.849  1.00  0.00     0.074 A 
HETATM   29 CL1  UNL     1      27.158   0.892  52.462  1.00  0.00    -0.081 Cl
HETATM   30  C15 UNL     1      26.572   3.026  50.795  1.00  0.00     0.056 A 
ENDBRANCH   5  23
TORSDOF 8
ENDMDL
MODEL 7
REMARK VINA RESULT:      -6.9      5.924      8.776
REMARK  8 active torsions:
REMARK  status: ('A' for Active; 'I' for Inactive)
REMARK    1  A    between atoms: C2_2  and  C3_3 
REMARK    2  A    between atoms: C3_3  and  N1_4 
REMARK    3  A    between atoms: N1_4  and  C4_5 
REMARK    4  A    between atoms: C4_5  and  C5_6 
REMARK    5  A    between atoms: C5_6  and  O1_7 
REMARK    6  A    between atoms: O1_7  and  C6_8 
REMARK    7  A    between atoms: N2_12  and  C10_13 
REMARK    8  A    between atoms: C20_27  and  O2_28 
ROOT
HETATM    1  C6  UNL     1      27.528   7.151  48.686  1.00  0.00     0.182 C 
HETATM    2  C7  UNL     1      27.318   5.744  48.933  1.00  0.00     0.005 C 
HETATM    3  C8  UNL     1      26.758   4.589  49.109  1.00  0.00    -0.008 C 
HETATM    4  C9  UNL     1      26.252   3.217  49.329  1.00  0.00     0.152 C 
HETATM    5  N2  UNL     1      25.396   3.035  50.450  1.00  0.00    -0.360 N 
HETATM    6  C16 UNL     1      24.079   3.642  50.491  1.00  0.00     0.264 C 
HETATM    7  N3  UNL     1      24.222   5.036  50.785  1.00  0.00    -0.302 N 
HETATM    8  C17 UNL     1      23.457   5.598  51.694  1.00  0.00     0.232 A 
HETATM    9  N4  UNL     1      24.486   6.217  50.896  1.00  0.00    -0.196 NA
HETATM   10  C18 UNL     1      24.356   7.531  50.760  1.00  0.00     0.110 C 
HETATM   11  C19 UNL     1      25.566   7.403  49.965  1.00  0.00     0.056 C 
HETATM   12  C20 UNL     1      26.482   8.072  49.231  1.00  0.00     0.129 C 
ENDROOT
BRANCH   1  13
HETATM   13  O1  UNL     1      27.638   7.489  47.346  1.00  0.00    -0.377 OA
BRANCH  13  14
HETATM   14  C5  UNL     1      28.900   7.406  46.834  1.00  0.00     0.188 C 
BRANCH  14  15
HETATM   15  C4  UNL     1      29.602   8.713  46.587  1.00  0.00     0.140 C 
BRANCH  15  16
HETATM   16  N1  UNL     1      30.087   9.333  47.797  1.00  0.00    -0.419 N 
HETATM   17  H8  UNL     1      29.426   9.336  48.579  1.00  0.00     0.153 HD
BRANCH  16  18
HETATM   18  C3  UNL     1      31.453   9.074  48.112  1.00  0.00     0.113 C 
BRANCH  18  19
HETATM   19  C2  UNL     1      31.595   8.406  49.481  1.00  0.00     0.015 C 
HETATM   20  C1  UNL     1      31.604   6.911  49.346  1.00  0.00     0.006 C 
ENDBRANCH  18  19
ENDBRANCH  16  18
ENDBRANCH  15  16
ENDBRANCH  14  15
ENDBRANCH  13  14
ENDBRANCH   1  13
BRANCH  12  21
HETATM   21  O2  UNL     1      26.990   9.290  48.675  1.00  0.00    -0.378 OA
HETATM   22  C21 UNL     1      26.145  10.422  48.589  1.00  0.00     0.202 C 
ENDBRANCH  12  21
BRANCH   5  23
HETATM   23  C10 UNL     1      25.747   2.261  51.591  1.00  0.00     0.033 A 
HETATM   24  C11 UNL     1      24.856   1.517  52.369  1.00  0.00     0.032 A 
HETATM   25  C12 UNL     1      25.238   0.773  53.457  1.00  0.00     0.046 A 
HETATM   26  C13 UNL     1      26.533   0.711  53.855  1.00  0.00     0.138 A 
HETATM   27  F1  UNL     1      26.873  -0.028  54.926  1.00  0.00    -0.204 F 
HETATM   28  C14 UNL     1      27.492   1.422  53.137  1.00  0.00     0.074 A 
HETATM   29 CL1  UNL     1      29.136   1.332  53.667  1.00  0.00    -0.081 Cl
HETATM   30  C15 UNL     1      27.030   2.142  52.060  1.00  0.00     0.056 A 
ENDBRANCH   5  23
TORSDOF 8
ENDMDL
MODEL 8
REMARK VINA RESULT:      -6.8      3.749      5.508
REMARK  8 active torsions:
REMARK  status: ('A' for Active; 'I' for Inactive)
REMARK    1  A    between atoms: C2_2  and  C3_3 
REMARK    2  A    between atoms: C3_3  and  N1_4 
REMARK    3  A    between atoms: N1_4  and  C4_5 
REMARK    4  A    between atoms: C4_5  and  C5_6 
REMARK    5  A    between atoms: C5_6  and  O1_7 
REMARK    6  A    between atoms: O1_7  and  C6_8 
REMARK    7  A    between atoms: N2_12  and  C10_13 
REMARK    8  A    between atoms: C20_27  and  O2_28 
ROOT
HETATM    1  C6  UNL     1      19.043   0.825  50.070  1.00  0.00     0.182 C 
HETATM    2  C7  UNL     1      20.371   1.068  50.582  1.00  0.00     0.005 C 
HETATM    3  C8  UNL     1      21.380   1.587  51.210  1.00  0.00    -0.008 C 
HETATM    4  C9  UNL     1      22.611   2.072  51.870  1.00  0.00     0.152 C 
HETATM    5  N2  UNL     1      23.051   3.372  51.502  1.00  0.00    -0.360 N 
HETATM    6  C16 UNL     1      22.276   4.549  51.844  1.00  0.00     0.264 C 
HETATM    7  N3  UNL     1      21.157   4.640  50.956  1.00  0.00    -0.302 N 
HETATM    8  C17 UNL     1      20.860   5.788  50.388  1.00  0.00     0.232 A 
HETATM    9  N4  UNL     1      20.181   4.524  50.239  1.00  0.00    -0.196 NA
HETATM   10  C18 UNL     1      18.918   4.625  49.846  1.00  0.00     0.110 C 
HETATM   11  C19 UNL     1      18.950   3.174  49.927  1.00  0.00     0.056 C 
HETATM   12  C20 UNL     1      18.230   2.042  49.763  1.00  0.00     0.129 C 
ENDROOT
BRANCH   1  13
HETATM   13  O1  UNL     1      18.240   0.058  50.899  1.00  0.00    -0.377 OA
BRANCH  13  14
HETATM   14  C5  UNL     1      18.595   0.068  52.216  1.00  0.00     0.188 C 
BRANCH  14  15
HETATM   15  C4  UNL     1      18.244  -1.162  53.007  1.00  0.00     0.140 C 
BRANCH  15  16
HETATM   16  N1  UNL     1      19.258  -1.527  53.968  1.00  0.00    -0.419 N 
HETATM   17  H8  UNL     1      19.341  -2.531  54.151  1.00  0.00     0.153 HD
BRANCH  16  18
HETATM   18  C3  UNL     1      20.474  -0.787  53.886  1.00  0.00     0.113 C 
BRANCH  18  19
HETATM   19  C2  UNL     1      21.626  -1.525  54.569  1.00  0.00     0.015 C 
HETATM   20  C1  UNL     1      22.938  -0.858  54.274  1.00  0.00     0.006 C 
ENDBRANCH  18  19
ENDBRANCH  16  18
ENDBRANCH  15  16
ENDBRANCH  14  15
ENDBRANCH  13  14
ENDBRANCH   1  13
BRANCH  12  21
HETATM   21  O2  UNL     1      17.008   1.376  49.424  1.00  0.00    -0.378 OA
HETATM   22  C21 UNL     1      15.785   2.085  49.496  1.00  0.00     0.202 C 
ENDBRANCH  12  21
BRANCH   5  23
HETATM   23  C10 UNL     1      24.257   3.622  50.789  1.00  0.00     0.033 A 
HETATM   24  C11 UNL     1      25.360   2.765  50.741  1.00  0.00     0.032 A 
HETATM   25  C12 UNL     1      26.502   3.038  50.030  1.00  0.00     0.046 A 
HETATM   26  C13 UNL     1      26.636   4.182  49.314  1.00  0.00     0.138 A 
HETATM   27  F1  UNL     1      27.768   4.418  48.629  1.00  0.00    -0.204 F 
HETATM   28  C14 UNL     1      25.584   5.096  49.304  1.00  0.00     0.074 A 
HETATM   29 CL1  UNL     1      25.781   6.550  48.388  1.00  0.00    -0.081 Cl
HETATM   30  C15 UNL     1      24.475   4.750  50.040  1.00  0.00     0.056 A 
ENDBRANCH   5  23
TORSDOF 8
ENDMDL
MODEL 9
REMARK VINA RESULT:      -6.8      3.234      4.486
REMARK  8 active torsions:
REMARK  status: ('A' for Active; 'I' for Inactive)
REMARK    1  A    between atoms: C2_2  and  C3_3 
REMARK    2  A    between atoms: C3_3  and  N1_4 
REMARK    3  A    between atoms: N1_4  and  C4_5 
REMARK    4  A    between atoms: C4_5  and  C5_6 
REMARK    5  A    between atoms: C5_6  and  O1_7 
REMARK    6  A    between atoms: O1_7  and  C6_8 
REMARK    7  A    between atoms: N2_12  and  C10_13 
REMARK    8  A    between atoms: C20_27  and  O2_28 
ROOT
HETATM    1  C6  UNL     1      21.018   1.182  50.137  1.00  0.00     0.182 C 
HETATM    2  C7  UNL     1      22.337   1.689  50.435  1.00  0.00     0.005 C 
HETATM    3  C8  UNL     1      23.311   2.403  50.905  1.00  0.00    -0.008 C 
HETATM    4  C9  UNL     1      24.512   3.129  51.371  1.00  0.00     0.152 C 
HETATM    5  N2  UNL     1      24.619   4.489  50.971  1.00  0.00    -0.360 N 
HETATM    6  C16 UNL     1      23.692   5.489  51.464  1.00  0.00     0.264 C 
HETATM    7  N3  UNL     1      22.448   5.348  50.771  1.00  0.00    -0.302 N 
HETATM    8  C17 UNL     1      21.841   6.410  50.288  1.00  0.00     0.232 A 
HETATM    9  N4  UNL     1      21.411   5.035  50.218  1.00  0.00    -0.196 NA
HETATM   10  C18 UNL     1      20.107   4.878  50.036  1.00  0.00     0.110 C 
HETATM   11  C19 UNL     1      20.438   3.463  50.072  1.00  0.00     0.056 C 
HETATM   12  C20 UNL     1      19.940   2.209  49.996  1.00  0.00     0.129 C 
ENDROOT
BRANCH   1  13
HETATM   13  O1  UNL     1      20.529   0.275  51.064  1.00  0.00    -0.377 OA
BRANCH  13  14
HETATM   14  C5  UNL     1      21.437  -0.148  51.991  1.00  0.00     0.188 C 
BRANCH  14  15
HETATM   15  C4  UNL     1      21.100   0.141  53.427  1.00  0.00     0.140 C 
BRANCH  15  16
HETATM   16  N1  UNL     1      22.165  -0.200  54.340  1.00  0.00    -0.419 N 
HETATM   17  H8  UNL     1      21.860  -0.544  55.254  1.00  0.00     0.153 HD
BRANCH  16  18
HETATM   18  C3  UNL     1      23.289  -0.851  53.752  1.00  0.00     0.113 C 
BRANCH  18  19
HETATM   19  C2  UNL     1      24.565  -0.023  53.914  1.00  0.00     0.015 C 
HETATM   20  C1  UNL     1      25.503  -0.256  52.766  1.00  0.00     0.006 C 
ENDBRANCH  18  19
ENDBRANCH  16  18
ENDBRANCH  15  16
ENDBRANCH  14  15
ENDBRANCH  13  14
ENDBRANCH   1  13
BRANCH  12  21
HETATM   21  O2  UNL     1      18.836   1.310  49.842  1.00  0.00    -0.378 OA
HETATM   22  C21 UNL     1      17.565   1.822  49.491  1.00  0.00     0.202 C 
ENDBRANCH  12  21
BRANCH   5  23
HETATM   23  C10 UNL     1      25.619   4.970  50.080  1.00  0.00     0.033 A 
HETATM   24  C11 UNL     1      26.653   4.204  49.536  1.00  0.00     0.032 A 
HETATM   25  C12 UNL     1      27.592   4.704  48.668  1.00  0.00     0.046 A 
HETATM   26  C13 UNL     1      27.576   6.003  48.277  1.00  0.00     0.138 A 
HETATM   27  F1  UNL     1      28.511   6.460  47.427  1.00  0.00    -0.204 F 
HETATM   28  C14 UNL     1      26.579   6.841  48.771  1.00  0.00     0.074 A 
HETATM   29 CL1  UNL     1      26.583   8.495  48.261  1.00  0.00    -0.081 Cl
HETATM   30  C15 UNL     1      25.676   6.265  49.633  1.00  0.00     0.056 A 
ENDBRANCH   5  23
TORSDOF 8
ENDMDL
