MODEL 1
REMARK VINA RESULT:      -7.3      0.000      0.000
REMARK  4 active torsions:
REMARK  status: ('A' for Active; 'I' for Inactive)
REMARK    1  A    between atoms: C2_2  and  C3_4 
REMARK       I    between atoms: N1_7  and  C6_8 
REMARK    2  A    between atoms: C6_8  and  C7_10 
REMARK    3  A    between atoms: C11_14  and  N2_15 
REMARK       I    between atoms: N2_15  and  C12_16 
REMARK    4  A    between atoms: C12_16  and  C13_18 
ROOT
HETATM    1  C13 UNL     1      27.109  -0.146  52.943  1.00  0.00    -0.006 C 
HETATM    2  C14 UNL     1      28.176  -0.523  53.255  1.00  0.00    -0.101 C 
HETATM    3  C15 UNL     1      29.496  -0.977  53.613  1.00  0.00     0.112 C 
ENDROOT
BRANCH   1   4
HETATM    4  C12 UNL     1      25.821   0.281  52.577  1.00  0.00     0.300 C 
HETATM    5  N2  UNL     1      24.797  -0.204  53.506  1.00  0.00    -0.316 N 
HETATM    6  H9  UNL     1      24.929  -0.882  54.320  1.00  0.00     0.170 HD
HETATM    7  O2  UNL     1      25.049   0.889  51.840  1.00  0.00    -0.258 OA
BRANCH   5   8
HETATM    8  C11 UNL     1      23.427   0.233  53.354  1.00  0.00     0.036 A 
HETATM    9  C10 UNL     1      22.927  -0.875  54.140  1.00  0.00     0.029 A 
HETATM   10  C9  UNL     1      21.586  -1.160  54.484  1.00  0.00     0.003 A 
HETATM   11  C8  UNL     1      20.738  -0.187  53.940  1.00  0.00     0.017 A 
HETATM   12  C7  UNL     1      21.106   0.924  53.163  1.00  0.00     0.034 A 
HETATM   13  C16 UNL     1      22.453   1.058  52.919  1.00  0.00     0.046 A 
BRANCH  12  14
HETATM   14  C6  UNL     1      20.190   1.944  52.578  1.00  0.00     0.258 C 
HETATM   15  N1  UNL     1      19.439   1.167  51.607  1.00  0.00    -0.321 N 
HETATM   16  C5  UNL     1      19.881   1.013  50.369  1.00  0.00     0.070 C 
HETATM   17  C3  UNL     1      18.001   0.516  51.637  1.00  0.00     0.151 C 
HETATM   18  C4  UNL     1      18.610   0.243  50.424  1.00  0.00     0.037 C 
HETATM   19  O1  UNL     1      20.265   3.149  53.009  1.00  0.00    -0.267 OA
BRANCH  17  20
HETATM   20  C2  UNL     1      16.804  -0.374  51.445  1.00  0.00     0.058 A 
HETATM   21  C1  UNL     1      16.647  -0.626  52.773  1.00  0.00     0.099 A 
HETATM   22 BR1  UNL     1      15.276  -1.554  51.563  1.00  0.00    -0.152 Br
ENDBRANCH  17  20
ENDBRANCH  12  14
ENDBRANCH   5   8
ENDBRANCH   1   4
TORSDOF 4
ENDMDL
MODEL 2
REMARK VINA RESULT:      -7.3      2.998      3.875
REMARK  4 active torsions:
REMARK  status: ('A' for Active; 'I' for Inactive)
REMARK    1  A    between atoms: C2_2  and  C3_4 
REMARK       I    between atoms: N1_7  and  C6_8 
REMARK    2  A    between atoms: C6_8  and  C7_10 
REMARK    3  A    between atoms: C11_14  and  N2_15 
REMARK       I    between atoms: N2_15  and  C12_16 
REMARK    4  A    between atoms: C12_16  and  C13_18 
ROOT
HETATM    1  C13 UNL     1      27.408  -0.213  53.027  1.00  0.00    -0.006 C 
HETATM    2  C14 UNL     1      28.476  -0.538  53.388  1.00  0.00    -0.101 C 
HETATM    3  C15 UNL     1      29.799  -0.925  53.809  1.00  0.00     0.112 C 
ENDROOT
BRANCH   1   4
HETATM    4  C12 UNL     1      26.119   0.151  52.600  1.00  0.00     0.300 C 
HETATM    5  N2  UNL     1      25.076  -0.621  53.282  1.00  0.00    -0.316 N 
HETATM    6  H9  UNL     1      25.210  -1.440  53.954  1.00  0.00     0.170 HD
HETATM    7  O2  UNL     1      25.354   0.820  51.911  1.00  0.00    -0.258 OA
BRANCH   5   8
HETATM    8  C11 UNL     1      23.685  -0.302  53.054  1.00  0.00     0.036 A 
HETATM    9  C10 UNL     1      23.299  -0.801  54.357  1.00  0.00     0.029 A 
HETATM   10  C9  UNL     1      22.006  -0.825  54.929  1.00  0.00     0.003 A 
HETATM   11  C8  UNL     1      21.080  -0.276  54.035  1.00  0.00     0.017 A 
HETATM   12  C7  UNL     1      21.335   0.234  52.751  1.00  0.00     0.034 A 
HETATM   13  C16 UNL     1      22.647   0.184  52.342  1.00  0.00     0.046 A 
BRANCH  12  14
HETATM   14  C6  UNL     1      20.335   0.801  51.803  1.00  0.00     0.258 C 
HETATM   15  N1  UNL     1      20.750   2.190  51.706  1.00  0.00    -0.321 N 
HETATM   16  C5  UNL     1      20.296   3.098  52.555  1.00  0.00     0.070 C 
HETATM   17  C3  UNL     1      21.587   2.984  50.629  1.00  0.00     0.151 C 
HETATM   18  C4  UNL     1      21.222   3.838  51.657  1.00  0.00     0.037 C 
HETATM   19  O1  UNL     1      19.426   0.025  51.339  1.00  0.00    -0.267 OA
BRANCH  17  20
HETATM   20  C2  UNL     1      22.504   3.940  49.916  1.00  0.00     0.058 A 
HETATM   21  C1  UNL     1      23.166   2.964  49.238  1.00  0.00     0.099 A 
HETATM   22 BR1  UNL     1      23.827   4.865  48.851  1.00  0.00    -0.152 Br
ENDBRANCH  17  20
ENDBRANCH  12  14
ENDBRANCH   5   8
ENDBRANCH   1   4
TORSDOF 4
ENDMDL
MODEL 3
REMARK VINA RESULT:      -6.9      2.848      4.077
REMARK  4 active torsions:
REMARK  status: ('A' for Active; 'I' for Inactive)
REMARK    1  A    between atoms: C2_2  and  C3_4 
REMARK       I    between atoms: N1_7  and  C6_8 
REMARK    2  A    between atoms: C6_8  and  C7_10 
REMARK    3  A    between atoms: C11_14  and  N2_15 
REMARK       I    between atoms: N2_15  and  C12_16 
REMARK    4  A    between atoms: C12_16  and  C13_18 
ROOT
HETATM    1  C13 UNL     1      28.060  -0.100  53.245  1.00  0.00    -0.006 C 
HETATM    2  C14 UNL     1      29.115  -0.513  53.550  1.00  0.00    -0.101 C 
HETATM    3  C15 UNL     1      30.416  -0.997  53.939  1.00  0.00     0.112 C 
ENDROOT
BRANCH   1   4
HETATM    4  C12 UNL     1      26.801   0.389  52.854  1.00  0.00     0.300 C 
HETATM    5  N2  UNL     1      26.907   1.657  52.126  1.00  0.00    -0.316 N 
HETATM    6  H9  UNL     1      27.787   2.242  51.966  1.00  0.00     0.170 HD
HETATM    7  O2  UNL     1      25.578   0.309  52.795  1.00  0.00    -0.258 OA
BRANCH   5   8
HETATM    8  C11 UNL     1      25.724   2.251  51.546  1.00  0.00     0.036 A 
HETATM    9  C10 UNL     1      26.482   2.838  50.461  1.00  0.00     0.029 A 
HETATM   10  C9  UNL     1      25.997   3.618  49.386  1.00  0.00     0.003 A 
HETATM   11  C8  UNL     1      24.611   3.770  49.496  1.00  0.00     0.017 A 
HETATM   12  C7  UNL     1      23.774   3.253  50.499  1.00  0.00     0.034 A 
HETATM   13  C16 UNL     1      24.403   2.514  51.474  1.00  0.00     0.046 A 
BRANCH  12  14
HETATM   14  C6  UNL     1      22.299   3.436  50.612  1.00  0.00     0.258 C 
HETATM   15  N1  UNL     1      21.817   2.067  50.638  1.00  0.00    -0.321 N 
HETATM   16  C5  UNL     1      21.539   1.420  49.518  1.00  0.00     0.070 C 
HETATM   17  C3  UNL     1      21.357   1.116  51.812  1.00  0.00     0.151 C 
HETATM   18  C4  UNL     1      21.266   0.443  50.605  1.00  0.00     0.037 C 
HETATM   19  O1  UNL     1      21.835   4.631  50.650  1.00  0.00    -0.267 OA
BRANCH  17  20
HETATM   20  C2  UNL     1      21.074  -0.065  52.700  1.00  0.00     0.058 A 
HETATM   21  C1  UNL     1      21.576   0.524  53.819  1.00  0.00     0.099 A 
HETATM   22 BR1  UNL     1      20.863  -1.376  54.106  1.00  0.00    -0.152 Br
ENDBRANCH  17  20
ENDBRANCH  12  14
ENDBRANCH   5   8
ENDBRANCH   1   4
TORSDOF 4
ENDMDL
MODEL 4
REMARK VINA RESULT:      -6.8      3.490      7.887
REMARK  4 active torsions:
REMARK  status: ('A' for Active; 'I' for Inactive)
REMARK    1  A    between atoms: C2_2  and  C3_4 
REMARK       I    between atoms: N1_7  and  C6_8 
REMARK    2  A    between atoms: C6_8  and  C7_10 
REMARK    3  A    between atoms: C11_14  and  N2_15 
REMARK       I    between atoms: N2_15  and  C12_16 
REMARK    4  A    between atoms: C12_16  and  C13_18 
ROOT
HETATM    1  C13 UNL     1      17.163  -0.906  52.093  1.00  0.00    -0.006 C 
HETATM    2  C14 UNL     1      16.117  -1.382  52.329  1.00  0.00    -0.101 C 
HETATM    3  C15 UNL     1      14.835  -1.985  52.597  1.00  0.00     0.112 C 
ENDROOT
BRANCH   1   4
HETATM    4  C12 UNL     1      18.405  -0.312  51.812  1.00  0.00     0.300 C 
HETATM    5  N2  UNL     1      19.356  -0.480  52.914  1.00  0.00    -0.316 N 
HETATM    6  H9  UNL     1      19.165  -0.900  53.878  1.00  0.00     0.170 HD
HETATM    7  O2  UNL     1      19.166   0.315  51.080  1.00  0.00    -0.258 OA
BRANCH   5   8
HETATM    8  C11 UNL     1      20.722  -0.034  52.756  1.00  0.00     0.036 A 
HETATM    9  C10 UNL     1      21.172  -0.832  53.877  1.00  0.00     0.029 A 
HETATM   10  C9  UNL     1      22.486  -0.955  54.383  1.00  0.00     0.003 A 
HETATM   11  C8  UNL     1      23.362  -0.164  53.631  1.00  0.00     0.017 A 
HETATM   12  C7  UNL     1      23.043   0.650  52.531  1.00  0.00     0.034 A 
HETATM   13  C16 UNL     1      21.717   0.658  52.164  1.00  0.00     0.046 A 
BRANCH  12  14
HETATM   14  C6  UNL     1      23.984   1.500  51.749  1.00  0.00     0.258 C 
HETATM   15  N1  UNL     1      25.120   1.614  52.646  1.00  0.00    -0.321 N 
HETATM   16  C5  UNL     1      25.179   2.576  53.553  1.00  0.00     0.070 C 
HETATM   17  C3  UNL     1      26.514   0.874  52.708  1.00  0.00     0.151 C 
HETATM   18  C4  UNL     1      26.423   1.785  53.747  1.00  0.00     0.037 C 
HETATM   19  O1  UNL     1      23.619   1.904  50.588  1.00  0.00    -0.267 OA
BRANCH  17  20
HETATM   20  C2  UNL     1      27.794   0.219  53.150  1.00  0.00     0.058 A 
HETATM   21  C1  UNL     1      27.390  -1.036  52.812  1.00  0.00     0.099 A 
HETATM   22 BR1  UNL     1      29.274  -0.935  53.615  1.00  0.00    -0.152 Br
ENDBRANCH  17  20
ENDBRANCH  12  14
ENDBRANCH   5   8
ENDBRANCH   1   4
TORSDOF 4
ENDMDL
MODEL 5
REMARK VINA RESULT:      -6.6      5.667      7.099
REMARK  4 active torsions:
REMARK  status: ('A' for Active; 'I' for Inactive)
REMARK    1  A    between atoms: C2_2  and  C3_4 
REMARK       I    between atoms: N1_7  and  C6_8 
REMARK    2  A    between atoms: C6_8  and  C7_10 
REMARK    3  A    between atoms: C11_14  and  N2_15 
REMARK       I    between atoms: N2_15  and  C12_16 
REMARK    4  A    between atoms: C12_16  and  C13_18 
ROOT
HETATM    1  C13 UNL     1      28.639   5.451  48.336  1.00  0.00    -0.006 C 
HETATM    2  C14 UNL     1      29.546   6.029  47.866  1.00  0.00    -0.101 C 
HETATM    3  C15 UNL     1      30.671   6.714  47.281  1.00  0.00     0.112 C 
ENDROOT
BRANCH   1   4
HETATM    4  C12 UNL     1      27.556   4.772  48.921  1.00  0.00     0.300 C 
HETATM    5  N2  UNL     1      26.530   5.696  49.412  1.00  0.00    -0.316 N 
HETATM    6  H9  UNL     1      26.580   6.763  49.446  1.00  0.00     0.170 HD
HETATM    7  O2  UNL     1      26.977   3.744  49.260  1.00  0.00    -0.258 OA
BRANCH   5   8
HETATM    8  C11 UNL     1      25.290   5.174  49.941  1.00  0.00     0.036 A 
HETATM    9  C10 UNL     1      24.592   5.416  48.695  1.00  0.00     0.029 A 
HETATM   10  C9  UNL     1      23.241   5.136  48.389  1.00  0.00     0.003 A 
HETATM   11  C8  UNL     1      22.610   4.562  49.499  1.00  0.00     0.017 A 
HETATM   12  C7  UNL     1      23.180   4.284  50.753  1.00  0.00     0.034 A 
HETATM   13  C16 UNL     1      24.508   4.616  50.888  1.00  0.00     0.046 A 
BRANCH  12  14
HETATM   14  C6  UNL     1      22.492   3.686  51.932  1.00  0.00     0.258 C 
HETATM   15  N1  UNL     1      23.120   2.380  52.029  1.00  0.00    -0.321 N 
HETATM   16  C5  UNL     1      22.641   1.342  51.362  1.00  0.00     0.070 C 
HETATM   17  C3  UNL     1      24.269   1.810  52.949  1.00  0.00     0.151 C 
HETATM   18  C4  UNL     1      23.831   0.820  52.085  1.00  0.00     0.037 C 
HETATM   19  O1  UNL     1      21.593   4.378  52.529  1.00  0.00    -0.267 OA
BRANCH  17  20
HETATM   20  C2  UNL     1      25.445   1.056  53.508  1.00  0.00     0.058 A 
HETATM   21  C1  UNL     1      26.123   2.177  53.874  1.00  0.00     0.099 A 
HETATM   22 BR1  UNL     1      27.093   0.421  54.297  1.00  0.00    -0.152 Br
ENDBRANCH  17  20
ENDBRANCH  12  14
ENDBRANCH   5   8
ENDBRANCH   1   4
TORSDOF 4
ENDMDL
MODEL 6
REMARK VINA RESULT:      -6.6      5.067      5.904
REMARK  4 active torsions:
REMARK  status: ('A' for Active; 'I' for Inactive)
REMARK    1  A    between atoms: C2_2  and  C3_4 
REMARK       I    between atoms: N1_7  and  C6_8 
REMARK    2  A    between atoms: C6_8  and  C7_10 
REMARK    3  A    between atoms: C11_14  and  N2_15 
REMARK       I    between atoms: N2_15  and  C12_16 
REMARK    4  A    between atoms: C12_16  and  C13_18 
ROOT
HETATM    1  C13 UNL     1      28.547   6.300  48.077  1.00  0.00    -0.006 C 
HETATM    2  C14 UNL     1      29.609   6.559  47.652  1.00  0.00    -0.101 C 
HETATM    3  C15 UNL     1      30.915   6.852  47.115  1.00  0.00     0.112 C 
ENDROOT
BRANCH   1   4
HETATM    4  C12 UNL     1      27.283   5.997  48.612  1.00  0.00     0.300 C 
HETATM    5  N2  UNL     1      27.175   4.588  48.999  1.00  0.00    -0.316 N 
HETATM    6  H9  UNL     1      27.889   3.812  48.831  1.00  0.00     0.170 HD
HETATM    7  O2  UNL     1      26.145   6.311  48.950  1.00  0.00    -0.258 OA
BRANCH   5   8
HETATM    8  C11 UNL     1      25.985   4.120  49.674  1.00  0.00     0.036 A 
HETATM    9  C10 UNL     1      26.731   3.129  50.422  1.00  0.00     0.029 A 
HETATM   10  C9  UNL     1      26.239   2.214  51.380  1.00  0.00     0.003 A 
HETATM   11  C8  UNL     1      24.858   2.383  51.536  1.00  0.00     0.017 A 
HETATM   12  C7  UNL     1      24.033   3.303  50.868  1.00  0.00     0.034 A 
HETATM   13  C16 UNL     1      24.668   4.124  49.966  1.00  0.00     0.046 A 
BRANCH  12  14
HETATM   14  C6  UNL     1      22.560   3.462  51.033  1.00  0.00     0.258 C 
HETATM   15  N1  UNL     1      22.090   2.089  50.966  1.00  0.00    -0.321 N 
HETATM   16  C5  UNL     1      21.789   1.528  49.806  1.00  0.00     0.070 C 
HETATM   17  C3  UNL     1      21.670   1.046  52.074  1.00  0.00     0.151 C 
HETATM   18  C4  UNL     1      21.553   0.468  50.821  1.00  0.00     0.037 C 
HETATM   19  O1  UNL     1      22.087   4.645  51.175  1.00  0.00    -0.267 OA
BRANCH  17  20
HETATM   20  C2  UNL     1      21.420  -0.202  52.875  1.00  0.00     0.058 A 
HETATM   21  C1  UNL     1      21.297   0.458  54.059  1.00  0.00     0.099 A 
HETATM   22 BR1  UNL     1      21.082  -1.577  54.193  1.00  0.00    -0.152 Br
ENDBRANCH  17  20
ENDBRANCH  12  14
ENDBRANCH   5   8
ENDBRANCH   1   4
TORSDOF 4
ENDMDL
MODEL 7
REMARK VINA RESULT:      -6.5      3.860      5.038
REMARK  4 active torsions:
REMARK  status: ('A' for Active; 'I' for Inactive)
REMARK    1  A    between atoms: C2_2  and  C3_4 
REMARK       I    between atoms: N1_7  and  C6_8 
REMARK    2  A    between atoms: C6_8  and  C7_10 
REMARK    3  A    between atoms: C11_14  and  N2_15 
REMARK       I    between atoms: N2_15  and  C12_16 
REMARK    4  A    between atoms: C12_16  and  C13_18 
ROOT
HETATM    1  C13 UNL     1      27.154   4.589  48.958  1.00  0.00    -0.006 C 
HETATM    2  C14 UNL     1      28.010   5.294  48.577  1.00  0.00    -0.101 C 
HETATM    3  C15 UNL     1      29.069   6.142  48.089  1.00  0.00     0.112 C 
ENDROOT
BRANCH   1   4
HETATM    4  C12 UNL     1      26.136   3.747  49.440  1.00  0.00     0.300 C 
HETATM    5  N2  UNL     1      26.542   3.038  50.657  1.00  0.00    -0.316 N 
HETATM    6  H9  UNL     1      27.506   3.037  51.117  1.00  0.00     0.170 HD
HETATM    7  O2  UNL     1      25.011   3.260  49.376  1.00  0.00    -0.258 OA
BRANCH   5   8
HETATM    8  C11 UNL     1      25.582   2.216  51.360  1.00  0.00     0.036 A 
HETATM    9  C10 UNL     1      26.435   2.119  52.526  1.00  0.00     0.029 A 
HETATM   10  C9  UNL     1      26.173   1.442  53.739  1.00  0.00     0.003 A 
HETATM   11  C8  UNL     1      24.914   0.834  53.683  1.00  0.00     0.017 A 
HETATM   12  C7  UNL     1      24.005   0.856  52.612  1.00  0.00     0.034 A 
HETATM   13  C16 UNL     1      24.412   1.561  51.503  1.00  0.00     0.046 A 
BRANCH  12  14
HETATM   14  C6  UNL     1      22.673   0.191  52.560  1.00  0.00     0.258 C 
HETATM   15  N1  UNL     1      21.816   1.250  52.055  1.00  0.00    -0.321 N 
HETATM   16  C5  UNL     1      21.233   2.106  52.879  1.00  0.00     0.070 C 
HETATM   17  C3  UNL     1      21.237   1.567  50.621  1.00  0.00     0.151 C 
HETATM   18  C4  UNL     1      20.813   2.533  51.518  1.00  0.00     0.037 C 
HETATM   19  O1  UNL     1      22.587  -1.032  52.936  1.00  0.00    -0.267 OA
BRANCH  17  20
HETATM   20  C2  UNL     1      20.724   2.238  49.376  1.00  0.00     0.058 A 
HETATM   21  C1  UNL     1      21.489   1.490  48.533  1.00  0.00     0.099 A 
HETATM   22 BR1  UNL     1      20.298   2.874  47.600  1.00  0.00    -0.152 Br
ENDBRANCH  17  20
ENDBRANCH  12  14
ENDBRANCH   5   8
ENDBRANCH   1   4
TORSDOF 4
ENDMDL
MODEL 8
REMARK VINA RESULT:      -6.4      6.842      8.908
REMARK  4 active torsions:
REMARK  status: ('A' for Active; 'I' for Inactive)
REMARK    1  A    between atoms: C2_2  and  C3_4 
REMARK       I    between atoms: N1_7  and  C6_8 
REMARK    2  A    between atoms: C6_8  and  C7_10 
REMARK    3  A    between atoms: C11_14  and  N2_15 
REMARK       I    between atoms: N2_15  and  C12_16 
REMARK    4  A    between atoms: C12_16  and  C13_18 
ROOT
HETATM    1  C13 UNL     1      22.591   0.693  53.327  1.00  0.00    -0.006 C 
HETATM    2  C14 UNL     1      22.230  -0.307  53.821  1.00  0.00    -0.101 C 
HETATM    3  C15 UNL     1      21.772  -1.544  54.405  1.00  0.00     0.112 C 
ENDROOT
BRANCH   1   4
HETATM    4  C12 UNL     1      23.016   1.905  52.756  1.00  0.00     0.300 C 
HETATM    5  N2  UNL     1      23.793   1.692  51.531  1.00  0.00    -0.316 N 
HETATM    6  H9  UNL     1      24.119   0.760  51.123  1.00  0.00     0.170 HD
HETATM    7  O2  UNL     1      23.083   3.131  52.739  1.00  0.00    -0.258 OA
BRANCH   5   8
HETATM    8  C11 UNL     1      24.214   2.829  50.744  1.00  0.00     0.036 A 
HETATM    9  C10 UNL     1      25.595   2.392  50.747  1.00  0.00     0.029 A 
HETATM   10  C9  UNL     1      26.703   3.013  50.127  1.00  0.00     0.003 A 
HETATM   11  C8  UNL     1      26.290   4.176  49.468  1.00  0.00     0.017 A 
HETATM   12  C7  UNL     1      24.988   4.698  49.398  1.00  0.00     0.034 A 
HETATM   13  C16 UNL     1      24.021   3.972  50.054  1.00  0.00     0.046 A 
BRANCH  12  14
HETATM   14  C6  UNL     1      24.565   5.947  48.703  1.00  0.00     0.258 C 
HETATM   15  N1  UNL     1      25.466   6.937  49.268  1.00  0.00    -0.321 N 
HETATM   16  C5  UNL     1      25.158   7.582  50.381  1.00  0.00     0.070 C 
HETATM   17  C3  UNL     1      26.796   7.600  48.736  1.00  0.00     0.151 C 
HETATM   18  C4  UNL     1      26.498   8.098  49.993  1.00  0.00     0.037 C 
HETATM   19  O1  UNL     1      23.601   5.879  47.860  1.00  0.00    -0.267 OA
BRANCH  17  20
HETATM   20  C2  UNL     1      28.155   8.231  48.608  1.00  0.00     0.058 A 
HETATM   21  C1  UNL     1      28.486   7.538  47.485  1.00  0.00     0.099 A 
HETATM   22 BR1  UNL     1      29.938   8.824  48.149  1.00  0.00    -0.152 Br
ENDBRANCH  17  20
ENDBRANCH  12  14
ENDBRANCH   5   8
ENDBRANCH   1   4
TORSDOF 4
ENDMDL
MODEL 9
REMARK VINA RESULT:      -6.4      5.205      7.420
REMARK  4 active torsions:
REMARK  status: ('A' for Active; 'I' for Inactive)
REMARK    1  A    between atoms: C2_2  and  C3_4 
REMARK       I    between atoms: N1_7  and  C6_8 
REMARK    2  A    between atoms: C6_8  and  C7_10 
REMARK    3  A    between atoms: C11_14  and  N2_15 
REMARK       I    between atoms: N2_15  and  C12_16 
REMARK    4  A    between atoms: C12_16  and  C13_18 
ROOT
HETATM    1  C13 UNL     1      27.100   5.522  48.701  1.00  0.00    -0.006 C 
HETATM    2  C14 UNL     1      27.441   6.430  48.040  1.00  0.00    -0.101 C 
HETATM    3  C15 UNL     1      27.882   7.530  47.219  1.00  0.00     0.112 C 
ENDROOT
BRANCH   1   4
HETATM    4  C12 UNL     1      26.690   4.451  49.513  1.00  0.00     0.300 C 
HETATM    5  N2  UNL     1      25.257   4.508  49.814  1.00  0.00    -0.316 N 
HETATM    6  H9  UNL     1      24.572   5.290  49.565  1.00  0.00     0.170 HD
HETATM    7  O2  UNL     1      26.913   3.423  50.146  1.00  0.00    -0.258 OA
BRANCH   5   8
HETATM    8  C11 UNL     1      24.634   3.425  50.542  1.00  0.00     0.036 A 
HETATM    9  C10 UNL     1      23.680   3.185  49.479  1.00  0.00     0.029 A 
HETATM   10  C9  UNL     1      22.665   2.202  49.429  1.00  0.00     0.003 A 
HETATM   11  C8  UNL     1      22.687   1.436  50.601  1.00  0.00     0.017 A 
HETATM   12  C7  UNL     1      23.558   1.577  51.694  1.00  0.00     0.034 A 
HETATM   13  C16 UNL     1      24.489   2.583  51.585  1.00  0.00     0.046 A 
BRANCH  12  14
HETATM   14  C6  UNL     1      23.559   0.764  52.943  1.00  0.00     0.258 C 
HETATM   15  N1  UNL     1      24.903   0.213  52.954  1.00  0.00    -0.321 N 
HETATM   16  C5  UNL     1      25.178  -0.927  52.342  1.00  0.00     0.070 C 
HETATM   17  C3  UNL     1      26.220   0.619  53.726  1.00  0.00     0.151 C 
HETATM   18  C4  UNL     1      26.474  -0.474  52.914  1.00  0.00     0.037 C 
HETATM   19  O1  UNL     1      22.489   0.729  53.648  1.00  0.00    -0.267 OA
BRANCH  17  20
HETATM   20  C2  UNL     1      27.644   0.877  54.134  1.00  0.00     0.058 A 
HETATM   21  C1  UNL     1      27.646   2.166  53.695  1.00  0.00     0.099 A 
HETATM   22 BR1  UNL     1      29.418   1.546  54.518  1.00  0.00    -0.152 Br
ENDBRANCH  17  20
ENDBRANCH  12  14
ENDBRANCH   5   8
ENDBRANCH   1   4
TORSDOF 4
ENDMDL
