MODEL 1
REMARK VINA RESULT:      -8.5      0.000      0.000
REMARK  1 active torsions:
REMARK  status: ('A' for Active; 'I' for Inactive)
REMARK    1  A    between atoms: C5_5  and  O1_6 
ROOT
HETATM    1  C1  UNL     1      21.473  -1.543  54.301  1.00  0.00     0.048 C 
HETATM    2  C2  UNL     1      22.303  -0.415  53.736  1.00  0.00    -0.064 C 
HETATM    3  C3  UNL     1      21.447   0.568  53.405  1.00  0.00    -0.011 C 
HETATM    4  C4  UNL     1      20.948   1.842  52.921  1.00  0.00     0.059 C 
HETATM    5  C5  UNL     1      21.324   3.007  52.435  1.00  0.00     0.120 C 
HETATM    6  C6  UNL     1      22.121   4.145  51.939  1.00  0.00     0.212 C 
HETATM    7  O2  UNL     1      23.493   3.893  51.966  1.00  0.00    -0.360 OA
HETATM    8  C7  UNL     1      23.811   2.963  50.923  1.00  0.00     0.254 C 
HETATM    9  C8  UNL     1      24.005   3.965  49.784  1.00  0.00     0.027 C 
HETATM   10  C9  UNL     1      25.074   4.419  49.214  1.00  0.00     0.002 C 
HETATM   11  C10 UNL     1      26.307   3.862  49.730  1.00  0.00     0.017 C 
HETATM   12  C11 UNL     1      26.242   2.944  50.667  1.00  0.00     0.097 C 
HETATM   13  N1  UNL     1      25.057   2.362  51.270  1.00  0.00    -0.292 N 
HETATM   14  C12 UNL     1      24.708   1.245  52.083  1.00  0.00     0.270 C 
HETATM   15  O3  UNL     1      25.897   1.011  51.997  1.00  0.00    -0.266 OA
HETATM   16  C13 UNL     1      24.887  -0.004  52.879  1.00  0.00     0.113 C 
HETATM   17  C14 UNL     1      26.005  -0.911  53.233  1.00  0.00     0.105 C 
HETATM   18  N2  UNL     1      26.917  -1.624  53.515  1.00  0.00    -0.191 NA
HETATM   19  C15 UNL     1      23.701  -0.352  53.373  1.00  0.00     0.034 C 
ENDROOT
BRANCH   5  20
HETATM   20  O1  UNL     1      19.934   3.204  52.428  1.00  0.00    -0.384 OA
HETATM   21  H6  UNL     1      19.485   3.789  51.753  1.00  0.00     0.210 HD
ENDBRANCH   5  20
TORSDOF 1
ENDMDL
MODEL 2
REMARK VINA RESULT:      -8.2      2.485      4.394
REMARK  1 active torsions:
REMARK  status: ('A' for Active; 'I' for Inactive)
REMARK    1  A    between atoms: C5_5  and  O1_6 
ROOT
HETATM    1  C1  UNL     1      18.915  -0.624  53.075  1.00  0.00     0.048 C 
HETATM    2  C2  UNL     1      20.377  -0.373  52.797  1.00  0.00    -0.064 C 
HETATM    3  C3  UNL     1      21.057  -0.813  53.870  1.00  0.00    -0.011 C 
HETATM    4  C4  UNL     1      22.166  -1.137  54.749  1.00  0.00     0.059 C 
HETATM    5  C5  UNL     1      23.480  -1.119  54.842  1.00  0.00     0.120 C 
HETATM    6  C6  UNL     1      24.918  -0.941  54.564  1.00  0.00     0.212 C 
HETATM    7  O2  UNL     1      25.158  -0.395  53.302  1.00  0.00    -0.360 OA
HETATM    8  C7  UNL     1      24.790   0.989  53.321  1.00  0.00     0.254 C 
HETATM    9  C8  UNL     1      26.112   1.563  53.835  1.00  0.00     0.027 C 
HETATM   10  C9  UNL     1      27.065   2.195  53.229  1.00  0.00     0.002 C 
HETATM   11  C10 UNL     1      26.829   2.420  51.818  1.00  0.00     0.017 C 
HETATM   12  C11 UNL     1      25.692   2.021  51.296  1.00  0.00     0.097 C 
HETATM   13  N1  UNL     1      24.575   1.380  51.966  1.00  0.00    -0.292 N 
HETATM   14  C12 UNL     1      23.206   1.077  51.713  1.00  0.00     0.270 C 
HETATM   15  O3  UNL     1      23.437   1.647  50.666  1.00  0.00    -0.266 OA
HETATM   16  C13 UNL     1      21.908   1.022  50.981  1.00  0.00     0.113 C 
HETATM   17  C14 UNL     1      21.376   1.498  49.681  1.00  0.00     0.105 C 
HETATM   18  N2  UNL     1      20.970   1.880  48.629  1.00  0.00    -0.191 NA
HETATM   19  C15 UNL     1      21.032   0.368  51.741  1.00  0.00     0.034 C 
ENDROOT
BRANCH   5  20
HETATM   20  O1  UNL     1      23.178  -1.663  56.100  1.00  0.00    -0.384 OA
HETATM   21  H6  UNL     1      23.439  -2.595  56.350  1.00  0.00     0.210 HD
ENDBRANCH   5  20
TORSDOF 1
ENDMDL
MODEL 3
REMARK VINA RESULT:      -8.1      1.962      4.340
REMARK  1 active torsions:
REMARK  status: ('A' for Active; 'I' for Inactive)
REMARK    1  A    between atoms: C5_5  and  O1_6 
ROOT
HETATM    1  C1  UNL     1      27.494  -0.497  53.727  1.00  0.00     0.048 C 
HETATM    2  C2  UNL     1      26.266   0.147  53.129  1.00  0.00    -0.064 C 
HETATM    3  C3  UNL     1      26.700   1.112  52.299  1.00  0.00    -0.011 C 
HETATM    4  C4  UNL     1      26.683   2.200  51.338  1.00  0.00     0.059 C 
HETATM    5  C5  UNL     1      25.885   2.948  50.603  1.00  0.00     0.120 C 
HETATM    6  C6  UNL     1      24.702   3.548  49.959  1.00  0.00     0.212 C 
HETATM    7  O2  UNL     1      23.507   2.956  50.370  1.00  0.00    -0.360 OA
HETATM    8  C7  UNL     1      23.227   3.367  51.714  1.00  0.00     0.254 C 
HETATM    9  C8  UNL     1      22.488   4.668  51.398  1.00  0.00     0.027 C 
HETATM   10  C9  UNL     1      21.229   4.967  51.427  1.00  0.00     0.002 C 
HETATM   11  C10 UNL     1      20.368   3.885  51.855  1.00  0.00     0.017 C 
HETATM   12  C11 UNL     1      20.916   2.745  52.210  1.00  0.00     0.097 C 
HETATM   13  N1  UNL     1      22.326   2.406  52.261  1.00  0.00    -0.292 N 
HETATM   14  C12 UNL     1      23.164   1.390  52.806  1.00  0.00     0.270 C 
HETATM   15  O3  UNL     1      22.107   0.964  53.226  1.00  0.00    -0.266 OA
HETATM   16  C13 UNL     1      23.545   0.156  53.552  1.00  0.00     0.113 C 
HETATM   17  C14 UNL     1      22.852  -0.888  54.344  1.00  0.00     0.105 C 
HETATM   18  N2  UNL     1      22.277  -1.723  54.970  1.00  0.00    -0.191 NA
HETATM   19  C15 UNL     1      24.864   0.003  53.450  1.00  0.00     0.034 C 
ENDROOT
BRANCH   5  20
HETATM   20  O1  UNL     1      27.116   3.507  50.229  1.00  0.00    -0.384 OA
HETATM   21  H6  UNL     1      27.247   3.958  49.346  1.00  0.00     0.210 HD
ENDBRANCH   5  20
TORSDOF 1
ENDMDL
MODEL 4
REMARK VINA RESULT:      -8.1      2.344      4.193
REMARK  1 active torsions:
REMARK  status: ('A' for Active; 'I' for Inactive)
REMARK    1  A    between atoms: C5_5  and  O1_6 
ROOT
HETATM    1  C1  UNL     1      20.252   0.609  50.186  1.00  0.00     0.048 C 
HETATM    2  C2  UNL     1      21.484   0.795  51.039  1.00  0.00    -0.064 C 
HETATM    3  C3  UNL     1      22.295   1.635  50.371  1.00  0.00    -0.011 C 
HETATM    4  C4  UNL     1      23.441   2.466  50.054  1.00  0.00     0.059 C 
HETATM    5  C5  UNL     1      24.597   2.893  50.519  1.00  0.00     0.120 C 
HETATM    6  C6  UNL     1      25.780   3.139  51.365  1.00  0.00     0.212 C 
HETATM    7  O2  UNL     1      25.720   2.463  52.584  1.00  0.00    -0.360 OA
HETATM    8  C7  UNL     1      25.935   1.067  52.349  1.00  0.00     0.254 C 
HETATM    9  C8  UNL     1      27.464   1.065  52.410  1.00  0.00     0.027 C 
HETATM   10  C9  UNL     1      28.284   0.669  53.329  1.00  0.00     0.002 C 
HETATM   11  C10 UNL     1      27.643   0.107  54.499  1.00  0.00     0.017 C 
HETATM   12  C11 UNL     1      26.334   0.005  54.514  1.00  0.00     0.097 C 
HETATM   13  N1  UNL     1      25.395   0.369  53.470  1.00  0.00    -0.292 N 
HETATM   14  C12 UNL     1      24.025   0.156  53.139  1.00  0.00     0.270 C 
HETATM   15  O3  UNL     1      24.045  -0.503  54.159  1.00  0.00    -0.266 OA
HETATM   16  C13 UNL     1      22.630  -0.358  53.262  1.00  0.00     0.113 C 
HETATM   17  C14 UNL     1      21.874  -1.226  54.197  1.00  0.00     0.105 C 
HETATM   18  N2  UNL     1      21.281  -1.919  54.963  1.00  0.00    -0.191 NA
HETATM   19  C15 UNL     1      21.924   0.114  52.236  1.00  0.00     0.034 C 
ENDROOT
BRANCH   5  20
HETATM   20  O1  UNL     1      24.606   3.546  49.277  1.00  0.00    -0.384 OA
HETATM   21  H6  UNL     1      25.140   4.376  49.119  1.00  0.00     0.210 HD
ENDBRANCH   5  20
TORSDOF 1
ENDMDL
MODEL 5
REMARK VINA RESULT:      -8.0      2.286      4.947
REMARK  1 active torsions:
REMARK  status: ('A' for Active; 'I' for Inactive)
REMARK    1  A    between atoms: C5_5  and  O1_6 
ROOT
HETATM    1  C1  UNL     1      21.866   3.541  50.571  1.00  0.00     0.048 C 
HETATM    2  C2  UNL     1      23.089   2.778  51.024  1.00  0.00    -0.064 C 
HETATM    3  C3  UNL     1      22.672   1.886  51.940  1.00  0.00    -0.011 C 
HETATM    4  C4  UNL     1      22.701   0.815  52.918  1.00  0.00     0.059 C 
HETATM    5  C5  UNL     1      23.494  -0.059  53.504  1.00  0.00     0.120 C 
HETATM    6  C6  UNL     1      24.664  -0.859  53.913  1.00  0.00     0.212 C 
HETATM    7  O2  UNL     1      25.832  -0.485  53.247  1.00  0.00    -0.360 OA
HETATM    8  C7  UNL     1      26.270   0.779  53.760  1.00  0.00     0.254 C 
HETATM    9  C8  UNL     1      27.095   0.265  54.941  1.00  0.00     0.027 C 
HETATM   10  C9  UNL     1      28.373   0.158  55.112  1.00  0.00     0.002 C 
HETATM   11  C10 UNL     1      29.166   0.630  53.996  1.00  0.00     0.017 C 
HETATM   12  C11 UNL     1      28.550   1.150  52.959  1.00  0.00     0.097 C 
HETATM   13  N1  UNL     1      27.125   1.352  52.772  1.00  0.00    -0.292 N 
HETATM   14  C12 UNL     1      26.250   2.071  51.906  1.00  0.00     0.270 C 
HETATM   15  O3  UNL     1      27.297   2.447  51.419  1.00  0.00    -0.266 OA
HETATM   16  C13 UNL     1      25.826   2.975  50.798  1.00  0.00     0.113 C 
HETATM   17  C14 UNL     1      26.489   3.817  49.774  1.00  0.00     0.105 C 
HETATM   18  N2  UNL     1      27.039   4.481  48.952  1.00  0.00    -0.191 NA
HETATM   19  C15 UNL     1      24.495   2.998  50.770  1.00  0.00     0.034 C 
ENDROOT
BRANCH   5  20
HETATM   20  O1  UNL     1      22.291  -0.391  54.145  1.00  0.00    -0.384 OA
HETATM   21  H6  UNL     1      21.857  -1.284  54.028  1.00  0.00     0.210 HD
ENDBRANCH   5  20
TORSDOF 1
ENDMDL
MODEL 6
REMARK VINA RESULT:      -8.0      1.938      4.818
REMARK  1 active torsions:
REMARK  status: ('A' for Active; 'I' for Inactive)
REMARK    1  A    between atoms: C5_5  and  O1_6 
ROOT
HETATM    1  C1  UNL     1      26.792   3.929  49.696  1.00  0.00     0.048 C 
HETATM    2  C2  UNL     1      25.950   2.880  50.381  1.00  0.00    -0.064 C 
HETATM    3  C3  UNL     1      24.683   3.073  49.975  1.00  0.00    -0.011 C 
HETATM    4  C4  UNL     1      23.250   2.893  49.829  1.00  0.00     0.059 C 
HETATM    5  C5  UNL     1      22.240   2.130  50.191  1.00  0.00     0.120 C 
HETATM    6  C6  UNL     1      21.409   1.074  50.800  1.00  0.00     0.212 C 
HETATM    7  O2  UNL     1      22.150   0.194  51.589  1.00  0.00    -0.360 OA
HETATM    8  C7  UNL     1      22.528   0.865  52.797  1.00  0.00     0.254 C 
HETATM    9  C8  UNL     1      21.274   0.565  53.620  1.00  0.00     0.027 C 
HETATM   10  C9  UNL     1      21.059  -0.276  54.579  1.00  0.00     0.002 C 
HETATM   11  C10 UNL     1      22.217  -1.057  54.958  1.00  0.00     0.017 C 
HETATM   12  C11 UNL     1      23.360  -0.827  54.353  1.00  0.00     0.097 C 
HETATM   13  N1  UNL     1      23.648   0.160  53.329  1.00  0.00    -0.292 N 
HETATM   14  C12 UNL     1      24.783   0.759  52.708  1.00  0.00     0.270 C 
HETATM   15  O3  UNL     1      25.387   0.044  53.483  1.00  0.00    -0.266 OA
HETATM   16  C13 UNL     1      26.218   1.048  52.420  1.00  0.00     0.113 C 
HETATM   17  C14 UNL     1      27.536   0.609  52.938  1.00  0.00     0.105 C 
HETATM   18  N2  UNL     1      28.586   0.238  53.360  1.00  0.00    -0.191 NA
HETATM   19  C15 UNL     1      26.269   1.942  51.435  1.00  0.00     0.034 C 
ENDROOT
BRANCH   5  20
HETATM   20  O1  UNL     1      21.545   3.047  49.387  1.00  0.00    -0.384 OA
HETATM   21  H6  UNL     1      21.997   3.835  48.971  1.00  0.00     0.210 HD
ENDBRANCH   5  20
TORSDOF 1
ENDMDL
MODEL 7
REMARK VINA RESULT:      -7.9      1.942      6.220
REMARK  1 active torsions:
REMARK  status: ('A' for Active; 'I' for Inactive)
REMARK    1  A    between atoms: C5_5  and  O1_6 
ROOT
HETATM    1  C1  UNL     1      26.772   3.618  49.675  1.00  0.00     0.048 C 
HETATM    2  C2  UNL     1      25.832   3.022  50.695  1.00  0.00    -0.064 C 
HETATM    3  C3  UNL     1      26.413   1.897  51.147  1.00  0.00    -0.011 C 
HETATM    4  C4  UNL     1      26.629   0.678  51.906  1.00  0.00     0.059 C 
HETATM    5  C5  UNL     1      26.112  -0.087  52.845  1.00  0.00     0.120 C 
HETATM    6  C6  UNL     1      25.239  -0.652  53.891  1.00  0.00     0.212 C 
HETATM    7  O2  UNL     1      24.099   0.122  54.116  1.00  0.00    -0.360 OA
HETATM    8  C7  UNL     1      23.206  -0.039  53.007  1.00  0.00     0.254 C 
HETATM    9  C8  UNL     1      22.469  -1.287  53.495  1.00  0.00     0.027 C 
HETATM   10  C9  UNL     1      21.290  -1.442  54.005  1.00  0.00     0.002 C 
HETATM   11  C10 UNL     1      20.521  -0.219  54.112  1.00  0.00     0.017 C 
HETATM   12  C11 UNL     1      21.044   0.897  53.660  1.00  0.00     0.097 C 
HETATM   13  N1  UNL     1      22.330   1.087  53.015  1.00  0.00    -0.292 N 
HETATM   14  C12 UNL     1      23.009   2.081  52.252  1.00  0.00     0.270 C 
HETATM   15  O3  UNL     1      21.961   2.679  52.392  1.00  0.00    -0.266 OA
HETATM   16  C13 UNL     1      23.232   3.370  51.536  1.00  0.00     0.113 C 
HETATM   17  C14 UNL     1      22.450   4.595  51.241  1.00  0.00     0.105 C 
HETATM   18  N2  UNL     1      21.810   5.575  51.021  1.00  0.00    -0.191 NA
HETATM   19  C15 UNL     1      24.472   3.364  51.051  1.00  0.00     0.034 C 
ENDROOT
BRANCH   5  20
HETATM   20  O1  UNL     1      27.274  -0.827  52.574  1.00  0.00    -0.384 OA
HETATM   21  H6  UNL     1      27.473  -1.184  51.662  1.00  0.00     0.210 HD
ENDBRANCH   5  20
TORSDOF 1
ENDMDL
MODEL 8
REMARK VINA RESULT:      -7.5      1.766      4.929
REMARK  1 active torsions:
REMARK  status: ('A' for Active; 'I' for Inactive)
REMARK    1  A    between atoms: C5_5  and  O1_6 
ROOT
HETATM    1  C1  UNL     1      23.127   7.064  50.151  1.00  0.00     0.048 C 
HETATM    2  C2  UNL     1      23.509   5.622  50.386  1.00  0.00    -0.064 C 
HETATM    3  C3  UNL     1      22.508   5.066  51.091  1.00  0.00    -0.011 C 
HETATM    4  C4  UNL     1      21.723   4.075  51.803  1.00  0.00     0.059 C 
HETATM    5  C5  UNL     1      21.691   2.806  52.155  1.00  0.00     0.120 C 
HETATM    6  C6  UNL     1      22.015   1.379  52.341  1.00  0.00     0.212 C 
HETATM    7  O2  UNL     1      23.223   1.018  51.743  1.00  0.00    -0.360 OA
HETATM    8  C7  UNL     1      24.300   1.565  52.513  1.00  0.00     0.254 C 
HETATM    9  C8  UNL     1      24.449   0.428  53.525  1.00  0.00     0.027 C 
HETATM   10  C9  UNL     1      25.328  -0.515  53.631  1.00  0.00     0.002 C 
HETATM   11  C10 UNL     1      26.371  -0.475  52.627  1.00  0.00     0.017 C 
HETATM   12  C11 UNL     1      26.366   0.504  51.751  1.00  0.00     0.097 C 
HETATM   13  N1  UNL     1      25.439   1.616  51.655  1.00  0.00    -0.292 N 
HETATM   14  C12 UNL     1      25.344   2.877  50.998  1.00  0.00     0.270 C 
HETATM   15  O3  UNL     1      26.439   2.563  50.577  1.00  0.00    -0.266 OA
HETATM   16  C13 UNL     1      25.739   4.025  50.133  1.00  0.00     0.113 C 
HETATM   17  C14 UNL     1      26.909   4.405  49.304  1.00  0.00     0.105 C 
HETATM   18  N2  UNL     1      27.853   4.689  48.636  1.00  0.00    -0.191 NA
HETATM   19  C15 UNL     1      24.748   4.915  50.148  1.00  0.00     0.034 C 
ENDROOT
BRANCH   5  20
HETATM   20  O1  UNL     1      20.486   3.225  52.740  1.00  0.00    -0.384 OA
HETATM   21  H6  UNL     1      19.762   2.580  52.981  1.00  0.00     0.210 HD
ENDBRANCH   5  20
TORSDOF 1
ENDMDL
MODEL 9
REMARK VINA RESULT:      -7.4      2.020      4.178
REMARK  1 active torsions:
REMARK  status: ('A' for Active; 'I' for Inactive)
REMARK    1  A    between atoms: C5_5  and  O1_6 
ROOT
HETATM    1  C1  UNL     1      21.630  -1.459  54.935  1.00  0.00     0.048 C 
HETATM    2  C2  UNL     1      22.395  -0.783  53.822  1.00  0.00    -0.064 C 
HETATM    3  C3  UNL     1      23.691  -0.793  54.181  1.00  0.00    -0.011 C 
HETATM    4  C4  UNL     1      25.126  -0.582  54.131  1.00  0.00     0.059 C 
HETATM    5  C5  UNL     1      26.099  -0.113  53.376  1.00  0.00     0.120 C 
HETATM    6  C6  UNL     1      26.873   0.486  52.273  1.00  0.00     0.212 C 
HETATM    7  O2  UNL     1      26.069   0.869  51.198  1.00  0.00    -0.360 OA
HETATM    8  C7  UNL     1      25.326   2.036  51.571  1.00  0.00     0.254 C 
HETATM    9  C8  UNL     1      26.364   3.092  51.187  1.00  0.00     0.027 C 
HETATM   10  C9  UNL     1      26.433   3.898  50.178  1.00  0.00     0.002 C 
HETATM   11  C10 UNL     1      25.319   3.801  49.259  1.00  0.00     0.017 C 
HETATM   12  C11 UNL     1      24.342   2.967  49.536  1.00  0.00     0.097 C 
HETATM   13  N1  UNL     1      24.201   2.108  50.697  1.00  0.00    -0.292 N 
HETATM   14  C12 UNL     1      23.193   1.330  51.337  1.00  0.00     0.270 C 
HETATM   15  O3  UNL     1      22.506   1.767  50.436  1.00  0.00    -0.266 OA
HETATM   16  C13 UNL     1      21.851   0.728  51.585  1.00  0.00     0.113 C 
HETATM   17  C14 UNL     1      20.507   0.783  50.960  1.00  0.00     0.105 C 
HETATM   18  N2  UNL     1      19.437   0.833  50.440  1.00  0.00    -0.191 NA
HETATM   19  C15 UNL     1      21.938  -0.048  52.663  1.00  0.00     0.034 C 
ENDROOT
BRANCH   5  20
HETATM   20  O1  UNL     1      26.856  -0.515  54.487  1.00  0.00    -0.384 OA
HETATM   21  H6  UNL     1      27.317  -1.402  54.521  1.00  0.00     0.210 HD
ENDBRANCH   5  20
TORSDOF 1
ENDMDL
