MODEL 1
REMARK VINA RESULT:      -8.2      0.000      0.000
REMARK  5 active torsions:
REMARK  status: ('A' for Active; 'I' for Inactive)
REMARK    1  A    between atoms: O1_2  and  C2_3 
REMARK    2  A    between atoms: C4_5  and  C5_6 
REMARK    3  A    between atoms: C7_8  and  C8_9 
REMARK    4  A    between atoms: N2_17  and  C14_18 
REMARK    5  A    between atoms: C15_20  and  O2_21 
ROOT
HETATM    1  C5  UNL     1      25.251   2.058  52.394  1.00  0.00     0.151 C 
HETATM    2  C6  UNL     1      24.747   2.679  51.087  1.00  0.00     0.094 C 
HETATM    3  C7  UNL     1      26.011   3.378  50.654  1.00  0.00     0.067 C 
HETATM    4  N1  UNL     1      27.035   2.783  51.220  1.00  0.00    -0.173 NA
HETATM    5  N2  UNL     1      26.576   1.726  52.012  1.00  0.00    -0.236 N 
ENDROOT
BRANCH   3   6
HETATM    6  C8  UNL     1      26.033   4.523  49.752  1.00  0.00    -0.010 A 
HETATM    7  C9  UNL     1      27.203   4.931  49.125  1.00  0.00     0.015 A 
HETATM    8  C10 UNL     1      27.254   6.007  48.270  1.00  0.00     0.024 A 
HETATM    9  C11 UNL     1      26.064   6.694  48.045  1.00  0.00     0.034 A 
HETATM   10 CL1  UNL     1      26.091   8.063  46.965  1.00  0.00    -0.084 Cl
HETATM   11  C12 UNL     1      24.899   6.297  48.661  1.00  0.00     0.024 A 
HETATM   12  C13 UNL     1      24.861   5.217  49.517  1.00  0.00     0.015 A 
ENDBRANCH   3   6
BRANCH   1  13
HETATM   13  C4  UNL     1      24.414   0.963  52.881  1.00  0.00    -0.028 A 
HETATM   14  C3  UNL     1      23.180   0.505  52.293  1.00  0.00     0.046 A 
HETATM   15  C2  UNL     1      23.070  -0.405  53.225  1.00  0.00     0.069 A 
HETATM   16  C17 UNL     1      24.331   0.041  53.850  1.00  0.00     0.046 A 
BRANCH  15  17
HETATM   17  O1  UNL     1      22.395  -1.474  53.828  1.00  0.00    -0.356 OA
HETATM   18  C1  UNL     1      21.066  -1.323  54.239  1.00  0.00     0.210 C 
ENDBRANCH  15  17
ENDBRANCH   1  13
BRANCH   5  19
HETATM   19  C14 UNL     1      27.167   0.511  52.443  1.00  0.00     0.192 A 
HETATM   20  N3  UNL     1      27.086  -0.650  52.349  1.00  0.00    -0.198 NA
HETATM   21  C15 UNL     1      27.837  -1.568  52.913  1.00  0.00     0.171 A 
HETATM   22  C16 UNL     1      28.906  -1.044  53.767  1.00  0.00     0.111 A 
HETATM   23  S1  UNL     1      28.650   0.733  53.613  1.00  0.00    -0.058 SA
BRANCH  21  24
HETATM   24  O2  UNL     1      27.461  -2.892  52.584  1.00  0.00    -0.344 OA
HETATM   25  H12 UNL     1      27.058  -3.526  53.248  1.00  0.00     0.219 HD
ENDBRANCH  21  24
ENDBRANCH   5  19
TORSDOF 5
ENDMDL
MODEL 2
REMARK VINA RESULT:      -8.1      4.834      8.024
REMARK  5 active torsions:
REMARK  status: ('A' for Active; 'I' for Inactive)
REMARK    1  A    between atoms: O1_2  and  C2_3 
REMARK    2  A    between atoms: C4_5  and  C5_6 
REMARK    3  A    between atoms: C7_8  and  C8_9 
REMARK    4  A    between atoms: N2_17  and  C14_18 
REMARK    5  A    between atoms: C15_20  and  O2_21 
ROOT
HETATM    1  C5  UNL     1      23.081   1.814  52.994  1.00  0.00     0.151 C 
HETATM    2  C6  UNL     1      22.365   0.575  52.446  1.00  0.00     0.094 C 
HETATM    3  C7  UNL     1      20.958   1.114  52.406  1.00  0.00     0.067 C 
HETATM    4  N1  UNL     1      21.011   2.424  52.342  1.00  0.00    -0.173 NA
HETATM    5  N2  UNL     1      22.348   2.832  52.335  1.00  0.00    -0.236 N 
ENDROOT
BRANCH   3   6
HETATM    6  C8  UNL     1      19.768   0.271  52.437  1.00  0.00    -0.010 A 
HETATM    7  C9  UNL     1      18.761   0.403  51.490  1.00  0.00     0.015 A 
HETATM    8  C10 UNL     1      17.628  -0.377  51.495  1.00  0.00     0.024 A 
HETATM    9  C11 UNL     1      17.518  -1.330  52.503  1.00  0.00     0.034 A 
HETATM   10 CL1  UNL     1      16.096  -2.338  52.539  1.00  0.00    -0.084 Cl
HETATM   11  C12 UNL     1      18.512  -1.468  53.446  1.00  0.00     0.024 A 
HETATM   12  C13 UNL     1      19.643  -0.680  53.432  1.00  0.00     0.015 A 
ENDBRANCH   3   6
BRANCH   1  13
HETATM   13  C4  UNL     1      24.526   1.797  52.775  1.00  0.00    -0.028 A 
HETATM   14  C3  UNL     1      25.528   2.372  53.637  1.00  0.00     0.046 A 
HETATM   15  C2  UNL     1      26.466   1.973  52.820  1.00  0.00     0.069 A 
HETATM   16  C17 UNL     1      25.465   1.374  51.916  1.00  0.00     0.046 A 
BRANCH  15  17
HETATM   17  O1  UNL     1      27.814   1.863  52.453  1.00  0.00    -0.356 OA
HETATM   18  C1  UNL     1      28.757   1.394  53.376  1.00  0.00     0.210 C 
ENDBRANCH  15  17
ENDBRANCH   1  13
BRANCH   5  19
HETATM   19  C14 UNL     1      23.007   3.981  51.827  1.00  0.00     0.192 A 
HETATM   20  N3  UNL     1      23.461   5.010  52.140  1.00  0.00    -0.198 NA
HETATM   21  C15 UNL     1      24.043   5.909  51.380  1.00  0.00     0.171 A 
HETATM   22  C16 UNL     1      24.122   5.553  49.961  1.00  0.00     0.111 A 
HETATM   23  S1  UNL     1      23.324   3.938  49.952  1.00  0.00    -0.058 SA
BRANCH  21  24
HETATM   24  O2  UNL     1      24.481   7.054  52.087  1.00  0.00    -0.344 OA
HETATM   25  H12 UNL     1      23.876   7.821  52.313  1.00  0.00     0.219 HD
ENDBRANCH  21  24
ENDBRANCH   5  19
TORSDOF 5
ENDMDL
MODEL 3
REMARK VINA RESULT:      -7.8      4.335      7.151
REMARK  5 active torsions:
REMARK  status: ('A' for Active; 'I' for Inactive)
REMARK    1  A    between atoms: O1_2  and  C2_3 
REMARK    2  A    between atoms: C4_5  and  C5_6 
REMARK    3  A    between atoms: C7_8  and  C8_9 
REMARK    4  A    between atoms: N2_17  and  C14_18 
REMARK    5  A    between atoms: C15_20  and  O2_21 
ROOT
HETATM    1  C5  UNL     1      23.595   1.778  50.838  1.00  0.00     0.151 C 
HETATM    2  C6  UNL     1      22.145   2.068  51.240  1.00  0.00     0.094 C 
HETATM    3  C7  UNL     1      21.828   0.769  51.936  1.00  0.00     0.067 C 
HETATM    4  N1  UNL     1      22.952   0.223  52.339  1.00  0.00    -0.173 NA
HETATM    5  N2  UNL     1      24.022   1.045  51.974  1.00  0.00    -0.236 N 
ENDROOT
BRANCH   3   6
HETATM    6  C8  UNL     1      20.476   0.252  52.106  1.00  0.00    -0.010 A 
HETATM    7  C9  UNL     1      20.111  -0.472  53.234  1.00  0.00     0.015 A 
HETATM    8  C10 UNL     1      18.844  -0.972  53.421  1.00  0.00     0.024 A 
HETATM    9  C11 UNL     1      17.911  -0.724  52.419  1.00  0.00     0.034 A 
HETATM   10 CL1  UNL     1      16.293  -1.343  52.623  1.00  0.00    -0.084 Cl
HETATM   11  C12 UNL     1      18.262  -0.008  51.297  1.00  0.00     0.024 A 
HETATM   12  C13 UNL     1      19.536   0.489  51.121  1.00  0.00     0.015 A 
ENDBRANCH   3   6
BRANCH   1  13
HETATM   13  C4  UNL     1      24.359   2.978  50.504  1.00  0.00    -0.028 A 
HETATM   14  C3  UNL     1      24.136   4.305  51.022  1.00  0.00     0.046 A 
HETATM   15  C2  UNL     1      25.132   4.756  50.306  1.00  0.00     0.069 A 
HETATM   16  C17 UNL     1      25.386   3.409  49.758  1.00  0.00     0.046 A 
BRANCH  15  17
HETATM   17  O1  UNL     1      25.966   5.795  49.875  1.00  0.00    -0.356 OA
HETATM   18  C1  UNL     1      25.634   7.125  50.157  1.00  0.00     0.210 C 
ENDBRANCH  15  17
ENDBRANCH   1  13
BRANCH   5  19
HETATM   19  C14 UNL     1      25.323   1.236  52.506  1.00  0.00     0.192 A 
HETATM   20  N3  UNL     1      25.983   1.988  53.107  1.00  0.00    -0.198 NA
HETATM   21  C15 UNL     1      27.241   1.863  53.465  1.00  0.00     0.171 A 
HETATM   22  C16 UNL     1      27.875   0.611  53.045  1.00  0.00     0.111 A 
HETATM   23  S1  UNL     1      26.522  -0.205  52.180  1.00  0.00    -0.058 SA
BRANCH  21  24
HETATM   24  O2  UNL     1      27.738   2.971  54.191  1.00  0.00    -0.344 OA
HETATM   25  H12 UNL     1      27.204   3.805  54.349  1.00  0.00     0.219 HD
ENDBRANCH  21  24
ENDBRANCH   5  19
TORSDOF 5
ENDMDL
MODEL 4
REMARK VINA RESULT:      -7.7      3.194      4.689
REMARK  5 active torsions:
REMARK  status: ('A' for Active; 'I' for Inactive)
REMARK    1  A    between atoms: O1_2  and  C2_3 
REMARK    2  A    between atoms: C4_5  and  C5_6 
REMARK    3  A    between atoms: C7_8  and  C8_9 
REMARK    4  A    between atoms: N2_17  and  C14_18 
REMARK    5  A    between atoms: C15_20  and  O2_21 
ROOT
HETATM    1  C5  UNL     1      24.323   1.587  51.988  1.00  0.00     0.151 C 
HETATM    2  C6  UNL     1      24.522   3.103  52.088  1.00  0.00     0.094 C 
HETATM    3  C7  UNL     1      23.118   3.547  51.762  1.00  0.00     0.067 C 
HETATM    4  N1  UNL     1      22.292   2.565  52.037  1.00  0.00    -0.173 NA
HETATM    5  N2  UNL     1      23.017   1.475  52.528  1.00  0.00    -0.236 N 
ENDROOT
BRANCH   3   6
HETATM    6  C8  UNL     1      22.790   4.865  51.231  1.00  0.00    -0.010 A 
HETATM    7  C9  UNL     1      23.736   5.880  51.172  1.00  0.00     0.015 A 
HETATM    8  C10 UNL     1      23.455   7.132  50.677  1.00  0.00     0.024 A 
HETATM    9  C11 UNL     1      22.158   7.358  50.224  1.00  0.00     0.034 A 
HETATM   10 CL1  UNL     1      21.767   8.934  49.589  1.00  0.00    -0.084 Cl
HETATM   11  C12 UNL     1      21.214   6.358  50.278  1.00  0.00     0.024 A 
HETATM   12  C13 UNL     1      21.507   5.107  50.777  1.00  0.00     0.015 A 
ENDBRANCH   3   6
BRANCH   1  13
HETATM   13  C4  UNL     1      25.376   0.816  52.647  1.00  0.00    -0.028 A 
HETATM   14  C3  UNL     1      26.178   1.247  53.765  1.00  0.00     0.046 A 
HETATM   15  C2  UNL     1      26.813   0.105  53.753  1.00  0.00     0.069 A 
HETATM   16  C17 UNL     1      26.008  -0.365  52.609  1.00  0.00     0.046 A 
BRANCH  15  17
HETATM   17  O1  UNL     1      27.782  -0.769  54.262  1.00  0.00    -0.356 OA
HETATM   18  C1  UNL     1      29.126  -0.379  54.306  1.00  0.00     0.210 C 
ENDBRANCH  15  17
ENDBRANCH   1  13
BRANCH   5  19
HETATM   19  C14 UNL     1      22.683   0.396  53.385  1.00  0.00     0.192 A 
HETATM   20  N3  UNL     1      23.078  -0.239  54.282  1.00  0.00    -0.198 NA
HETATM   21  C15 UNL     1      22.488  -1.241  54.893  1.00  0.00     0.171 A 
HETATM   22  C16 UNL     1      21.166  -1.588  54.364  1.00  0.00     0.111 A 
HETATM   23  S1  UNL     1      20.983  -0.384  53.037  1.00  0.00    -0.058 SA
BRANCH  21  24
HETATM   24  O2  UNL     1      23.252  -1.792  55.949  1.00  0.00    -0.344 OA
HETATM   25  H12 UNL     1      23.591  -1.247  56.719  1.00  0.00     0.219 HD
ENDBRANCH  21  24
ENDBRANCH   5  19
TORSDOF 5
ENDMDL
MODEL 5
REMARK VINA RESULT:      -7.6      4.508      6.944
REMARK  5 active torsions:
REMARK  status: ('A' for Active; 'I' for Inactive)
REMARK    1  A    between atoms: O1_2  and  C2_3 
REMARK    2  A    between atoms: C4_5  and  C5_6 
REMARK    3  A    between atoms: C7_8  and  C8_9 
REMARK    4  A    between atoms: N2_17  and  C14_18 
REMARK    5  A    between atoms: C15_20  and  O2_21 
ROOT
HETATM    1  C5  UNL     1      23.611   2.188  51.219  1.00  0.00     0.151 C 
HETATM    2  C6  UNL     1      24.235   1.412  52.384  1.00  0.00     0.094 C 
HETATM    3  C7  UNL     1      25.684   1.496  51.975  1.00  0.00     0.067 C 
HETATM    4  N1  UNL     1      25.839   2.535  51.189  1.00  0.00    -0.173 NA
HETATM    5  N2  UNL     1      24.608   3.176  51.022  1.00  0.00    -0.236 N 
ENDROOT
BRANCH   3   6
HETATM    6  C8  UNL     1      26.704   0.550  52.412  1.00  0.00    -0.010 A 
HETATM    7  C9  UNL     1      26.535  -0.820  52.263  1.00  0.00     0.015 A 
HETATM    8  C10 UNL     1      27.478  -1.736  52.667  1.00  0.00     0.024 A 
HETATM    9  C11 UNL     1      28.641  -1.234  53.245  1.00  0.00     0.034 A 
HETATM   10 CL1  UNL     1      29.860  -2.366  53.768  1.00  0.00    -0.084 Cl
HETATM   11  C12 UNL     1      28.818   0.122  53.398  1.00  0.00     0.024 A 
HETATM   12  C13 UNL     1      27.864   1.031  52.989  1.00  0.00     0.015 A 
ENDBRANCH   3   6
BRANCH   1  13
HETATM   13  C4  UNL     1      22.257   2.664  51.494  1.00  0.00    -0.028 A 
HETATM   14  C3  UNL     1      21.100   2.480  50.655  1.00  0.00     0.046 A 
HETATM   15  C2  UNL     1      20.366   3.132  51.517  1.00  0.00     0.069 A 
HETATM   16  C17 UNL     1      21.532   3.337  52.399  1.00  0.00     0.046 A 
BRANCH  15  17
HETATM   17  O1  UNL     1      19.138   3.658  51.939  1.00  0.00    -0.356 OA
HETATM   18  C1  UNL     1      17.940   3.075  51.511  1.00  0.00     0.210 C 
ENDBRANCH  15  17
ENDBRANCH   1  13
BRANCH   5  19
HETATM   19  C14 UNL     1      24.245   4.513  50.719  1.00  0.00     0.192 A 
HETATM   20  N3  UNL     1      24.167   5.585  51.176  1.00  0.00    -0.198 NA
HETATM   21  C15 UNL     1      23.767   6.692  50.595  1.00  0.00     0.171 A 
HETATM   22  C16 UNL     1      23.372   6.539  49.192  1.00  0.00     0.111 A 
HETATM   23  S1  UNL     1      23.649   4.778  48.932  1.00  0.00    -0.058 SA
BRANCH  21  24
HETATM   24  O2  UNL     1      23.795   7.823  51.444  1.00  0.00    -0.344 OA
HETATM   25  H12 UNL     1      24.548   8.486  51.448  1.00  0.00     0.219 HD
ENDBRANCH  21  24
ENDBRANCH   5  19
TORSDOF 5
ENDMDL
MODEL 6
REMARK VINA RESULT:      -7.6      5.588      7.978
REMARK  5 active torsions:
REMARK  status: ('A' for Active; 'I' for Inactive)
REMARK    1  A    between atoms: O1_2  and  C2_3 
REMARK    2  A    between atoms: C4_5  and  C5_6 
REMARK    3  A    between atoms: C7_8  and  C8_9 
REMARK    4  A    between atoms: N2_17  and  C14_18 
REMARK    5  A    between atoms: C15_20  and  O2_21 
ROOT
HETATM    1  C5  UNL     1      20.414   0.638  51.457  1.00  0.00     0.151 C 
HETATM    2  C6  UNL     1      21.296   0.150  52.612  1.00  0.00     0.094 C 
HETATM    3  C7  UNL     1      22.364   1.214  52.558  1.00  0.00     0.067 C 
HETATM    4  N1  UNL     1      21.865   2.282  51.983  1.00  0.00    -0.173 NA
HETATM    5  N2  UNL     1      20.533   2.040  51.633  1.00  0.00    -0.236 N 
ENDROOT
BRANCH   3   6
HETATM    6  C8  UNL     1      23.714   1.030  53.078  1.00  0.00    -0.010 A 
HETATM    7  C9  UNL     1      24.613   2.085  53.155  1.00  0.00     0.015 A 
HETATM    8  C10 UNL     1      25.892   1.941  53.639  1.00  0.00     0.024 A 
HETATM    9  C11 UNL     1      26.269   0.670  54.063  1.00  0.00     0.034 A 
HETATM   10 CL1  UNL     1      27.884   0.451  54.684  1.00  0.00    -0.084 Cl
HETATM   11  C12 UNL     1      25.386  -0.383  53.991  1.00  0.00     0.024 A 
HETATM   12  C13 UNL     1      24.106  -0.226  53.503  1.00  0.00     0.015 A 
ENDBRANCH   3   6
BRANCH   1  13
HETATM   13  C4  UNL     1      19.062   0.085  51.481  1.00  0.00    -0.028 A 
HETATM   14  C3  UNL     1      18.426  -0.568  52.598  1.00  0.00     0.046 A 
HETATM   15  C2  UNL     1      17.347  -0.750  51.883  1.00  0.00     0.069 A 
HETATM   16  C17 UNL     1      17.971  -0.086  50.721  1.00  0.00     0.046 A 
BRANCH  15  17
HETATM   17  O1  UNL     1      16.037  -1.222  51.730  1.00  0.00    -0.356 OA
HETATM   18  C1  UNL     1      14.997  -0.661  52.479  1.00  0.00     0.210 C 
ENDBRANCH  15  17
ENDBRANCH   1  13
BRANCH   5  19
HETATM   19  C14 UNL     1      19.411   2.886  51.447  1.00  0.00     0.192 A 
HETATM   20  N3  UNL     1      18.456   3.299  51.979  1.00  0.00    -0.198 NA
HETATM   21  C15 UNL     1      17.552   4.126  51.505  1.00  0.00     0.171 A 
HETATM   22  C16 UNL     1      17.795   4.575  50.131  1.00  0.00     0.111 A 
HETATM   23  S1  UNL     1      19.325   3.710  49.735  1.00  0.00    -0.058 SA
BRANCH  21  24
HETATM   24  O2  UNL     1      16.515   4.421  52.421  1.00  0.00    -0.344 OA
HETATM   25  H12 UNL     1      15.547   4.440  52.161  1.00  0.00     0.219 HD
ENDBRANCH  21  24
ENDBRANCH   5  19
TORSDOF 5
ENDMDL
MODEL 7
REMARK VINA RESULT:      -7.5      4.602      7.220
REMARK  5 active torsions:
REMARK  status: ('A' for Active; 'I' for Inactive)
REMARK    1  A    between atoms: O1_2  and  C2_3 
REMARK    2  A    between atoms: C4_5  and  C5_6 
REMARK    3  A    between atoms: C7_8  and  C8_9 
REMARK    4  A    between atoms: N2_17  and  C14_18 
REMARK    5  A    between atoms: C15_20  and  O2_21 
ROOT
HETATM    1  C5  UNL     1      23.719   2.677  52.775  1.00  0.00     0.151 C 
HETATM    2  C6  UNL     1      25.193   2.484  52.406  1.00  0.00     0.094 C 
HETATM    3  C7  UNL     1      25.322   1.013  52.712  1.00  0.00     0.067 C 
HETATM    4  N1  UNL     1      24.132   0.464  52.648  1.00  0.00    -0.173 NA
HETATM    5  N2  UNL     1      23.188   1.443  52.322  1.00  0.00    -0.236 N 
ENDROOT
BRANCH   3   6
HETATM    6  C8  UNL     1      26.589   0.360  53.021  1.00  0.00    -0.010 A 
HETATM    7  C9  UNL     1      27.606   1.029  53.689  1.00  0.00     0.015 A 
HETATM    8  C10 UNL     1      28.811   0.439  53.993  1.00  0.00     0.024 A 
HETATM    9  C11 UNL     1      28.985  -0.885  53.602  1.00  0.00     0.034 A 
HETATM   10 CL1  UNL     1      30.500  -1.665  53.973  1.00  0.00    -0.084 Cl
HETATM   11  C12 UNL     1      27.982  -1.557  52.940  1.00  0.00     0.024 A 
HETATM   12  C13 UNL     1      26.779  -0.955  52.640  1.00  0.00     0.015 A 
ENDBRANCH   3   6
BRANCH   1  13
HETATM   13  C4  UNL     1      23.131   3.892  52.213  1.00  0.00    -0.028 A 
HETATM   14  C3  UNL     1      23.635   4.645  51.093  1.00  0.00     0.046 A 
HETATM   15  C2  UNL     1      22.648   5.493  51.214  1.00  0.00     0.069 A 
HETATM   16  C17 UNL     1      22.106   4.743  52.364  1.00  0.00     0.046 A 
BRANCH  15  17
HETATM   17  O1  UNL     1      21.953   6.639  50.807  1.00  0.00    -0.356 OA
HETATM   18  C1  UNL     1      22.654   7.754  50.331  1.00  0.00     0.210 C 
ENDBRANCH  15  17
ENDBRANCH   1  13
BRANCH   5  19
HETATM   19  C14 UNL     1      21.925   1.395  51.679  1.00  0.00     0.192 A 
HETATM   20  N3  UNL     1      21.411   1.409  50.631  1.00  0.00    -0.198 NA
HETATM   21  C15 UNL     1      20.129   1.344  50.351  1.00  0.00     0.171 A 
HETATM   22  C16 UNL     1      19.252   1.241  51.520  1.00  0.00     0.111 A 
HETATM   23  S1  UNL     1      20.446   1.255  52.868  1.00  0.00    -0.058 SA
BRANCH  21  24
HETATM   24  O2  UNL     1      19.847   1.387  48.965  1.00  0.00    -0.344 OA
HETATM   25  H12 UNL     1      20.003   0.609  48.352  1.00  0.00     0.219 HD
ENDBRANCH  21  24
ENDBRANCH   5  19
TORSDOF 5
ENDMDL
MODEL 8
REMARK VINA RESULT:      -7.5      3.690      5.135
REMARK  5 active torsions:
REMARK  status: ('A' for Active; 'I' for Inactive)
REMARK    1  A    between atoms: O1_2  and  C2_3 
REMARK    2  A    between atoms: C4_5  and  C5_6 
REMARK    3  A    between atoms: C7_8  and  C8_9 
REMARK    4  A    between atoms: N2_17  and  C14_18 
REMARK    5  A    between atoms: C15_20  and  O2_21 
ROOT
HETATM    1  C5  UNL     1      23.671   2.309  50.591  1.00  0.00     0.151 C 
HETATM    2  C6  UNL     1      24.824   3.277  50.881  1.00  0.00     0.094 C 
HETATM    3  C7  UNL     1      24.726   4.136  49.646  1.00  0.00     0.067 C 
HETATM    4  N1  UNL     1      23.507   4.052  49.170  1.00  0.00    -0.173 NA
HETATM    5  N2  UNL     1      22.752   3.199  49.981  1.00  0.00    -0.236 N 
ENDROOT
BRANCH   3   6
HETATM    6  C8  UNL     1      25.839   4.914  49.113  1.00  0.00    -0.010 A 
HETATM    7  C9  UNL     1      27.117   4.380  49.015  1.00  0.00     0.015 A 
HETATM    8  C10 UNL     1      28.185   5.089  48.517  1.00  0.00     0.024 A 
HETATM    9  C11 UNL     1      27.940   6.395  48.102  1.00  0.00     0.034 A 
HETATM   10 CL1  UNL     1      29.271   7.324  47.464  1.00  0.00    -0.084 Cl
HETATM   11  C12 UNL     1      26.676   6.933  48.194  1.00  0.00     0.024 A 
HETATM   12  C13 UNL     1      25.613   6.212  48.696  1.00  0.00     0.015 A 
ENDBRANCH   3   6
BRANCH   1  13
HETATM   13  C4  UNL     1      23.203   1.589  51.774  1.00  0.00    -0.028 A 
HETATM   14  C3  UNL     1      22.407   0.387  51.782  1.00  0.00     0.046 A 
HETATM   15  C2  UNL     1      22.416   0.386  53.089  1.00  0.00     0.069 A 
HETATM   16  C17 UNL     1      23.231   1.616  53.114  1.00  0.00     0.046 A 
BRANCH  15  17
HETATM   17  O1  UNL     1      22.055  -0.174  54.322  1.00  0.00    -0.356 OA
HETATM   18  C1  UNL     1      21.234  -1.306  54.365  1.00  0.00     0.210 C 
ENDBRANCH  15  17
ENDBRANCH   1  13
BRANCH   5  19
HETATM   19  C14 UNL     1      21.364   3.099  50.254  1.00  0.00     0.192 A 
HETATM   20  N3  UNL     1      20.536   3.431  51.008  1.00  0.00    -0.198 NA
HETATM   21  C15 UNL     1      19.252   3.154  50.982  1.00  0.00     0.171 A 
HETATM   22  C16 UNL     1      18.828   2.321  49.854  1.00  0.00     0.111 A 
HETATM   23  S1  UNL     1      20.388   2.065  48.991  1.00  0.00    -0.058 SA
BRANCH  21  24
HETATM   24  O2  UNL     1      18.527   3.718  52.058  1.00  0.00    -0.344 OA
HETATM   25  H12 UNL     1      18.164   4.653  52.041  1.00  0.00     0.219 HD
ENDBRANCH  21  24
ENDBRANCH   5  19
TORSDOF 5
ENDMDL
MODEL 9
REMARK VINA RESULT:      -7.4      4.623      7.388
REMARK  5 active torsions:
REMARK  status: ('A' for Active; 'I' for Inactive)
REMARK    1  A    between atoms: O1_2  and  C2_3 
REMARK    2  A    between atoms: C4_5  and  C5_6 
REMARK    3  A    between atoms: C7_8  and  C8_9 
REMARK    4  A    between atoms: N2_17  and  C14_18 
REMARK    5  A    between atoms: C15_20  and  O2_21 
ROOT
HETATM    1  C5  UNL     1      24.170   3.592  51.513  1.00  0.00     0.151 C 
HETATM    2  C6  UNL     1      25.403   2.783  51.097  1.00  0.00     0.094 C 
HETATM    3  C7  UNL     1      25.374   1.734  52.179  1.00  0.00     0.067 C 
HETATM    4  N1  UNL     1      24.149   1.638  52.639  1.00  0.00    -0.173 NA
HETATM    5  N2  UNL     1      23.327   2.542  51.958  1.00  0.00    -0.236 N 
ENDROOT
BRANCH   3   6
HETATM    6  C8  UNL     1      26.547   0.979  52.604  1.00  0.00    -0.010 A 
HETATM    7  C9  UNL     1      26.580  -0.407  52.542  1.00  0.00     0.015 A 
HETATM    8  C10 UNL     1      27.671  -1.145  52.937  1.00  0.00     0.024 A 
HETATM    9  C11 UNL     1      28.773  -0.441  53.413  1.00  0.00     0.034 A 
HETATM   10 CL1  UNL     1      30.176  -1.345  53.922  1.00  0.00    -0.084 Cl
HETATM   11  C12 UNL     1      28.751   0.934  53.479  1.00  0.00     0.024 A 
HETATM   12  C13 UNL     1      27.650   1.663  53.080  1.00  0.00     0.015 A 
ENDBRANCH   3   6
BRANCH   1  13
HETATM   13  C4  UNL     1      23.647   4.448  50.450  1.00  0.00    -0.028 A 
HETATM   14  C3  UNL     1      23.762   4.217  49.032  1.00  0.00     0.046 A 
HETATM   15  C2  UNL     1      23.107   5.322  48.794  1.00  0.00     0.069 A 
HETATM   16  C17 UNL     1      22.971   5.587  50.240  1.00  0.00     0.046 A 
BRANCH  15  17
HETATM   17  O1  UNL     1      22.542   6.253  47.913  1.00  0.00    -0.356 OA
HETATM   18  C1  UNL     1      21.725   5.819  46.863  1.00  0.00     0.210 C 
ENDBRANCH  15  17
ENDBRANCH   1  13
BRANCH   5  19
HETATM   19  C14 UNL     1      21.937   2.566  51.677  1.00  0.00     0.192 A 
HETATM   20  N3  UNL     1      20.929   3.059  52.000  1.00  0.00    -0.198 NA
HETATM   21  C15 UNL     1      19.728   2.856  51.508  1.00  0.00     0.171 A 
HETATM   22  C16 UNL     1      19.672   1.882  50.415  1.00  0.00     0.111 A 
HETATM   23  S1  UNL     1      21.402   1.404  50.269  1.00  0.00    -0.058 SA
BRANCH  21  24
HETATM   24  O2  UNL     1      18.719   3.622  52.137  1.00  0.00    -0.344 OA
HETATM   25  H12 UNL     1      17.806   3.262  52.339  1.00  0.00     0.219 HD
ENDBRANCH  21  24
ENDBRANCH   5  19
TORSDOF 5
ENDMDL
