MODEL 1
REMARK VINA RESULT:      -7.8      0.000      0.000
REMARK  7 active torsions:
REMARK  status: ('A' for Active; 'I' for Inactive)
REMARK    1  A    between atoms: C2_2  and  N1_3 
REMARK    2  A    between atoms: C5_7  and  N3_8 
REMARK    3  A    between atoms: N3_8  and  C6_9 
REMARK    4  A    between atoms: C13_18  and  N6_19 
REMARK    5  A    between atoms: N6_19  and  C14_20 
REMARK    6  A    between atoms: C14_20  and  C15_21 
REMARK    7  A    between atoms: C15_21  and  N7_22 
ROOT
HETATM    1  C6  UNL     1      26.672   4.307  49.410  1.00  0.00     0.035 A 
HETATM    2  C7  UNL     1      27.753   4.655  48.665  1.00  0.00     0.029 A 
HETATM    3  C8  UNL     1      27.923   5.969  48.304  1.00  0.00     0.004 A 
HETATM    4  C9  UNL     1      26.992   6.925  48.703  1.00  0.00     0.023 A 
HETATM    5  C10 UNL     1      25.895   6.541  49.466  1.00  0.00     0.046 A 
HETATM    6  C11 UNL     1      24.911   7.513  49.895  1.00  0.00     0.099 C 
HETATM    7  N4  UNL     1      24.099   8.294  50.236  1.00  0.00    -0.191 NA
HETATM    8  C12 UNL     1      25.715   5.204  49.837  1.00  0.00     0.052 A 
ENDROOT
BRANCH   1   9
HETATM    9  N3  UNL     1      26.485   2.970  49.786  1.00  0.00    -0.339 N 
HETATM   10  H8  UNL     1      26.306   2.175  49.130  1.00  0.00     0.167 HD
BRANCH   9  11
HETATM   11  C5  UNL     1      26.504   2.455  51.112  1.00  0.00     0.165 C 
HETATM   12  C4  UNL     1      25.226   1.948  51.259  1.00  0.00     0.169 C 
HETATM   13  N2  UNL     1      23.932   1.718  51.530  1.00  0.00    -0.252 NA
HETATM   14  C3  UNL     1      23.523   1.341  52.776  1.00  0.00     0.210 C 
HETATM   15  N1  UNL     1      24.308   0.398  53.358  1.00  0.00    -0.336 N 
HETATM   16  C16 UNL     1      25.657   0.359  53.350  1.00  0.00     0.230 C 
HETATM   17  N8  UNL     1      26.785   0.219  52.640  1.00  0.00    -0.058 NA
HETATM   18  C13 UNL     1      27.692   1.209  52.724  1.00  0.00     0.725 C 
HETATM   19  N5  UNL     1      27.389   2.371  52.119  1.00  0.00    -0.044 NA
BRANCH  15  20
HETATM   20  C2  UNL     1      23.550  -0.644  54.039  1.00  0.00     0.126 C 
HETATM   21  C1  UNL     1      22.077  -0.321  54.058  1.00  0.00     0.027 C 
ENDBRANCH  15  20
BRANCH  18  22
HETATM   22  N6  UNL     1      28.918   1.032  53.424  1.00  0.00    -0.221 N 
HETATM   23  H13 UNL     1      29.705   1.682  53.220  1.00  0.00     0.177 HD
BRANCH  22  24
HETATM   24  C14 UNL     1      29.024  -0.045  54.388  1.00  0.00     0.168 C 
BRANCH  24  25
HETATM   25  C15 UNL     1      29.827  -1.167  53.727  1.00  0.00     0.286 C 
BRANCH  25  26
HETATM   26  N7  UNL     1      28.903  -2.218  53.366  1.00  0.00     0.079 N 
HETATM   27  H18 UNL     1      29.442  -2.968  52.875  1.00  0.00     0.312 HD
HETATM   28  H19 UNL     1      28.222  -1.826  52.677  1.00  0.00     0.312 HD
ENDBRANCH  25  26
ENDBRANCH  24  25
ENDBRANCH  22  24
ENDBRANCH  18  22
ENDBRANCH   9  11
ENDBRANCH   1   9
TORSDOF 7
ENDMDL
MODEL 2
REMARK VINA RESULT:      -7.7      1.272      1.996
REMARK  7 active torsions:
REMARK  status: ('A' for Active; 'I' for Inactive)
REMARK    1  A    between atoms: C2_2  and  N1_3 
REMARK    2  A    between atoms: C5_7  and  N3_8 
REMARK    3  A    between atoms: N3_8  and  C6_9 
REMARK    4  A    between atoms: C13_18  and  N6_19 
REMARK    5  A    between atoms: N6_19  and  C14_20 
REMARK    6  A    between atoms: C14_20  and  C15_21 
REMARK    7  A    between atoms: C15_21  and  N7_22 
ROOT
HETATM    1  C6  UNL     1      26.532   4.322  49.172  1.00  0.00     0.035 A 
HETATM    2  C7  UNL     1      25.453   5.146  49.207  1.00  0.00     0.029 A 
HETATM    3  C8  UNL     1      25.588   6.446  48.784  1.00  0.00     0.004 A 
HETATM    4  C9  UNL     1      26.821   6.902  48.326  1.00  0.00     0.023 A 
HETATM    5  C10 UNL     1      27.910   6.037  48.300  1.00  0.00     0.046 A 
HETATM    6  C11 UNL     1      29.204   6.484  47.829  1.00  0.00     0.099 C 
HETATM    7  N4  UNL     1      30.263   6.844  47.461  1.00  0.00    -0.191 NA
HETATM    8  C12 UNL     1      27.779   4.712  48.729  1.00  0.00     0.052 A 
ENDROOT
BRANCH   1   9
HETATM    9  N3  UNL     1      26.410   2.993  49.600  1.00  0.00    -0.339 N 
HETATM   10  H8  UNL     1      26.289   2.163  48.974  1.00  0.00     0.167 HD
BRANCH   9  11
HETATM   11  C5  UNL     1      26.427   2.534  50.946  1.00  0.00     0.165 C 
HETATM   12  C4  UNL     1      25.152   2.024  51.108  1.00  0.00     0.169 C 
HETATM   13  N2  UNL     1      23.859   1.796  51.384  1.00  0.00    -0.252 NA
HETATM   14  C3  UNL     1      23.447   1.468  52.643  1.00  0.00     0.210 C 
HETATM   15  N1  UNL     1      24.236   0.557  53.267  1.00  0.00    -0.336 N 
HETATM   16  C16 UNL     1      25.585   0.528  53.267  1.00  0.00     0.230 C 
HETATM   17  N8  UNL     1      26.718   0.366  52.568  1.00  0.00    -0.058 NA
HETATM   18  C13 UNL     1      27.617   1.366  52.613  1.00  0.00     0.725 C 
HETATM   19  N5  UNL     1      27.308   2.500  51.959  1.00  0.00    -0.044 NA
BRANCH  15  20
HETATM   20  C2  UNL     1      23.483  -0.461  53.988  1.00  0.00     0.126 C 
HETATM   21  C1  UNL     1      22.003  -0.172  53.952  1.00  0.00     0.027 C 
ENDBRANCH  15  20
BRANCH  18  22
HETATM   22  N6  UNL     1      28.841   1.228  53.325  1.00  0.00    -0.221 N 
HETATM   23  H13 UNL     1      29.625   1.873  53.096  1.00  0.00     0.177 HD
BRANCH  22  24
HETATM   24  C14 UNL     1      28.949   0.196  54.337  1.00  0.00     0.168 C 
BRANCH  24  25
HETATM   25  C15 UNL     1      29.811  -0.924  53.751  1.00  0.00     0.286 C 
BRANCH  25  26
HETATM   26  N7  UNL     1      28.934  -2.020  53.406  1.00  0.00     0.079 N 
HETATM   27  H18 UNL     1      28.020  -1.868  53.893  1.00  0.00     0.312 HD
HETATM   28  H19 UNL     1      29.347  -2.898  53.793  1.00  0.00     0.312 HD
ENDBRANCH  25  26
ENDBRANCH  24  25
ENDBRANCH  22  24
ENDBRANCH  18  22
ENDBRANCH   9  11
ENDBRANCH   1   9
TORSDOF 7
ENDMDL
MODEL 3
REMARK VINA RESULT:      -7.7      2.524      7.017
REMARK  7 active torsions:
REMARK  status: ('A' for Active; 'I' for Inactive)
REMARK    1  A    between atoms: C2_2  and  N1_3 
REMARK    2  A    between atoms: C5_7  and  N3_8 
REMARK    3  A    between atoms: N3_8  and  C6_9 
REMARK    4  A    between atoms: C13_18  and  N6_19 
REMARK    5  A    between atoms: N6_19  and  C14_20 
REMARK    6  A    between atoms: C14_20  and  C15_21 
REMARK    7  A    between atoms: C15_21  and  N7_22 
ROOT
HETATM    1  C6  UNL     1      22.021   0.154  52.533  1.00  0.00     0.035 A 
HETATM    2  C7  UNL     1      22.040   0.724  51.300  1.00  0.00     0.029 A 
HETATM    3  C8  UNL     1      20.866   0.840  50.597  1.00  0.00     0.004 A 
HETATM    4  C9  UNL     1      19.676   0.377  51.151  1.00  0.00     0.023 A 
HETATM    5  C10 UNL     1      19.684  -0.202  52.416  1.00  0.00     0.046 A 
HETATM    6  C11 UNL     1      18.462  -0.693  53.017  1.00  0.00     0.099 C 
HETATM    7  N4  UNL     1      17.475  -1.107  53.507  1.00  0.00    -0.191 NA
HETATM    8  C12 UNL     1      20.876  -0.324  53.138  1.00  0.00     0.052 A 
ENDROOT
BRANCH   1   9
HETATM    9  N3  UNL     1      23.210   0.028  53.263  1.00  0.00    -0.339 N 
HETATM   10  H8  UNL     1      23.429  -0.741  53.938  1.00  0.00     0.167 HD
BRANCH   9  11
HETATM   11  C5  UNL     1      24.325   0.912  53.220  1.00  0.00     0.165 C 
HETATM   12  C4  UNL     1      25.346   0.136  53.737  1.00  0.00     0.169 C 
HETATM   13  N2  UNL     1      26.269  -0.479  54.493  1.00  0.00    -0.252 NA
HETATM   14  C3  UNL     1      27.449   0.129  54.809  1.00  0.00     0.210 C 
HETATM   15  N1  UNL     1      28.036   0.778  53.771  1.00  0.00    -0.336 N 
HETATM   16  C16 UNL     1      27.419   1.554  52.856  1.00  0.00     0.230 C 
HETATM   17  N8  UNL     1      26.554   1.637  51.835  1.00  0.00    -0.058 NA
HETATM   18  C13 UNL     1      25.531   2.501  51.964  1.00  0.00     0.725 C 
HETATM   19  N5  UNL     1      24.559   2.176  52.835  1.00  0.00    -0.044 NA
BRANCH  15  20
HETATM   20  C2  UNL     1      29.477   0.571  53.702  1.00  0.00     0.126 C 
HETATM   21  C1  UNL     1      29.808  -0.884  53.480  1.00  0.00     0.027 C 
ENDBRANCH  15  20
BRANCH  18  22
HETATM   22  N6  UNL     1      25.482   3.706  51.210  1.00  0.00    -0.221 N 
HETATM   23  H13 UNL     1      26.374   4.202  51.007  1.00  0.00     0.177 HD
BRANCH  22  24
HETATM   24  C14 UNL     1      24.195   4.198  50.759  1.00  0.00     0.168 C 
BRANCH  24  25
HETATM   25  C15 UNL     1      23.993   5.579  51.385  1.00  0.00     0.286 C 
BRANCH  25  26
HETATM   26  N7  UNL     1      23.749   5.391  52.797  1.00  0.00     0.079 N 
HETATM   27  H18 UNL     1      23.464   6.313  53.201  1.00  0.00     0.312 HD
HETATM   28  H19 UNL     1      24.654   5.124  53.248  1.00  0.00     0.312 HD
ENDBRANCH  25  26
ENDBRANCH  24  25
ENDBRANCH  22  24
ENDBRANCH  18  22
ENDBRANCH   9  11
ENDBRANCH   1   9
TORSDOF 7
ENDMDL
MODEL 4
REMARK VINA RESULT:      -7.3      2.677      6.462
REMARK  7 active torsions:
REMARK  status: ('A' for Active; 'I' for Inactive)
REMARK    1  A    between atoms: C2_2  and  N1_3 
REMARK    2  A    between atoms: C5_7  and  N3_8 
REMARK    3  A    between atoms: N3_8  and  C6_9 
REMARK    4  A    between atoms: C13_18  and  N6_19 
REMARK    5  A    between atoms: N6_19  and  C14_20 
REMARK    6  A    between atoms: C14_20  and  C15_21 
REMARK    7  A    between atoms: C15_21  and  N7_22 
ROOT
HETATM    1  C6  UNL     1      27.583   1.886  52.873  1.00  0.00     0.035 A 
HETATM    2  C7  UNL     1      28.508   2.483  53.670  1.00  0.00     0.029 A 
HETATM    3  C8  UNL     1      29.416   1.702  54.343  1.00  0.00     0.004 A 
HETATM    4  C9  UNL     1      29.381   0.317  54.201  1.00  0.00     0.023 A 
HETATM    5  C10 UNL     1      28.424  -0.267  53.378  1.00  0.00     0.046 A 
HETATM    6  C11 UNL     1      28.363  -1.704  53.212  1.00  0.00     0.099 C 
HETATM    7  N4  UNL     1      28.298  -2.873  53.082  1.00  0.00    -0.191 NA
HETATM    8  C12 UNL     1      27.496   0.522  52.691  1.00  0.00     0.052 A 
ENDROOT
BRANCH   1   9
HETATM    9  N3  UNL     1      26.650   2.670  52.181  1.00  0.00    -0.339 N 
HETATM   10  H8  UNL     1      26.882   3.470  51.548  1.00  0.00     0.167 HD
BRANCH   9  11
HETATM   11  C5  UNL     1      25.236   2.523  52.211  1.00  0.00     0.165 C 
HETATM   12  C4  UNL     1      24.854   3.019  50.978  1.00  0.00     0.169 C 
HETATM   13  N2  UNL     1      24.435   3.752  49.934  1.00  0.00    -0.252 NA
HETATM   14  C3  UNL     1      23.108   3.972  49.707  1.00  0.00     0.210 C 
HETATM   15  N1  UNL     1      22.326   2.873  49.865  1.00  0.00    -0.336 N 
HETATM   16  C16 UNL     1      22.416   1.957  50.851  1.00  0.00     0.230 C 
HETATM   17  N8  UNL     1      23.129   0.983  51.435  1.00  0.00    -0.058 NA
HETATM   18  C13 UNL     1      23.412   1.126  52.742  1.00  0.00     0.725 C 
HETATM   19  N5  UNL     1      24.316   2.064  53.075  1.00  0.00    -0.044 NA
BRANCH  15  20
HETATM   20  C2  UNL     1      21.311   2.734  48.828  1.00  0.00     0.126 C 
HETATM   21  C1  UNL     1      21.917   2.854  47.452  1.00  0.00     0.027 C 
ENDBRANCH  15  20
BRANCH  18  22
HETATM   22  N6  UNL     1      22.780   0.319  53.728  1.00  0.00    -0.221 N 
HETATM   23  H13 UNL     1      22.679   0.699  54.692  1.00  0.00     0.177 HD
BRANCH  22  24
HETATM   24  C14 UNL     1      22.303  -0.998  53.354  1.00  0.00     0.168 C 
BRANCH  24  25
HETATM   25  C15 UNL     1      21.239  -1.402  54.377  1.00  0.00     0.286 C 
BRANCH  25  26
HETATM   26  N7  UNL     1      20.108  -0.518  54.208  1.00  0.00     0.079 N 
HETATM   27  H18 UNL     1      20.427   0.314  53.659  1.00  0.00     0.312 HD
HETATM   28  H19 UNL     1      19.824  -0.174  55.153  1.00  0.00     0.312 HD
ENDBRANCH  25  26
ENDBRANCH  24  25
ENDBRANCH  22  24
ENDBRANCH  18  22
ENDBRANCH   9  11
ENDBRANCH   1   9
TORSDOF 7
ENDMDL
MODEL 5
REMARK VINA RESULT:      -7.2      2.365      6.897
REMARK  7 active torsions:
REMARK  status: ('A' for Active; 'I' for Inactive)
REMARK    1  A    between atoms: C2_2  and  N1_3 
REMARK    2  A    between atoms: C5_7  and  N3_8 
REMARK    3  A    between atoms: N3_8  and  C6_9 
REMARK    4  A    between atoms: C13_18  and  N6_19 
REMARK    5  A    between atoms: N6_19  and  C14_20 
REMARK    6  A    between atoms: C14_20  and  C15_21 
REMARK    7  A    between atoms: C15_21  and  N7_22 
ROOT
HETATM    1  C6  UNL     1      27.006   1.521  52.903  1.00  0.00     0.035 A 
HETATM    2  C7  UNL     1      27.897   2.391  53.446  1.00  0.00     0.029 A 
HETATM    3  C8  UNL     1      29.075   1.909  53.962  1.00  0.00     0.004 A 
HETATM    4  C9  UNL     1      29.343   0.543  53.923  1.00  0.00     0.023 A 
HETATM    5  C10 UNL     1      28.413  -0.325  53.361  1.00  0.00     0.046 A 
HETATM    6  C11 UNL     1      28.664  -1.750  53.307  1.00  0.00     0.099 C 
HETATM    7  N4  UNL     1      28.855  -2.911  53.272  1.00  0.00    -0.191 NA
HETATM    8  C12 UNL     1      27.211   0.159  52.834  1.00  0.00     0.052 A 
ENDROOT
BRANCH   1   9
HETATM    9  N3  UNL     1      25.800   1.998  52.373  1.00  0.00    -0.339 N 
HETATM   10  H8  UNL     1      24.860   1.907  52.824  1.00  0.00     0.167 HD
BRANCH   9  11
HETATM   11  C5  UNL     1      25.633   2.686  51.139  1.00  0.00     0.165 C 
HETATM   12  C4  UNL     1      24.302   2.459  50.843  1.00  0.00     0.169 C 
HETATM   13  N2  UNL     1      23.118   2.018  50.389  1.00  0.00    -0.252 NA
HETATM   14  C3  UNL     1      22.664   2.350  49.147  1.00  0.00     0.210 C 
HETATM   15  N1  UNL     1      22.845   3.655  48.818  1.00  0.00    -0.336 N 
HETATM   16  C16 UNL     1      23.947   4.398  49.054  1.00  0.00     0.230 C 
HETATM   17  N8  UNL     1      24.757   4.975  49.953  1.00  0.00    -0.058 NA
HETATM   18  C13 UNL     1      26.061   4.649  49.905  1.00  0.00     0.725 C 
HETATM   19  N5  UNL     1      26.401   3.412  50.310  1.00  0.00    -0.044 NA
BRANCH  15  20
HETATM   20  C2  UNL     1      21.694   4.247  48.149  1.00  0.00     0.126 C 
HETATM   21  C1  UNL     1      21.606   3.793  46.713  1.00  0.00     0.027 C 
ENDBRANCH  15  20
BRANCH  18  22
HETATM   22  N6  UNL     1      27.038   5.575  49.444  1.00  0.00    -0.221 N 
HETATM   23  H13 UNL     1      27.016   6.547  49.815  1.00  0.00     0.177 HD
BRANCH  22  24
HETATM   24  C14 UNL     1      28.021   5.131  48.475  1.00  0.00     0.168 C 
BRANCH  24  25
HETATM   25  C15 UNL     1      28.891   6.340  48.125  1.00  0.00     0.286 C 
BRANCH  25  26
HETATM   26  N7  UNL     1      28.548   7.408  49.036  1.00  0.00     0.079 N 
HETATM   27  H18 UNL     1      28.844   8.312  48.601  1.00  0.00     0.312 HD
HETATM   28  H19 UNL     1      29.115   7.284  49.906  1.00  0.00     0.312 HD
ENDBRANCH  25  26
ENDBRANCH  24  25
ENDBRANCH  22  24
ENDBRANCH  18  22
ENDBRANCH   9  11
ENDBRANCH   1   9
TORSDOF 7
ENDMDL
MODEL 6
REMARK VINA RESULT:      -6.9      2.964      6.786
REMARK  7 active torsions:
REMARK  status: ('A' for Active; 'I' for Inactive)
REMARK    1  A    between atoms: C2_2  and  N1_3 
REMARK    2  A    between atoms: C5_7  and  N3_8 
REMARK    3  A    between atoms: N3_8  and  C6_9 
REMARK    4  A    between atoms: C13_18  and  N6_19 
REMARK    5  A    between atoms: N6_19  and  C14_20 
REMARK    6  A    between atoms: C14_20  and  C15_21 
REMARK    7  A    between atoms: C15_21  and  N7_22 
ROOT
HETATM    1  C6  UNL     1      25.253   1.106  53.153  1.00  0.00     0.035 A 
HETATM    2  C7  UNL     1      25.342  -0.114  52.562  1.00  0.00     0.029 A 
HETATM    3  C8  UNL     1      26.558  -0.750  52.517  1.00  0.00     0.004 A 
HETATM    4  C9  UNL     1      27.680  -0.143  53.075  1.00  0.00     0.023 A 
HETATM    5  C10 UNL     1      27.561   1.106  53.675  1.00  0.00     0.046 A 
HETATM    6  C11 UNL     1      28.710   1.762  54.264  1.00  0.00     0.099 C 
HETATM    7  N4  UNL     1      29.642   2.307  54.732  1.00  0.00    -0.191 NA
HETATM    8  C12 UNL     1      26.325   1.760  53.724  1.00  0.00     0.052 A 
ENDROOT
BRANCH   1   9
HETATM    9  N3  UNL     1      24.018   1.767  53.206  1.00  0.00    -0.339 N 
HETATM   10  H8  UNL     1      23.239   1.544  53.868  1.00  0.00     0.167 HD
BRANCH   9  11
HETATM   11  C5  UNL     1      23.603   2.849  52.382  1.00  0.00     0.165 C 
HETATM   12  C4  UNL     1      22.327   2.472  52.006  1.00  0.00     0.169 C 
HETATM   13  N2  UNL     1      21.226   2.005  51.397  1.00  0.00    -0.252 NA
HETATM   14  C3  UNL     1      20.604   2.713  50.411  1.00  0.00     0.210 C 
HETATM   15  N1  UNL     1      20.480   4.040  50.672  1.00  0.00    -0.336 N 
HETATM   16  C16 UNL     1      21.419   4.845  51.212  1.00  0.00     0.230 C 
HETATM   17  N8  UNL     1      22.168   5.161  52.278  1.00  0.00    -0.058 NA
HETATM   18  C13 UNL     1      23.501   5.189  52.107  1.00  0.00     0.725 C 
HETATM   19  N5  UNL     1      24.126   4.008  51.949  1.00  0.00    -0.044 NA
BRANCH  15  20
HETATM   20  C2  UNL     1      19.175   4.580  50.309  1.00  0.00     0.126 C 
HETATM   21  C1  UNL     1      18.189   3.475  50.024  1.00  0.00     0.027 C 
ENDBRANCH  15  20
BRANCH  18  22
HETATM   22  N6  UNL     1      24.219   6.417  52.094  1.00  0.00    -0.221 N 
HETATM   23  H13 UNL     1      24.785   6.671  52.929  1.00  0.00     0.177 HD
BRANCH  22  24
HETATM   24  C14 UNL     1      24.133   7.266  50.921  1.00  0.00     0.168 C 
BRANCH  24  25
HETATM   25  C15 UNL     1      25.536   7.348  50.317  1.00  0.00     0.286 C 
BRANCH  25  26
HETATM   26  N7  UNL     1      26.015   5.998  50.130  1.00  0.00     0.079 N 
HETATM   27  H18 UNL     1      26.521   5.711  50.999  1.00  0.00     0.312 HD
HETATM   28  H19 UNL     1      26.716   6.009  49.354  1.00  0.00     0.312 HD
ENDBRANCH  25  26
ENDBRANCH  24  25
ENDBRANCH  22  24
ENDBRANCH  18  22
ENDBRANCH   9  11
ENDBRANCH   1   9
TORSDOF 7
ENDMDL
MODEL 7
REMARK VINA RESULT:      -6.8      2.517      7.389
REMARK  7 active torsions:
REMARK  status: ('A' for Active; 'I' for Inactive)
REMARK    1  A    between atoms: C2_2  and  N1_3 
REMARK    2  A    between atoms: C5_7  and  N3_8 
REMARK    3  A    between atoms: N3_8  and  C6_9 
REMARK    4  A    between atoms: C13_18  and  N6_19 
REMARK    5  A    between atoms: N6_19  and  C14_20 
REMARK    6  A    between atoms: C14_20  and  C15_21 
REMARK    7  A    between atoms: C15_21  and  N7_22 
ROOT
HETATM    1  C6  UNL     1      22.137   0.412  52.268  1.00  0.00     0.035 A 
HETATM    2  C7  UNL     1      21.024  -0.008  52.923  1.00  0.00     0.029 A 
HETATM    3  C8  UNL     1      21.160  -0.665  54.122  1.00  0.00     0.004 A 
HETATM    4  C9  UNL     1      22.429  -0.890  54.649  1.00  0.00     0.023 A 
HETATM    5  C10 UNL     1      23.551  -0.448  53.958  1.00  0.00     0.046 A 
HETATM    6  C11 UNL     1      24.883  -0.669  54.483  1.00  0.00     0.099 C 
HETATM    7  N4  UNL     1      25.969  -0.857  54.895  1.00  0.00    -0.191 NA
HETATM    8  C12 UNL     1      23.420   0.221  52.737  1.00  0.00     0.052 A 
ENDROOT
BRANCH   1   9
HETATM    9  N3  UNL     1      22.014   1.084  51.044  1.00  0.00    -0.339 N 
HETATM   10  H8  UNL     1      21.411   0.781  50.244  1.00  0.00     0.167 HD
BRANCH   9  11
HETATM   11  C5  UNL     1      22.677   2.285  50.669  1.00  0.00     0.165 C 
HETATM   12  C4  UNL     1      21.663   3.224  50.733  1.00  0.00     0.169 C 
HETATM   13  N2  UNL     1      20.659   4.084  50.503  1.00  0.00    -0.252 NA
HETATM   14  C3  UNL     1      20.890   5.324  49.984  1.00  0.00     0.210 C 
HETATM   15  N1  UNL     1      21.954   5.967  50.532  1.00  0.00    -0.336 N 
HETATM   16  C16 UNL     1      23.154   5.426  50.827  1.00  0.00     0.230 C 
HETATM   17  N8  UNL     1      23.860   4.565  51.575  1.00  0.00    -0.058 NA
HETATM   18  C13 UNL     1      24.589   3.641  50.924  1.00  0.00     0.725 C 
HETATM   19  N5  UNL     1      23.919   2.649  50.311  1.00  0.00    -0.044 NA
BRANCH  15  20
HETATM   20  C2  UNL     1      21.700   7.377  50.800  1.00  0.00     0.126 C 
HETATM   21  C1  UNL     1      20.550   7.891  49.972  1.00  0.00     0.027 C 
ENDBRANCH  15  20
BRANCH  18  22
HETATM   22  N6  UNL     1      26.010   3.713  50.887  1.00  0.00    -0.221 N 
HETATM   23  H13 UNL     1      26.527   3.788  51.786  1.00  0.00     0.177 HD
BRANCH  22  24
HETATM   24  C14 UNL     1      26.678   3.683  49.601  1.00  0.00     0.168 C 
BRANCH  24  25
HETATM   25  C15 UNL     1      26.608   5.096  49.020  1.00  0.00     0.286 C 
BRANCH  25  26
HETATM   26  N7  UNL     1      27.947   5.638  49.015  1.00  0.00     0.079 N 
HETATM   27  H18 UNL     1      27.881   6.665  49.203  1.00  0.00     0.312 HD
HETATM   28  H19 UNL     1      28.337   5.526  48.052  1.00  0.00     0.312 HD
ENDBRANCH  25  26
ENDBRANCH  24  25
ENDBRANCH  22  24
ENDBRANCH  18  22
ENDBRANCH   9  11
ENDBRANCH   1   9
TORSDOF 7
ENDMDL
MODEL 8
REMARK VINA RESULT:      -6.7      2.393      6.951
REMARK  7 active torsions:
REMARK  status: ('A' for Active; 'I' for Inactive)
REMARK    1  A    between atoms: C2_2  and  N1_3 
REMARK    2  A    between atoms: C5_7  and  N3_8 
REMARK    3  A    between atoms: N3_8  and  C6_9 
REMARK    4  A    between atoms: C13_18  and  N6_19 
REMARK    5  A    between atoms: N6_19  and  C14_20 
REMARK    6  A    between atoms: C14_20  and  C15_21 
REMARK    7  A    between atoms: C15_21  and  N7_22 
ROOT
HETATM    1  C6  UNL     1      21.629  -0.469  52.719  1.00  0.00     0.035 A 
HETATM    2  C7  UNL     1      20.665  -0.909  53.568  1.00  0.00     0.029 A 
HETATM    3  C8  UNL     1      19.347  -0.651  53.277  1.00  0.00     0.004 A 
HETATM    4  C9  UNL     1      19.016   0.052  52.122  1.00  0.00     0.023 A 
HETATM    5  C10 UNL     1      20.024   0.490  51.269  1.00  0.00     0.046 A 
HETATM    6  C11 UNL     1      19.709   1.223  50.061  1.00  0.00     0.099 C 
HETATM    7  N4  UNL     1      19.462   1.832  49.084  1.00  0.00    -0.191 NA
HETATM    8  C12 UNL     1      21.367   0.231  51.559  1.00  0.00     0.052 A 
ENDROOT
BRANCH   1   9
HETATM    9  N3  UNL     1      22.978  -0.724  53.002  1.00  0.00    -0.339 N 
HETATM   10  H8  UNL     1      23.380  -1.659  53.246  1.00  0.00     0.167 HD
BRANCH   9  11
HETATM   11  C5  UNL     1      24.034   0.228  53.010  1.00  0.00     0.165 C 
HETATM   12  C4  UNL     1      24.967  -0.360  53.844  1.00  0.00     0.169 C 
HETATM   13  N2  UNL     1      25.747  -0.758  54.862  1.00  0.00    -0.252 NA
HETATM   14  C3  UNL     1      26.808  -0.009  55.278  1.00  0.00     0.210 C 
HETATM   15  N1  UNL     1      27.561   0.500  54.269  1.00  0.00    -0.336 N 
HETATM   16  C16 UNL     1      27.104   1.053  53.126  1.00  0.00     0.230 C 
HETATM   17  N8  UNL     1      26.460   0.888  51.962  1.00  0.00    -0.058 NA
HETATM   18  C13 UNL     1      25.392   1.673  51.734  1.00  0.00     0.725 C 
HETATM   19  N5  UNL     1      24.281   1.423  52.449  1.00  0.00    -0.044 NA
BRANCH  15  20
HETATM   20  C2  UNL     1      28.995   0.403  54.514  1.00  0.00     0.126 C 
HETATM   21  C1  UNL     1      29.647  -0.561  53.556  1.00  0.00     0.027 C 
ENDBRANCH  15  20
BRANCH  18  22
HETATM   22  N6  UNL     1      25.439   2.724  50.776  1.00  0.00    -0.221 N 
HETATM   23  H13 UNL     1      26.338   2.912  50.288  1.00  0.00     0.177 HD
BRANCH  22  24
HETATM   24  C14 UNL     1      24.236   3.491  50.519  1.00  0.00     0.168 C 
BRANCH  24  25
HETATM   25  C15 UNL     1      24.498   4.342  49.275  1.00  0.00     0.286 C 
BRANCH  25  26
HETATM   26  N7  UNL     1      23.319   5.140  49.030  1.00  0.00     0.079 N 
HETATM   27  H18 UNL     1      22.663   5.002  49.833  1.00  0.00     0.312 HD
HETATM   28  H19 UNL     1      22.846   4.762  48.177  1.00  0.00     0.312 HD
ENDBRANCH  25  26
ENDBRANCH  24  25
ENDBRANCH  22  24
ENDBRANCH  18  22
ENDBRANCH   9  11
ENDBRANCH   1   9
TORSDOF 7
ENDMDL
MODEL 9
REMARK VINA RESULT:      -6.7      2.156      2.938
REMARK  7 active torsions:
REMARK  status: ('A' for Active; 'I' for Inactive)
REMARK    1  A    between atoms: C2_2  and  N1_3 
REMARK    2  A    between atoms: C5_7  and  N3_8 
REMARK    3  A    between atoms: N3_8  and  C6_9 
REMARK    4  A    between atoms: C13_18  and  N6_19 
REMARK    5  A    between atoms: N6_19  and  C14_20 
REMARK    6  A    between atoms: C14_20  and  C15_21 
REMARK    7  A    between atoms: C15_21  and  N7_22 
ROOT
HETATM    1  C6  UNL     1      25.250   4.921  50.492  1.00  0.00     0.035 A 
HETATM    2  C7  UNL     1      25.967   3.831  50.112  1.00  0.00     0.029 A 
HETATM    3  C8  UNL     1      26.962   3.977  49.177  1.00  0.00     0.004 A 
HETATM    4  C9  UNL     1      27.226   5.230  48.633  1.00  0.00     0.023 A 
HETATM    5  C10 UNL     1      26.477   6.330  49.040  1.00  0.00     0.046 A 
HETATM    6  C11 UNL     1      26.729   7.646  48.491  1.00  0.00     0.099 C 
HETATM    7  N4  UNL     1      26.918   8.716  48.039  1.00  0.00    -0.191 NA
HETATM    8  C12 UNL     1      25.462   6.189  49.992  1.00  0.00     0.052 A 
ENDROOT
BRANCH   1   9
HETATM    9  N3  UNL     1      24.232   4.789  51.446  1.00  0.00    -0.339 N 
HETATM   10  H8  UNL     1      23.572   5.547  51.737  1.00  0.00     0.167 HD
BRANCH   9  11
HETATM   11  C5  UNL     1      23.912   3.615  52.183  1.00  0.00     0.165 C 
HETATM   12  C4  UNL     1      22.563   3.454  51.926  1.00  0.00     0.169 C 
HETATM   13  N2  UNL     1      21.221   3.440  51.937  1.00  0.00    -0.252 NA
HETATM   14  C3  UNL     1      20.525   2.526  52.673  1.00  0.00     0.210 C 
HETATM   15  N1  UNL     1      21.016   1.262  52.599  1.00  0.00    -0.336 N 
HETATM   16  C16 UNL     1      22.316   0.901  52.637  1.00  0.00     0.230 C 
HETATM   17  N8  UNL     1      23.519   0.924  52.046  1.00  0.00    -0.058 NA
HETATM   18  C13 UNL     1      24.546   1.419  52.760  1.00  0.00     0.725 C 
HETATM   19  N5  UNL     1      24.563   2.746  52.974  1.00  0.00    -0.044 NA
BRANCH  15  20
HETATM   20  C2  UNL     1      19.979   0.247  52.466  1.00  0.00     0.126 C 
HETATM   21  C1  UNL     1      19.191   0.436  51.194  1.00  0.00     0.027 C 
ENDBRANCH  15  20
BRANCH  18  22
HETATM   22  N6  UNL     1      25.569   0.570  53.268  1.00  0.00    -0.221 N 
HETATM   23  H13 UNL     1      25.635   0.433  54.298  1.00  0.00     0.177 HD
BRANCH  22  24
HETATM   24  C14 UNL     1      26.478  -0.065  52.335  1.00  0.00     0.168 C 
BRANCH  24  25
HETATM   25  C15 UNL     1      27.520  -0.822  53.162  1.00  0.00     0.286 C 
BRANCH  25  26
HETATM   26  N7  UNL     1      27.305  -2.236  52.955  1.00  0.00     0.079 N 
HETATM   27  H18 UNL     1      27.063  -2.665  53.877  1.00  0.00     0.312 HD
HETATM   28  H19 UNL     1      28.212  -2.658  52.648  1.00  0.00     0.312 HD
ENDBRANCH  25  26
ENDBRANCH  24  25
ENDBRANCH  22  24
ENDBRANCH  18  22
ENDBRANCH   9  11
ENDBRANCH   1   9
TORSDOF 7
ENDMDL
