MODEL 1
REMARK VINA RESULT:      -7.3      0.000      0.000
REMARK  7 active torsions:
REMARK  status: ('A' for Active; 'I' for Inactive)
REMARK    1  A    between atoms: C2_2  and  C3_3 
REMARK    2  A    between atoms: C4_4  and  C5_5 
REMARK    3  A    between atoms: C6_6  and  C7_7 
REMARK    4  A    between atoms: C7_7  and  O1_8 
REMARK    5  A    between atoms: O1_8  and  C8_9 
REMARK    6  A    between atoms: C11_12  and  N1_13 
REMARK    7  A    between atoms: N1_13  and  C12_14 
ROOT
HETATM    1  C8  UNL     1      22.721   3.090  50.965  1.00  0.00     0.107 A 
HETATM    2  C9  UNL     1      23.081   3.057  52.287  1.00  0.00     0.042 A 
HETATM    3  C10 UNL     1      24.378   2.918  52.668  1.00  0.00     0.032 A 
HETATM    4  C11 UNL     1      25.427   2.801  51.802  1.00  0.00     0.036 A 
HETATM    5  C17 UNL     1      25.081   2.834  50.453  1.00  0.00     0.074 A 
HETATM    6  C18 UNL     1      23.759   2.975  50.026  1.00  0.00     0.151 A 
HETATM    7  F1  UNL     1      23.652   2.983  48.674  1.00  0.00    -0.203 F 
ENDROOT
BRANCH   4   8
HETATM    8  N1  UNL     1      26.772   2.644  52.231  1.00  0.00    -0.341 N 
HETATM    9  H12 UNL     1      27.412   3.453  52.082  1.00  0.00     0.167 HD
BRANCH   8  10
HETATM   10  C12 UNL     1      27.144   1.399  52.825  1.00  0.00     0.131 A 
HETATM   11  C13 UNL     1      26.902   0.148  52.282  1.00  0.00     0.077 A 
HETATM   12  C14 UNL     1      27.332  -0.954  53.011  1.00  0.00     0.035 A 
HETATM   13  C15 UNL     1      27.076  -2.298  52.425  1.00  0.00     0.070 C 
HETATM   14  N2  UNL     1      27.955  -0.772  54.190  1.00  0.00    -0.247 NA
HETATM   15  C16 UNL     1      28.184   0.455  54.706  1.00  0.00     0.235 A 
HETATM   16  N3  UNL     1      27.779   1.559  54.026  1.00  0.00    -0.224 NA
ENDBRANCH   8  10
ENDBRANCH   4   8
BRANCH   1  17
HETATM   17  O1  UNL     1      21.527   3.216  50.291  1.00  0.00    -0.344 OA
BRANCH  17  18
HETATM   18  C7  UNL     1      20.436   2.388  50.590  1.00  0.00     0.203 C 
BRANCH  18  19
HETATM   19  C6  UNL     1      20.679   0.948  50.473  1.00  0.00    -0.000 C 
HETATM   20  C5  UNL     1      20.750   0.213  51.603  1.00  0.00    -0.002 C 
BRANCH  20  21
HETATM   21  C4  UNL     1      20.700   0.112  53.069  1.00  0.00    -0.004 C 
HETATM   22  C3  UNL     1      21.179  -0.180  54.278  1.00  0.00    -0.021 C 
BRANCH  22  23
HETATM   23  C2  UNL     1      22.521  -0.707  54.103  1.00  0.00     0.034 C 
HETATM   24  C1  UNL     1      23.821  -0.561  54.054  1.00  0.00    -0.008 C 
ENDBRANCH  22  23
ENDBRANCH  20  21
ENDBRANCH  18  19
ENDBRANCH  17  18
ENDBRANCH   1  17
TORSDOF 7
ENDMDL
MODEL 2
REMARK VINA RESULT:      -7.0      1.472      2.074
REMARK  7 active torsions:
REMARK  status: ('A' for Active; 'I' for Inactive)
REMARK    1  A    between atoms: C2_2  and  C3_3 
REMARK    2  A    between atoms: C4_4  and  C5_5 
REMARK    3  A    between atoms: C6_6  and  C7_7 
REMARK    4  A    between atoms: C7_7  and  O1_8 
REMARK    5  A    between atoms: O1_8  and  C8_9 
REMARK    6  A    between atoms: C11_12  and  N1_13 
REMARK    7  A    between atoms: N1_13  and  C12_14 
ROOT
HETATM    1  C8  UNL     1      23.908   3.956  49.617  1.00  0.00     0.107 A 
HETATM    2  C9  UNL     1      25.183   3.718  49.174  1.00  0.00     0.042 A 
HETATM    3  C10 UNL     1      26.160   3.289  50.015  1.00  0.00     0.032 A 
HETATM    4  C11 UNL     1      25.980   3.055  51.349  1.00  0.00     0.036 A 
HETATM    5  C17 UNL     1      24.689   3.290  51.817  1.00  0.00     0.074 A 
HETATM    6  C18 UNL     1      23.662   3.732  50.981  1.00  0.00     0.151 A 
HETATM    7  F1  UNL     1      22.490   3.892  51.644  1.00  0.00    -0.203 F 
ENDROOT
BRANCH   4   8
HETATM    8  N1  UNL     1      27.025   2.619  52.207  1.00  0.00    -0.341 N 
HETATM    9  H12 UNL     1      27.841   3.258  52.319  1.00  0.00     0.167 HD
BRANCH   8  10
HETATM   10  C12 UNL     1      26.881   1.348  52.843  1.00  0.00     0.131 A 
HETATM   11  C13 UNL     1      26.926   0.122  52.201  1.00  0.00     0.077 A 
HETATM   12  C14 UNL     1      26.758  -1.013  52.988  1.00  0.00     0.035 A 
HETATM   13  C15 UNL     1      26.811  -2.331  52.298  1.00  0.00     0.070 C 
HETATM   14  N2  UNL     1      26.564  -0.882  54.313  1.00  0.00    -0.247 NA
HETATM   15  C16 UNL     1      26.523   0.322  54.923  1.00  0.00     0.235 A 
HETATM   16  N3  UNL     1      26.682   1.455  54.192  1.00  0.00    -0.224 NA
ENDBRANCH   8  10
ENDBRANCH   4   8
BRANCH   1  17
HETATM   17  O1  UNL     1      22.742   4.383  49.022  1.00  0.00    -0.344 OA
BRANCH  17  18
HETATM   18  C7  UNL     1      21.745   3.472  48.646  1.00  0.00     0.203 C 
BRANCH  18  19
HETATM   19  C6  UNL     1      22.203   2.111  48.356  1.00  0.00    -0.000 C 
HETATM   20  C5  UNL     1      21.830   1.115  49.186  1.00  0.00    -0.002 C 
BRANCH  20  21
HETATM   21  C4  UNL     1      21.108   0.645  50.378  1.00  0.00    -0.004 C 
HETATM   22  C3  UNL     1      20.988   0.289  51.656  1.00  0.00    -0.021 C 
BRANCH  22  23
HETATM   23  C2  UNL     1      22.296   0.424  52.275  1.00  0.00     0.034 C 
HETATM   24  C1  UNL     1      23.197   0.072  53.156  1.00  0.00    -0.008 C 
ENDBRANCH  22  23
ENDBRANCH  20  21
ENDBRANCH  18  19
ENDBRANCH  17  18
ENDBRANCH   1  17
TORSDOF 7
ENDMDL
MODEL 3
REMARK VINA RESULT:      -7.0      3.723      6.404
REMARK  7 active torsions:
REMARK  status: ('A' for Active; 'I' for Inactive)
REMARK    1  A    between atoms: C2_2  and  C3_3 
REMARK    2  A    between atoms: C4_4  and  C5_5 
REMARK    3  A    between atoms: C6_6  and  C7_7 
REMARK    4  A    between atoms: C7_7  and  O1_8 
REMARK    5  A    between atoms: O1_8  and  C8_9 
REMARK    6  A    between atoms: C11_12  and  N1_13 
REMARK    7  A    between atoms: N1_13  and  C12_14 
ROOT
HETATM    1  C8  UNL     1      25.895   2.134  53.465  1.00  0.00     0.107 A 
HETATM    2  C9  UNL     1      24.700   2.703  53.110  1.00  0.00     0.042 A 
HETATM    3  C10 UNL     1      24.522   3.280  51.893  1.00  0.00     0.032 A 
HETATM    4  C11 UNL     1      25.483   3.353  50.926  1.00  0.00     0.036 A 
HETATM    5  C17 UNL     1      26.704   2.778  51.268  1.00  0.00     0.074 A 
HETATM    6  C18 UNL     1      26.923   2.176  52.509  1.00  0.00     0.151 A 
HETATM    7  F1  UNL     1      28.180   1.681  52.628  1.00  0.00    -0.203 F 
ENDROOT
BRANCH   4   8
HETATM    8  N1  UNL     1      25.270   3.976  49.666  1.00  0.00    -0.341 N 
HETATM    9  H12 UNL     1      24.596   3.512  49.019  1.00  0.00     0.167 HD
BRANCH   8  10
HETATM   10  C12 UNL     1      25.991   5.176  49.383  1.00  0.00     0.131 A 
HETATM   11  C13 UNL     1      27.153   5.254  48.633  1.00  0.00     0.077 A 
HETATM   12  C14 UNL     1      27.719   6.513  48.470  1.00  0.00     0.035 A 
HETATM   13  C15 UNL     1      28.965   6.597  47.660  1.00  0.00     0.070 C 
HETATM   14  N2  UNL     1      27.132   7.586  49.031  1.00  0.00    -0.247 NA
HETATM   15  C16 UNL     1      25.999   7.492  49.760  1.00  0.00     0.235 A 
HETATM   16  N3  UNL     1      25.413   6.281  49.944  1.00  0.00    -0.224 NA
ENDBRANCH   8  10
ENDBRANCH   4   8
BRANCH   1  17
HETATM   17  O1  UNL     1      26.365   1.493  54.590  1.00  0.00    -0.344 OA
BRANCH  17  18
HETATM   18  C7  UNL     1      26.293   0.099  54.712  1.00  0.00     0.203 C 
BRANCH  18  19
HETATM   19  C6  UNL     1      25.638  -0.604  53.606  1.00  0.00    -0.000 C 
HETATM   20  C5  UNL     1      26.326  -1.568  52.959  1.00  0.00    -0.002 C 
BRANCH  20  21
HETATM   21  C4  UNL     1      27.546  -2.368  52.779  1.00  0.00    -0.004 C 
HETATM   22  C3  UNL     1      28.848  -2.628  52.888  1.00  0.00    -0.021 C 
BRANCH  22  23
HETATM   23  C2  UNL     1      29.465  -1.504  53.570  1.00  0.00     0.034 C 
HETATM   24  C1  UNL     1      30.090  -0.354  53.566  1.00  0.00    -0.008 C 
ENDBRANCH  22  23
ENDBRANCH  20  21
ENDBRANCH  18  19
ENDBRANCH  17  18
ENDBRANCH   1  17
TORSDOF 7
ENDMDL
MODEL 4
REMARK VINA RESULT:      -6.7      1.787      3.968
REMARK  7 active torsions:
REMARK  status: ('A' for Active; 'I' for Inactive)
REMARK    1  A    between atoms: C2_2  and  C3_3 
REMARK    2  A    between atoms: C4_4  and  C5_5 
REMARK    3  A    between atoms: C6_6  and  C7_7 
REMARK    4  A    between atoms: C7_7  and  O1_8 
REMARK    5  A    between atoms: O1_8  and  C8_9 
REMARK    6  A    between atoms: C11_12  and  N1_13 
REMARK    7  A    between atoms: N1_13  and  C12_14 
ROOT
HETATM    1  C8  UNL     1      21.810   1.137  51.789  1.00  0.00     0.107 A 
HETATM    2  C9  UNL     1      21.699  -0.145  52.259  1.00  0.00     0.042 A 
HETATM    3  C10 UNL     1      22.622  -0.674  53.104  1.00  0.00     0.032 A 
HETATM    4  C11 UNL     1      23.722  -0.006  53.560  1.00  0.00     0.036 A 
HETATM    5  C17 UNL     1      23.850   1.300  53.094  1.00  0.00     0.074 A 
HETATM    6  C18 UNL     1      22.922   1.876  52.225  1.00  0.00     0.151 A 
HETATM    7  F1  UNL     1      23.241   3.153  51.902  1.00  0.00    -0.203 F 
ENDROOT
BRANCH   4   8
HETATM    8  N1  UNL     1      24.678  -0.591  54.434  1.00  0.00    -0.341 N 
HETATM    9  H12 UNL     1      24.311  -1.045  55.298  1.00  0.00     0.167 HD
BRANCH   8  10
HETATM   10  C12 UNL     1      26.057  -0.511  54.069  1.00  0.00     0.131 A 
HETATM   11  C13 UNL     1      26.938   0.475  54.481  1.00  0.00     0.077 A 
HETATM   12  C14 UNL     1      28.245   0.392  54.016  1.00  0.00     0.035 A 
HETATM   13  C15 UNL     1      29.193   1.449  54.463  1.00  0.00     0.070 C 
HETATM   14  N2  UNL     1      28.600  -0.618  53.201  1.00  0.00    -0.247 NA
HETATM   15  C16 UNL     1      27.728  -1.572  52.808  1.00  0.00     0.235 A 
HETATM   16  N3  UNL     1      26.440  -1.528  53.240  1.00  0.00    -0.224 NA
ENDBRANCH   8  10
ENDBRANCH   4   8
BRANCH   1  17
HETATM   17  O1  UNL     1      21.058   1.927  50.948  1.00  0.00    -0.344 OA
BRANCH  17  18
HETATM   18  C7  UNL     1      20.591   1.437  49.720  1.00  0.00     0.203 C 
BRANCH  18  19
HETATM   19  C6  UNL     1      21.616   1.178  48.706  1.00  0.00    -0.000 C 
HETATM   20  C5  UNL     1      22.515   2.148  48.436  1.00  0.00    -0.002 C 
BRANCH  20  21
HETATM   21  C4  UNL     1      23.052   3.496  48.672  1.00  0.00    -0.004 C 
HETATM   22  C3  UNL     1      23.990   4.382  49.004  1.00  0.00    -0.021 C 
BRANCH  22  23
HETATM   23  C2  UNL     1      25.197   3.644  49.331  1.00  0.00     0.034 C 
HETATM   24  C1  UNL     1      26.389   3.559  49.866  1.00  0.00    -0.008 C 
ENDBRANCH  22  23
ENDBRANCH  20  21
ENDBRANCH  18  19
ENDBRANCH  17  18
ENDBRANCH   1  17
TORSDOF 7
ENDMDL
MODEL 5
REMARK VINA RESULT:      -6.6      2.928      5.112
REMARK  7 active torsions:
REMARK  status: ('A' for Active; 'I' for Inactive)
REMARK    1  A    between atoms: C2_2  and  C3_3 
REMARK    2  A    between atoms: C4_4  and  C5_5 
REMARK    3  A    between atoms: C6_6  and  C7_7 
REMARK    4  A    between atoms: C7_7  and  O1_8 
REMARK    5  A    between atoms: O1_8  and  C8_9 
REMARK    6  A    between atoms: C11_12  and  N1_13 
REMARK    7  A    between atoms: N1_13  and  C12_14 
ROOT
HETATM    1  C8  UNL     1      23.386   3.439  50.074  1.00  0.00     0.107 A 
HETATM    2  C9  UNL     1      22.875   2.181  49.893  1.00  0.00     0.042 A 
HETATM    3  C10 UNL     1      21.974   1.649  50.759  1.00  0.00     0.032 A 
HETATM    4  C11 UNL     1      21.498   2.290  51.867  1.00  0.00     0.036 A 
HETATM    5  C17 UNL     1      22.005   3.572  52.066  1.00  0.00     0.074 A 
HETATM    6  C18 UNL     1      22.932   4.150  51.197  1.00  0.00     0.151 A 
HETATM    7  F1  UNL     1      23.288   5.401  51.580  1.00  0.00    -0.203 F 
ENDROOT
BRANCH   4   8
HETATM    8  N1  UNL     1      20.565   1.702  52.762  1.00  0.00    -0.341 N 
HETATM    9  H12 UNL     1      19.647   2.184  52.871  1.00  0.00     0.167 HD
BRANCH   8  10
HETATM   10  C12 UNL     1      20.952   0.506  53.442  1.00  0.00     0.131 A 
HETATM   11  C13 UNL     1      22.198   0.270  53.998  1.00  0.00     0.077 A 
HETATM   12  C14 UNL     1      22.394  -0.961  54.616  1.00  0.00     0.035 A 
HETATM   13  C15 UNL     1      23.733  -1.212  55.217  1.00  0.00     0.070 C 
HETATM   14  N2  UNL     1      21.390  -1.856  54.652  1.00  0.00    -0.247 NA
HETATM   15  C16 UNL     1      20.180  -1.609  54.105  1.00  0.00     0.235 A 
HETATM   16  N3  UNL     1      19.947  -0.419  53.491  1.00  0.00    -0.224 NA
ENDBRANCH   8  10
ENDBRANCH   4   8
BRANCH   1  17
HETATM   17  O1  UNL     1      24.286   4.226  49.388  1.00  0.00    -0.344 OA
BRANCH  17  18
HETATM   18  C7  UNL     1      25.564   4.482  49.905  1.00  0.00     0.203 C 
BRANCH  18  19
HETATM   19  C6  UNL     1      26.525   3.382  49.799  1.00  0.00    -0.000 C 
HETATM   20  C5  UNL     1      26.523   2.430  50.755  1.00  0.00    -0.002 C 
BRANCH  20  21
HETATM   21  C4  UNL     1      25.979   1.868  52.000  1.00  0.00    -0.004 C 
HETATM   22  C3  UNL     1      25.755   0.908  52.897  1.00  0.00    -0.021 C 
BRANCH  22  23
HETATM   23  C2  UNL     1      26.398  -0.302  52.416  1.00  0.00     0.034 C 
HETATM   24  C1  UNL     1      26.701  -1.570  52.527  1.00  0.00    -0.008 C 
ENDBRANCH  22  23
ENDBRANCH  20  21
ENDBRANCH  18  19
ENDBRANCH  17  18
ENDBRANCH   1  17
TORSDOF 7
ENDMDL
MODEL 6
REMARK VINA RESULT:      -6.4      2.559      4.646
REMARK  7 active torsions:
REMARK  status: ('A' for Active; 'I' for Inactive)
REMARK    1  A    between atoms: C2_2  and  C3_3 
REMARK    2  A    between atoms: C4_4  and  C5_5 
REMARK    3  A    between atoms: C6_6  and  C7_7 
REMARK    4  A    between atoms: C7_7  and  O1_8 
REMARK    5  A    between atoms: O1_8  and  C8_9 
REMARK    6  A    between atoms: C11_12  and  N1_13 
REMARK    7  A    between atoms: N1_13  and  C12_14 
ROOT
HETATM    1  C8  UNL     1      23.438   3.807  49.901  1.00  0.00     0.107 A 
HETATM    2  C9  UNL     1      24.647   3.627  49.283  1.00  0.00     0.042 A 
HETATM    3  C10 UNL     1      25.751   3.246  49.979  1.00  0.00     0.032 A 
HETATM    4  C11 UNL     1      25.770   3.010  51.324  1.00  0.00     0.036 A 
HETATM    5  C17 UNL     1      24.548   3.187  51.968  1.00  0.00     0.074 A 
HETATM    6  C18 UNL     1      23.395   3.577  51.286  1.00  0.00     0.151 A 
HETATM    7  F1  UNL     1      22.322   3.686  52.107  1.00  0.00    -0.203 F 
ENDROOT
BRANCH   4   8
HETATM    8  N1  UNL     1      26.944   2.626  52.026  1.00  0.00    -0.341 N 
HETATM    9  H12 UNL     1      27.752   3.284  51.990  1.00  0.00     0.167 HD
BRANCH   8  10
HETATM   10  C12 UNL     1      26.930   1.377  52.720  1.00  0.00     0.131 A 
HETATM   11  C13 UNL     1      26.884   0.129  52.121  1.00  0.00     0.077 A 
HETATM   12  C14 UNL     1      26.869  -0.978  52.962  1.00  0.00     0.035 A 
HETATM   13  C15 UNL     1      26.824  -2.319  52.317  1.00  0.00     0.070 C 
HETATM   14  N2  UNL     1      26.901  -0.803  54.296  1.00  0.00    -0.247 NA
HETATM   15  C16 UNL     1      26.946   0.422  54.864  1.00  0.00     0.235 A 
HETATM   16  N3  UNL     1      26.961   1.530  54.078  1.00  0.00    -0.224 NA
ENDBRANCH   8  10
ENDBRANCH   4   8
BRANCH   1  17
HETATM   17  O1  UNL     1      22.181   4.178  49.476  1.00  0.00    -0.344 OA
BRANCH  17  18
HETATM   18  C7  UNL     1      21.942   5.455  48.951  1.00  0.00     0.203 C 
BRANCH  18  19
HETATM   19  C6  UNL     1      21.581   6.487  49.926  1.00  0.00    -0.000 C 
HETATM   20  C5  UNL     1      22.570   7.113  50.599  1.00  0.00    -0.002 C 
BRANCH  20  21
HETATM   21  C4  UNL     1      23.999   7.308  50.883  1.00  0.00    -0.004 C 
HETATM   22  C3  UNL     1      25.294   7.380  50.577  1.00  0.00    -0.021 C 
BRANCH  22  23
HETATM   23  C2  UNL     1      25.423   7.128  49.152  1.00  0.00     0.034 C 
HETATM   24  C1  UNL     1      25.030   7.278  47.913  1.00  0.00    -0.008 C 
ENDBRANCH  22  23
ENDBRANCH  20  21
ENDBRANCH  18  19
ENDBRANCH  17  18
ENDBRANCH   1  17
TORSDOF 7
ENDMDL
MODEL 7
REMARK VINA RESULT:      -6.4      3.288      5.517
REMARK  7 active torsions:
REMARK  status: ('A' for Active; 'I' for Inactive)
REMARK    1  A    between atoms: C2_2  and  C3_3 
REMARK    2  A    between atoms: C4_4  and  C5_5 
REMARK    3  A    between atoms: C6_6  and  C7_7 
REMARK    4  A    between atoms: C7_7  and  O1_8 
REMARK    5  A    between atoms: O1_8  and  C8_9 
REMARK    6  A    between atoms: C11_12  and  N1_13 
REMARK    7  A    between atoms: N1_13  and  C12_14 
ROOT
HETATM    1  C8  UNL     1      25.094   1.872  52.959  1.00  0.00     0.107 A 
HETATM    2  C9  UNL     1      24.073   2.784  52.920  1.00  0.00     0.042 A 
HETATM    3  C10 UNL     1      23.906   3.619  51.861  1.00  0.00     0.032 A 
HETATM    4  C11 UNL     1      24.711   3.637  50.759  1.00  0.00     0.036 A 
HETATM    5  C17 UNL     1      25.754   2.714  50.780  1.00  0.00     0.074 A 
HETATM    6  C18 UNL     1      25.957   1.841  51.851  1.00  0.00     0.151 A 
HETATM    7  F1  UNL     1      27.026   1.031  51.661  1.00  0.00    -0.203 F 
ENDROOT
BRANCH   4   8
HETATM    8  N1  UNL     1      24.519   4.531  49.672  1.00  0.00    -0.341 N 
HETATM    9  H12 UNL     1      23.699   4.352  49.054  1.00  0.00     0.167 HD
BRANCH   8  10
HETATM   10  C12 UNL     1      25.456   5.597  49.508  1.00  0.00     0.131 A 
HETATM   11  C13 UNL     1      26.586   5.553  48.709  1.00  0.00     0.077 A 
HETATM   12  C14 UNL     1      27.387   6.689  48.681  1.00  0.00     0.035 A 
HETATM   13  C15 UNL     1      28.600   6.643  47.818  1.00  0.00     0.070 C 
HETATM   14  N2  UNL     1      27.044   7.766  49.412  1.00  0.00    -0.247 NA
HETATM   15  C16 UNL     1      25.938   7.792  50.186  1.00  0.00     0.235 A 
HETATM   16  N3  UNL     1      25.128   6.703  50.243  1.00  0.00    -0.224 NA
ENDBRANCH   8  10
ENDBRANCH   4   8
BRANCH   1  17
HETATM   17  O1  UNL     1      25.508   0.922  53.867  1.00  0.00    -0.344 OA
BRANCH  17  18
HETATM   18  C7  UNL     1      25.112  -0.417  53.745  1.00  0.00     0.203 C 
BRANCH  18  19
HETATM   19  C6  UNL     1      24.678  -1.068  54.984  1.00  0.00    -0.000 C 
HETATM   20  C5  UNL     1      23.358  -1.112  55.260  1.00  0.00    -0.002 C 
BRANCH  20  21
HETATM   21  C4  UNL     1      21.965  -0.801  54.906  1.00  0.00    -0.004 C 
HETATM   22  C3  UNL     1      20.975  -0.457  54.083  1.00  0.00    -0.021 C 
BRANCH  22  23
HETATM   23  C2  UNL     1      21.547  -0.269  52.762  1.00  0.00     0.034 C 
HETATM   24  C1  UNL     1      21.596   0.335  51.601  1.00  0.00    -0.008 C 
ENDBRANCH  22  23
ENDBRANCH  20  21
ENDBRANCH  18  19
ENDBRANCH  17  18
ENDBRANCH   1  17
TORSDOF 7
ENDMDL
MODEL 8
REMARK VINA RESULT:      -6.4      4.254      6.940
REMARK  7 active torsions:
REMARK  status: ('A' for Active; 'I' for Inactive)
REMARK    1  A    between atoms: C2_2  and  C3_3 
REMARK    2  A    between atoms: C4_4  and  C5_5 
REMARK    3  A    between atoms: C6_6  and  C7_7 
REMARK    4  A    between atoms: C7_7  and  O1_8 
REMARK    5  A    between atoms: O1_8  and  C8_9 
REMARK    6  A    between atoms: C11_12  and  N1_13 
REMARK    7  A    between atoms: N1_13  and  C12_14 
ROOT
HETATM    1  C8  UNL     1      25.433   2.966  50.551  1.00  0.00     0.107 A 
HETATM    2  C9  UNL     1      26.568   3.266  49.845  1.00  0.00     0.042 A 
HETATM    3  C10 UNL     1      26.688   4.429  49.152  1.00  0.00     0.032 A 
HETATM    4  C11 UNL     1      25.720   5.391  49.088  1.00  0.00     0.036 A 
HETATM    5  C17 UNL     1      24.560   5.104  49.802  1.00  0.00     0.074 A 
HETATM    6  C18 UNL     1      24.402   3.919  50.524  1.00  0.00     0.151 A 
HETATM    7  F1  UNL     1      23.198   3.849  51.143  1.00  0.00    -0.203 F 
ENDROOT
BRANCH   4   8
HETATM    8  N1  UNL     1      25.870   6.592  48.344  1.00  0.00    -0.341 N 
HETATM    9  H12 UNL     1      25.222   6.731  47.539  1.00  0.00     0.167 HD
BRANCH   8  10
HETATM   10  C12 UNL     1      26.888   7.508  48.749  1.00  0.00     0.131 A 
HETATM   11  C13 UNL     1      28.156   7.590  48.198  1.00  0.00     0.077 A 
HETATM   12  C14 UNL     1      29.018   8.543  48.729  1.00  0.00     0.035 A 
HETATM   13  C15 UNL     1      30.380   8.633  48.134  1.00  0.00     0.070 C 
HETATM   14  N2  UNL     1      28.600   9.334  49.734  1.00  0.00    -0.247 NA
HETATM   15  C16 UNL     1      27.359   9.241  50.259  1.00  0.00     0.235 A 
HETATM   16  N3  UNL     1      26.485   8.323  49.770  1.00  0.00    -0.224 NA
ENDBRANCH   8  10
ENDBRANCH   4   8
BRANCH   1  17
HETATM   17  O1  UNL     1      25.029   1.901  51.326  1.00  0.00    -0.344 OA
BRANCH  17  18
HETATM   18  C7  UNL     1      25.831   1.419  52.369  1.00  0.00     0.203 C 
BRANCH  18  19
HETATM   19  C6  UNL     1      25.713  -0.013  52.654  1.00  0.00    -0.000 C 
HETATM   20  C5  UNL     1      26.827  -0.697  52.990  1.00  0.00    -0.002 C 
BRANCH  20  21
HETATM   21  C4  UNL     1      28.273  -0.739  53.247  1.00  0.00    -0.004 C 
HETATM   22  C3  UNL     1      29.449  -0.241  53.629  1.00  0.00    -0.021 C 
BRANCH  22  23
HETATM   23  C2  UNL     1      29.231   1.136  54.036  1.00  0.00     0.034 C 
HETATM   24  C1  UNL     1      28.887   2.373  53.783  1.00  0.00    -0.008 C 
ENDBRANCH  22  23
ENDBRANCH  20  21
ENDBRANCH  18  19
ENDBRANCH  17  18
ENDBRANCH   1  17
TORSDOF 7
ENDMDL
MODEL 9
REMARK VINA RESULT:      -6.3      2.339      4.380
REMARK  7 active torsions:
REMARK  status: ('A' for Active; 'I' for Inactive)
REMARK    1  A    between atoms: C2_2  and  C3_3 
REMARK    2  A    between atoms: C4_4  and  C5_5 
REMARK    3  A    between atoms: C6_6  and  C7_7 
REMARK    4  A    between atoms: C7_7  and  O1_8 
REMARK    5  A    between atoms: O1_8  and  C8_9 
REMARK    6  A    between atoms: C11_12  and  N1_13 
REMARK    7  A    between atoms: N1_13  and  C12_14 
ROOT
HETATM    1  C8  UNL     1      24.080   4.192  50.981  1.00  0.00     0.107 A 
HETATM    2  C9  UNL     1      23.694   4.051  52.288  1.00  0.00     0.042 A 
HETATM    3  C10 UNL     1      23.970   2.921  52.992  1.00  0.00     0.032 A 
HETATM    4  C11 UNL     1      24.639   1.843  52.488  1.00  0.00     0.036 A 
HETATM    5  C17 UNL     1      25.041   1.970  51.161  1.00  0.00     0.074 A 
HETATM    6  C18 UNL     1      24.775   3.115  50.407  1.00  0.00     0.151 A 
HETATM    7  F1  UNL     1      25.257   3.025  49.144  1.00  0.00    -0.203 F 
ENDROOT
BRANCH   4   8
HETATM    8  N1  UNL     1      24.901   0.670  53.246  1.00  0.00    -0.341 N 
HETATM    9  H12 UNL     1      25.901   0.393  53.354  1.00  0.00     0.167 HD
BRANCH   8  10
HETATM   10  C12 UNL     1      23.787  -0.036  53.794  1.00  0.00     0.131 A 
HETATM   11  C13 UNL     1      22.478   0.067  53.351  1.00  0.00     0.077 A 
HETATM   12  C14 UNL     1      21.523  -0.695  54.014  1.00  0.00     0.035 A 
HETATM   13  C15 UNL     1      20.118  -0.588  53.535  1.00  0.00     0.070 C 
HETATM   14  N2  UNL     1      21.894  -1.486  55.038  1.00  0.00    -0.247 NA
HETATM   15  C16 UNL     1      23.175  -1.574  55.457  1.00  0.00     0.235 A 
HETATM   16  N3  UNL     1      24.140  -0.847  54.836  1.00  0.00    -0.224 NA
ENDBRANCH   8  10
ENDBRANCH   4   8
BRANCH   1  17
HETATM   17  O1  UNL     1      23.949   5.186  50.036  1.00  0.00    -0.344 OA
BRANCH  17  18
HETATM   18  C7  UNL     1      22.713   5.452  49.432  1.00  0.00     0.203 C 
BRANCH  18  19
HETATM   19  C6  UNL     1      22.625   5.147  48.001  1.00  0.00    -0.000 C 
HETATM   20  C5  UNL     1      22.388   3.872  47.628  1.00  0.00    -0.002 C 
BRANCH  20  21
HETATM   21  C4  UNL     1      22.144   2.463  47.969  1.00  0.00    -0.004 C 
HETATM   22  C3  UNL     1      21.760   1.459  48.756  1.00  0.00    -0.021 C 
BRANCH  22  23
HETATM   23  C2  UNL     1      21.322   2.031  50.017  1.00  0.00     0.034 C 
HETATM   24  C1  UNL     1      20.504   2.764  50.729  1.00  0.00    -0.008 C 
ENDBRANCH  22  23
ENDBRANCH  20  21
ENDBRANCH  18  19
ENDBRANCH  17  18
ENDBRANCH   1  17
TORSDOF 7
ENDMDL
