MODEL 1
REMARK VINA RESULT:      -8.4      0.000      0.000
REMARK  4 active torsions:
REMARK  status: ('A' for Active; 'I' for Inactive)
REMARK    1  A    between atoms: O1_2  and  C2_3 
REMARK    2  A    between atoms: C2_3  and  C3_4 
REMARK    3  A    between atoms: C4_5  and  C5_6 
REMARK    4  A    between atoms: C9_11  and  O2_12 
ROOT
HETATM    1  C5  UNL     1      23.936  -0.530  54.033  1.00  0.00     0.092 A 
HETATM    2  N1  UNL     1      23.531   0.128  52.935  1.00  0.00    -0.226 NA
HETATM    3  C6  UNL     1      22.260   0.297  52.535  1.00  0.00     0.161 A 
HETATM    4  C7  UNL     1      21.249  -0.240  53.297  1.00  0.00     0.015 A 
HETATM    5  C8  UNL     1      21.655  -0.916  54.426  1.00  0.00     0.054 A 
HETATM    6  C9  UNL     1      22.951  -1.093  54.840  1.00  0.00     0.095 A 
HETATM    7  C10 UNL     1      19.932  -0.256  53.197  1.00  0.00     0.027 C 
HETATM    8  C11 UNL     1      19.074   0.313  52.201  1.00  0.00    -0.033 A 
HETATM    9  C12 UNL     1      18.230  -0.439  51.412  1.00  0.00     0.011 A 
HETATM   10  C13 UNL     1      17.447   0.113  50.426  1.00  0.00     0.003 A 
HETATM   11  C14 UNL     1      17.528   1.475  50.237  1.00  0.00     0.030 A 
HETATM   12  C15 UNL     1      18.376   2.210  51.032  1.00  0.00     0.042 A 
HETATM   13  C16 UNL     1      19.167   1.677  52.029  1.00  0.00     0.041 A 
HETATM   14  N2  UNL     1      18.557   3.628  50.821  1.00  0.00    -0.307 N 
HETATM   15  C17 UNL     1      17.277   4.165  51.171  1.00  0.00     0.166 C 
HETATM   16  S1  UNL     1      20.230   3.841  50.251  1.00  0.00     0.095 SA
HETATM   17  N3  UNL     1      21.325   2.694  51.000  1.00  0.00    -0.188 NA
HETATM   18  C18 UNL     1      21.528   1.479  50.555  1.00  0.00     0.246 C 
HETATM   19  N4  UNL     1      22.451   0.975  51.459  1.00  0.00    -0.221 NA
ENDROOT
BRANCH   1  20
HETATM   20  C4  UNL     1      25.343  -0.706  54.459  1.00  0.00     0.032 C 
HETATM   21  C3  UNL     1      26.181   0.313  54.358  1.00  0.00     0.002 C 
BRANCH  21  22
HETATM   22  C2  UNL     1      27.595   0.153  54.779  1.00  0.00     0.194 C 
BRANCH  22  23
HETATM   23  O1  UNL     1      28.232  -0.932  54.226  1.00  0.00    -0.392 OA
HETATM   24  C1  UNL     1      29.521  -0.587  53.879  1.00  0.00     0.201 C 
ENDBRANCH  22  23
ENDBRANCH  21  22
ENDBRANCH   1  20
BRANCH   6  25
HETATM   25  O2  UNL     1      23.336  -1.778  55.980  1.00  0.00    -0.358 OA
HETATM   26  H9  UNL     1      24.121  -2.414  55.940  1.00  0.00     0.217 HD
ENDBRANCH   6  25
TORSDOF 4
ENDMDL
MODEL 2
REMARK VINA RESULT:      -7.9      4.097      6.198
REMARK  4 active torsions:
REMARK  status: ('A' for Active; 'I' for Inactive)
REMARK    1  A    between atoms: O1_2  and  C2_3 
REMARK    2  A    between atoms: C2_3  and  C3_4 
REMARK    3  A    between atoms: C4_5  and  C5_6 
REMARK    4  A    between atoms: C9_11  and  O2_12 
ROOT
HETATM    1  C5  UNL     1      25.191   0.988  53.035  1.00  0.00     0.092 A 
HETATM    2  N1  UNL     1      24.528   2.142  52.853  1.00  0.00    -0.226 NA
HETATM    3  C6  UNL     1      24.726   3.022  51.858  1.00  0.00     0.161 A 
HETATM    4  C7  UNL     1      25.691   2.750  50.916  1.00  0.00     0.015 A 
HETATM    5  C8  UNL     1      26.375   1.569  51.095  1.00  0.00     0.054 A 
HETATM    6  C9  UNL     1      26.178   0.665  52.108  1.00  0.00     0.095 A 
HETATM    7  C10 UNL     1      26.128   3.380  49.840  1.00  0.00     0.027 C 
HETATM    8  C11 UNL     1      25.717   4.627  49.268  1.00  0.00    -0.033 A 
HETATM    9  C12 UNL     1      26.561   5.707  49.126  1.00  0.00     0.011 A 
HETATM   10  C13 UNL     1      26.141   6.916  48.620  1.00  0.00     0.003 A 
HETATM   11  C14 UNL     1      24.819   7.026  48.250  1.00  0.00     0.030 A 
HETATM   12  C15 UNL     1      23.990   5.938  48.400  1.00  0.00     0.042 A 
HETATM   13  C16 UNL     1      24.392   4.718  48.901  1.00  0.00     0.041 A 
HETATM   14  N2  UNL     1      22.580   6.027  48.103  1.00  0.00    -0.307 N 
HETATM   15  C17 UNL     1      22.567   6.219  46.684  1.00  0.00     0.166 C 
HETATM   16  S1  UNL     1      21.727   5.860  49.657  1.00  0.00     0.095 SA
HETATM   17  N3  UNL     1      22.554   4.754  50.738  1.00  0.00    -0.188 NA
HETATM   18  C18 UNL     1      23.537   5.103  51.530  1.00  0.00     0.246 C 
HETATM   19  N4  UNL     1      23.851   3.912  52.167  1.00  0.00    -0.221 NA
ENDROOT
BRANCH   1  20
HETATM   20  C4  UNL     1      24.958   0.029  54.138  1.00  0.00     0.032 C 
HETATM   21  C3  UNL     1      23.764  -0.525  54.272  1.00  0.00     0.002 C 
BRANCH  21  22
HETATM   22  C2  UNL     1      23.513  -1.488  55.373  1.00  0.00     0.194 C 
BRANCH  22  23
HETATM   23  O1  UNL     1      22.228  -1.970  55.425  1.00  0.00    -0.392 OA
HETATM   24  C1  UNL     1      21.436  -1.279  54.533  1.00  0.00     0.201 C 
ENDBRANCH  22  23
ENDBRANCH  21  22
ENDBRANCH   1  20
BRANCH   6  25
HETATM   25  O2  UNL     1      26.880  -0.518  52.267  1.00  0.00    -0.358 OA
HETATM   26  H9  UNL     1      27.885  -0.523  52.150  1.00  0.00     0.217 HD
ENDBRANCH   6  25
TORSDOF 4
ENDMDL
MODEL 3
REMARK VINA RESULT:      -7.5      8.781     10.576
REMARK  4 active torsions:
REMARK  status: ('A' for Active; 'I' for Inactive)
REMARK    1  A    between atoms: O1_2  and  C2_3 
REMARK    2  A    between atoms: C2_3  and  C3_4 
REMARK    3  A    between atoms: C4_5  and  C5_6 
REMARK    4  A    between atoms: C9_11  and  O2_12 
ROOT
HETATM    1  C5  UNL     1      26.357   3.861  49.747  1.00  0.00     0.092 A 
HETATM    2  N1  UNL     1      27.572   4.166  49.264  1.00  0.00    -0.226 NA
HETATM    3  C6  UNL     1      27.900   5.279  48.588  1.00  0.00     0.161 A 
HETATM    4  C7  UNL     1      26.926   6.220  48.348  1.00  0.00     0.015 A 
HETATM    5  C8  UNL     1      25.677   5.916  48.840  1.00  0.00     0.054 A 
HETATM    6  C9  UNL     1      25.334   4.781  49.532  1.00  0.00     0.095 A 
HETATM    7  C10 UNL     1      26.910   7.391  47.736  1.00  0.00     0.027 C 
HETATM    8  C11 UNL     1      27.964   8.107  47.082  1.00  0.00    -0.033 A 
HETATM    9  C12 UNL     1      27.936   8.434  45.743  1.00  0.00     0.011 A 
HETATM   10  C13 UNL     1      28.976   9.078  45.115  1.00  0.00     0.003 A 
HETATM   11  C14 UNL     1      30.080   9.397  45.876  1.00  0.00     0.030 A 
HETATM   12  C15 UNL     1      30.091   9.062  47.210  1.00  0.00     0.042 A 
HETATM   13  C16 UNL     1      29.058   8.419  47.859  1.00  0.00     0.041 A 
HETATM   14  N2  UNL     1      31.255   9.301  48.030  1.00  0.00    -0.307 N 
HETATM   15  C17 UNL     1      31.317  10.730  48.081  1.00  0.00     0.166 C 
HETATM   16  S1  UNL     1      31.902   7.701  48.464  1.00  0.00     0.095 SA
HETATM   17  N3  UNL     1      30.625   6.519  48.688  1.00  0.00    -0.188 NA
HETATM   18  C18 UNL     1      30.088   5.830  47.713  1.00  0.00     0.246 C 
HETATM   19  N4  UNL     1      29.148   5.053  48.374  1.00  0.00    -0.221 NA
ENDROOT
BRANCH   1  20
HETATM   20  C4  UNL     1      26.013   2.628  50.491  1.00  0.00     0.032 C 
HETATM   21  C3  UNL     1      26.714   2.306  51.566  1.00  0.00     0.002 C 
BRANCH  21  22
HETATM   22  C2  UNL     1      26.383   1.072  52.323  1.00  0.00     0.194 C 
BRANCH  22  23
HETATM   23  O1  UNL     1      26.721  -0.095  51.681  1.00  0.00    -0.392 OA
HETATM   24  C1  UNL     1      26.800  -1.123  52.596  1.00  0.00     0.201 C 
ENDBRANCH  22  23
ENDBRANCH  21  22
ENDBRANCH   1  20
BRANCH   6  25
HETATM   25  O2  UNL     1      24.069   4.497  50.017  1.00  0.00    -0.358 OA
HETATM   26  H9  UNL     1      23.392   4.045  49.416  1.00  0.00     0.217 HD
ENDBRANCH   6  25
TORSDOF 4
ENDMDL
MODEL 4
REMARK VINA RESULT:      -7.4      9.803     12.628
REMARK  4 active torsions:
REMARK  status: ('A' for Active; 'I' for Inactive)
REMARK    1  A    between atoms: O1_2  and  C2_3 
REMARK    2  A    between atoms: C2_3  and  C3_4 
REMARK    3  A    between atoms: C4_5  and  C5_6 
REMARK    4  A    between atoms: C9_11  and  O2_12 
ROOT
HETATM    1  C5  UNL     1      27.325   5.175  48.828  1.00  0.00     0.092 A 
HETATM    2  N1  UNL     1      28.560   4.763  48.499  1.00  0.00    -0.226 NA
HETATM    3  C6  UNL     1      29.525   5.515  47.945  1.00  0.00     0.161 A 
HETATM    4  C7  UNL     1      29.261   6.838  47.674  1.00  0.00     0.015 A 
HETATM    5  C8  UNL     1      27.997   7.268  48.009  1.00  0.00     0.054 A 
HETATM    6  C9  UNL     1      27.006   6.506  48.575  1.00  0.00     0.095 A 
HETATM    7  C10 UNL     1      29.963   7.827  47.152  1.00  0.00     0.027 C 
HETATM    8  C11 UNL     1      31.311   7.849  46.667  1.00  0.00    -0.033 A 
HETATM    9  C12 UNL     1      31.638   8.142  45.361  1.00  0.00     0.011 A 
HETATM   10  C13 UNL     1      32.931   8.112  44.894  1.00  0.00     0.003 A 
HETATM   11  C14 UNL     1      33.922   7.769  45.789  1.00  0.00     0.030 A 
HETATM   12  C15 UNL     1      33.578   7.478  47.088  1.00  0.00     0.042 A 
HETATM   13  C16 UNL     1      32.288   7.506  47.576  1.00  0.00     0.041 A 
HETATM   14  N2  UNL     1      34.567   7.035  48.042  1.00  0.00    -0.307 N 
HETATM   15  C17 UNL     1      35.391   8.195  48.204  1.00  0.00     0.166 C 
HETATM   16  S1  UNL     1      34.177   5.341  48.422  1.00  0.00     0.095 SA
HETATM   17  N3  UNL     1      32.446   5.054  48.423  1.00  0.00    -0.188 NA
HETATM   18  C18 UNL     1      31.751   4.777  47.348  1.00  0.00     0.246 C 
HETATM   19  N4  UNL     1      30.464   4.642  47.848  1.00  0.00    -0.221 NA
ENDROOT
BRANCH   1  20
HETATM   20  C4  UNL     1      26.273   4.330  49.439  1.00  0.00     0.032 C 
HETATM   21  C3  UNL     1      26.626   3.332  50.233  1.00  0.00     0.002 C 
BRANCH  21  22
HETATM   22  C2  UNL     1      25.584   2.476  50.853  1.00  0.00     0.194 C 
BRANCH  22  23
HETATM   23  O1  UNL     1      26.073   1.507  51.695  1.00  0.00    -0.392 OA
HETATM   24  C1  UNL     1      27.165   1.994  52.380  1.00  0.00     0.201 C 
ENDBRANCH  22  23
ENDBRANCH  21  22
ENDBRANCH   1  20
BRANCH   6  25
HETATM   25  O2  UNL     1      25.740   6.961  48.902  1.00  0.00    -0.358 OA
HETATM   26  H9  UNL     1      25.088   7.200  48.166  1.00  0.00     0.217 HD
ENDBRANCH   6  25
TORSDOF 4
ENDMDL
MODEL 5
REMARK VINA RESULT:      -7.4      3.821      4.501
REMARK  4 active torsions:
REMARK  status: ('A' for Active; 'I' for Inactive)
REMARK    1  A    between atoms: O1_2  and  C2_3 
REMARK    2  A    between atoms: C2_3  and  C3_4 
REMARK    3  A    between atoms: C4_5  and  C5_6 
REMARK    4  A    between atoms: C9_11  and  O2_12 
ROOT
HETATM    1  C5  UNL     1      25.803   1.151  52.963  1.00  0.00     0.092 A 
HETATM    2  N1  UNL     1      26.049   2.074  52.019  1.00  0.00    -0.226 NA
HETATM    3  C6  UNL     1      25.172   2.530  51.109  1.00  0.00     0.161 A 
HETATM    4  C7  UNL     1      23.892   2.028  51.114  1.00  0.00     0.015 A 
HETATM    5  C8  UNL     1      23.631   1.082  52.079  1.00  0.00     0.054 A 
HETATM    6  C9  UNL     1      24.521   0.611  53.011  1.00  0.00     0.095 A 
HETATM    7  C10 UNL     1      22.814   2.253  50.384  1.00  0.00     0.027 C 
HETATM    8  C11 UNL     1      22.614   3.145  49.282  1.00  0.00    -0.033 A 
HETATM    9  C12 UNL     1      22.265   2.719  48.018  1.00  0.00     0.011 A 
HETATM   10  C13 UNL     1      22.124   3.580  46.956  1.00  0.00     0.003 A 
HETATM   11  C14 UNL     1      22.348   4.920  47.189  1.00  0.00     0.030 A 
HETATM   12  C15 UNL     1      22.696   5.328  48.455  1.00  0.00     0.042 A 
HETATM   13  C16 UNL     1      22.839   4.481  49.535  1.00  0.00     0.041 A 
HETATM   14  N2  UNL     1      23.019   6.708  48.733  1.00  0.00    -0.307 N 
HETATM   15  C17 UNL     1      21.765   7.371  48.539  1.00  0.00     0.166 C 
HETATM   16  S1  UNL     1      24.754   6.748  49.128  1.00  0.00     0.095 SA
HETATM   17  N3  UNL     1      25.260   5.307  49.991  1.00  0.00    -0.188 NA
HETATM   18  C18 UNL     1      25.612   4.190  49.405  1.00  0.00     0.246 C 
HETATM   19  N4  UNL     1      25.917   3.368  50.480  1.00  0.00    -0.221 NA
ENDROOT
BRANCH   1  20
HETATM   20  C4  UNL     1      26.783   0.660  53.959  1.00  0.00     0.032 C 
HETATM   21  C3  UNL     1      28.005   0.340  53.561  1.00  0.00     0.002 C 
BRANCH  21  22
HETATM   22  C2  UNL     1      28.998  -0.154  54.546  1.00  0.00     0.194 C 
BRANCH  22  23
HETATM   23  O1  UNL     1      29.971  -0.965  54.013  1.00  0.00    -0.392 OA
HETATM   24  C1  UNL     1      29.383  -1.996  53.311  1.00  0.00     0.201 C 
ENDBRANCH  22  23
ENDBRANCH  21  22
ENDBRANCH   1  20
BRANCH   6  25
HETATM   25  O2  UNL     1      24.236  -0.343  53.973  1.00  0.00    -0.358 OA
HETATM   26  H9  UNL     1      23.590  -0.123  54.721  1.00  0.00     0.217 HD
ENDBRANCH   6  25
TORSDOF 4
ENDMDL
MODEL 6
REMARK VINA RESULT:      -7.1      1.472      1.992
REMARK  4 active torsions:
REMARK  status: ('A' for Active; 'I' for Inactive)
REMARK    1  A    between atoms: O1_2  and  C2_3 
REMARK    2  A    between atoms: C2_3  and  C3_4 
REMARK    3  A    between atoms: C4_5  and  C5_6 
REMARK    4  A    between atoms: C9_11  and  O2_12 
ROOT
HETATM    1  C5  UNL     1      22.157  -0.262  53.412  1.00  0.00     0.092 A 
HETATM    2  N1  UNL     1      21.812   0.497  52.360  1.00  0.00    -0.226 NA
HETATM    3  C6  UNL     1      20.583   0.604  51.828  1.00  0.00     0.161 A 
HETATM    4  C7  UNL     1      19.554  -0.117  52.388  1.00  0.00     0.015 A 
HETATM    5  C8  UNL     1      19.899  -0.898  53.468  1.00  0.00     0.054 A 
HETATM    6  C9  UNL     1      21.151  -1.012  54.017  1.00  0.00     0.095 A 
HETATM    7  C10 UNL     1      18.266  -0.238  52.123  1.00  0.00     0.027 C 
HETATM    8  C11 UNL     1      17.470   0.380  51.104  1.00  0.00    -0.033 A 
HETATM    9  C12 UNL     1      16.804  -0.334  50.131  1.00  0.00     0.011 A 
HETATM   10  C13 UNL     1      16.083   0.272  49.129  1.00  0.00     0.003 A 
HETATM   11  C14 UNL     1      16.042   1.650  49.118  1.00  0.00     0.030 A 
HETATM   12  C15 UNL     1      16.714   2.345  50.095  1.00  0.00     0.042 A 
HETATM   13  C16 UNL     1      17.439   1.757  51.111  1.00  0.00     0.041 A 
HETATM   14  N2  UNL     1      16.769   3.788  50.081  1.00  0.00    -0.307 N 
HETATM   15  C17 UNL     1      15.409   4.159  50.332  1.00  0.00     0.166 C 
HETATM   16  S1  UNL     1      18.464   4.224  49.754  1.00  0.00     0.095 SA
HETATM   17  N3  UNL     1      19.582   3.090  50.489  1.00  0.00    -0.188 NA
HETATM   18  C18 UNL     1      19.958   1.967  49.929  1.00  0.00     0.246 C 
HETATM   19  N4  UNL     1      20.822   1.433  50.874  1.00  0.00    -0.221 NA
ENDROOT
BRANCH   1  20
HETATM   20  C4  UNL     1      23.518  -0.367  53.986  1.00  0.00     0.032 C 
HETATM   21  C3  UNL     1      24.564  -0.107  53.218  1.00  0.00     0.002 C 
BRANCH  21  22
HETATM   22  C2  UNL     1      25.936  -0.208  53.777  1.00  0.00     0.194 C 
BRANCH  22  23
HETATM   23  O1  UNL     1      26.466  -1.475  53.751  1.00  0.00    -0.392 OA
HETATM   24  C1  UNL     1      26.874  -1.783  52.471  1.00  0.00     0.201 C 
ENDBRANCH  22  23
ENDBRANCH  21  22
ENDBRANCH   1  20
BRANCH   6  25
HETATM   25  O2  UNL     1      21.475  -1.805  55.105  1.00  0.00    -0.358 OA
HETATM   26  H9  UNL     1      21.262  -2.794  55.084  1.00  0.00     0.217 HD
ENDBRANCH   6  25
TORSDOF 4
ENDMDL
MODEL 7
REMARK VINA RESULT:      -7.0      2.366      2.791
REMARK  4 active torsions:
REMARK  status: ('A' for Active; 'I' for Inactive)
REMARK    1  A    between atoms: O1_2  and  C2_3 
REMARK    2  A    between atoms: C2_3  and  C3_4 
REMARK    3  A    between atoms: C4_5  and  C5_6 
REMARK    4  A    between atoms: C9_11  and  O2_12 
ROOT
HETATM    1  C5  UNL     1      24.581   0.360  53.099  1.00  0.00     0.092 A 
HETATM    2  N1  UNL     1      24.621   1.240  52.086  1.00  0.00    -0.226 NA
HETATM    3  C6  UNL     1      23.565   1.712  51.403  1.00  0.00     0.161 A 
HETATM    4  C7  UNL     1      22.306   1.275  51.746  1.00  0.00     0.015 A 
HETATM    5  C8  UNL     1      22.256   0.373  52.784  1.00  0.00     0.054 A 
HETATM    6  C9  UNL     1      23.330  -0.113  53.486  1.00  0.00     0.095 A 
HETATM    7  C10 UNL     1      21.091   1.531  51.296  1.00  0.00     0.027 C 
HETATM    8  C11 UNL     1      20.659   2.399  50.241  1.00  0.00    -0.033 A 
HETATM    9  C12 UNL     1      19.990   1.952  49.123  1.00  0.00     0.011 A 
HETATM   10  C13 UNL     1      19.623   2.787  48.093  1.00  0.00     0.003 A 
HETATM   11  C14 UNL     1      19.953   4.120  48.207  1.00  0.00     0.030 A 
HETATM   12  C15 UNL     1      20.622   4.549  49.330  1.00  0.00     0.042 A 
HETATM   13  C16 UNL     1      20.995   3.729  50.374  1.00  0.00     0.041 A 
HETATM   14  N2  UNL     1      21.060   5.919  49.460  1.00  0.00    -0.307 N 
HETATM   15  C17 UNL     1      19.826   6.638  49.556  1.00  0.00     0.166 C 
HETATM   16  S1  UNL     1      22.840   5.884  49.412  1.00  0.00     0.095 SA
HETATM   17  N3  UNL     1      23.485   4.446  50.182  1.00  0.00    -0.188 NA
HETATM   18  C18 UNL     1      23.633   3.295  49.575  1.00  0.00     0.246 C 
HETATM   19  N4  UNL     1      24.163   2.492  50.574  1.00  0.00    -0.221 NA
ENDROOT
BRANCH   1  20
HETATM   20  C4  UNL     1      25.757  -0.149  53.841  1.00  0.00     0.032 C 
HETATM   21  C3  UNL     1      26.760   0.674  54.105  1.00  0.00     0.002 C 
BRANCH  21  22
HETATM   22  C2  UNL     1      27.947   0.179  54.847  1.00  0.00     0.194 C 
BRANCH  22  23
HETATM   23  O1  UNL     1      28.863   1.152  55.165  1.00  0.00    -0.392 OA
HETATM   24  C1  UNL     1      29.038   1.996  54.089  1.00  0.00     0.201 C 
ENDBRANCH  22  23
ENDBRANCH  21  22
ENDBRANCH   1  20
BRANCH   6  25
HETATM   25  O2  UNL     1      23.255  -1.022  54.528  1.00  0.00    -0.358 OA
HETATM   26  H9  UNL     1      22.799  -0.756  55.392  1.00  0.00     0.217 HD
ENDBRANCH   6  25
TORSDOF 4
ENDMDL
MODEL 8
REMARK VINA RESULT:      -6.9     11.630     14.599
REMARK  4 active torsions:
REMARK  status: ('A' for Active; 'I' for Inactive)
REMARK    1  A    between atoms: O1_2  and  C2_3 
REMARK    2  A    between atoms: C2_3  and  C3_4 
REMARK    3  A    between atoms: C4_5  and  C5_6 
REMARK    4  A    between atoms: C9_11  and  O2_12 
ROOT
HETATM    1  C5  UNL     1      29.491   8.112  48.400  1.00  0.00     0.092 A 
HETATM    2  N1  UNL     1      30.676   8.258  47.788  1.00  0.00    -0.226 NA
HETATM    3  C6  UNL     1      31.438   7.270  47.288  1.00  0.00     0.161 A 
HETATM    4  C7  UNL     1      30.992   5.973  47.394  1.00  0.00     0.015 A 
HETATM    5  C8  UNL     1      29.776   5.815  48.020  1.00  0.00     0.054 A 
HETATM    6  C9  UNL     1      28.994   6.819  48.533  1.00  0.00     0.095 A 
HETATM    7  C10 UNL     1      31.475   4.802  47.019  1.00  0.00     0.027 C 
HETATM    8  C11 UNL     1      32.695   4.480  46.340  1.00  0.00    -0.033 A 
HETATM    9  C12 UNL     1      33.676   3.683  46.888  1.00  0.00     0.011 A 
HETATM   10  C13 UNL     1      34.864   3.420  46.247  1.00  0.00     0.003 A 
HETATM   11  C14 UNL     1      35.058   3.991  45.008  1.00  0.00     0.030 A 
HETATM   12  C15 UNL     1      34.068   4.785  44.476  1.00  0.00     0.042 A 
HETATM   13  C16 UNL     1      32.869   5.057  45.101  1.00  0.00     0.041 A 
HETATM   14  N2  UNL     1      34.255   5.470  43.219  1.00  0.00    -0.307 N 
HETATM   15  C17 UNL     1      34.312   4.393  42.278  1.00  0.00     0.166 C 
HETATM   16  S1  UNL     1      34.313   7.208  43.597  1.00  0.00     0.095 SA
HETATM   17  N3  UNL     1      33.244   7.623  44.925  1.00  0.00    -0.188 NA
HETATM   18  C18 UNL     1      33.577   7.528  46.188  1.00  0.00     0.246 C 
HETATM   19  N4  UNL     1      32.428   7.955  46.836  1.00  0.00    -0.221 NA
ENDROOT
BRANCH   1  20
HETATM   20  C4  UNL     1      28.665   9.215  48.945  1.00  0.00     0.032 C 
HETATM   21  C3  UNL     1      28.116  10.084  48.111  1.00  0.00     0.002 C 
BRANCH  21  22
HETATM   22  C2  UNL     1      27.286  11.195  48.641  1.00  0.00     0.194 C 
BRANCH  22  23
HETATM   23  O1  UNL     1      27.999  12.180  49.279  1.00  0.00    -0.392 OA
HETATM   24  C1  UNL     1      27.908  13.357  48.567  1.00  0.00     0.201 C 
ENDBRANCH  22  23
ENDBRANCH  21  22
ENDBRANCH   1  20
BRANCH   6  25
HETATM   25  O2  UNL     1      27.773   6.635  49.159  1.00  0.00    -0.358 OA
HETATM   26  H9  UNL     1      27.046   7.331  49.050  1.00  0.00     0.217 HD
ENDBRANCH   6  25
TORSDOF 4
ENDMDL
MODEL 9
REMARK VINA RESULT:      -6.8      4.021      7.644
REMARK  4 active torsions:
REMARK  status: ('A' for Active; 'I' for Inactive)
REMARK    1  A    between atoms: O1_2  and  C2_3 
REMARK    2  A    between atoms: C2_3  and  C3_4 
REMARK    3  A    between atoms: C4_5  and  C5_6 
REMARK    4  A    between atoms: C9_11  and  O2_12 
ROOT
HETATM    1  C5  UNL     1      20.605   3.223  50.099  1.00  0.00     0.092 A 
HETATM    2  N1  UNL     1      21.655   3.388  50.918  1.00  0.00    -0.226 NA
HETATM    3  C6  UNL     1      22.256   2.429  51.641  1.00  0.00     0.161 A 
HETATM    4  C7  UNL     1      21.777   1.141  51.559  1.00  0.00     0.015 A 
HETATM    5  C8  UNL     1      20.700   0.964  50.721  1.00  0.00     0.054 A 
HETATM    6  C9  UNL     1      20.082   1.939  49.980  1.00  0.00     0.095 A 
HETATM    7  C10 UNL     1      22.124  -0.005  52.116  1.00  0.00     0.027 C 
HETATM    8  C11 UNL     1      23.175  -0.301  53.043  1.00  0.00    -0.033 A 
HETATM    9  C12 UNL     1      22.948  -0.806  54.306  1.00  0.00     0.011 A 
HETATM   10  C13 UNL     1      23.962  -1.040  55.205  1.00  0.00     0.003 A 
HETATM   11  C14 UNL     1      25.248  -0.749  54.805  1.00  0.00     0.030 A 
HETATM   12  C15 UNL     1      25.456  -0.245  53.542  1.00  0.00     0.042 A 
HETATM   13  C16 UNL     1      24.455  -0.006  52.624  1.00  0.00     0.041 A 
HETATM   14  N2  UNL     1      26.774   0.152  53.104  1.00  0.00    -0.307 N 
HETATM   15  C17 UNL     1      27.477  -1.094  53.048  1.00  0.00     0.166 C 
HETATM   16  S1  UNL     1      26.729   1.921  52.915  1.00  0.00     0.095 SA
HETATM   17  N3  UNL     1      25.168   2.477  52.340  1.00  0.00    -0.188 NA
HETATM   18  C18 UNL     1      24.146   2.723  53.121  1.00  0.00     0.246 C 
HETATM   19  N4  UNL     1      23.168   3.123  52.223  1.00  0.00    -0.221 NA
ENDROOT
BRANCH   1  20
HETATM   20  C4  UNL     1      19.956   4.295  49.309  1.00  0.00     0.032 C 
HETATM   21  C3  UNL     1      20.003   5.542  49.749  1.00  0.00     0.002 C 
BRANCH  21  22
HETATM   22  C2  UNL     1      19.356   6.627  48.970  1.00  0.00     0.194 C 
BRANCH  22  23
HETATM   23  O1  UNL     1      20.027   7.825  49.002  1.00  0.00    -0.392 OA
HETATM   24  C1  UNL     1      20.827   7.881  50.123  1.00  0.00     0.201 C 
ENDBRANCH  22  23
ENDBRANCH  21  22
ENDBRANCH   1  20
BRANCH   6  25
HETATM   25  O2  UNL     1      18.998   1.736  49.142  1.00  0.00    -0.358 OA
HETATM   26  H9  UNL     1      18.453   0.887  49.226  1.00  0.00     0.217 HD
ENDBRANCH   6  25
TORSDOF 4
ENDMDL
