MODEL 1
REMARK VINA RESULT:      -7.2      0.000      0.000
REMARK  5 active torsions:
REMARK  status: ('A' for Active; 'I' for Inactive)
REMARK    1  A    between atoms: C2_2  and  C3_3 
REMARK    2  A    between atoms: C2_2  and  C8_10 
REMARK    3  A    between atoms: C3_3  and  N1_4 
REMARK       I    between atoms: C8_10  and  N2_12 
REMARK    4  A    between atoms: C14_20  and  O3_21 
REMARK    5  A    between atoms: O3_21  and  C15_22 
ROOT
HETATM    1  C8  UNL     1      24.939   3.262  50.980  1.00  0.00     0.260 C 
HETATM    2  O2  UNL     1      25.069   4.481  50.794  1.00  0.00    -0.267 OA
HETATM    3  N2  UNL     1      23.642   2.891  51.291  1.00  0.00    -0.265 N 
HETATM    4  C9  UNL     1      22.737   4.151  51.308  1.00  0.00     0.141 C 
HETATM    5  C10 UNL     1      23.198   5.467  51.441  1.00  0.00     0.119 C 
HETATM    6  N3  UNL     1      23.584   6.530  51.564  1.00  0.00    -0.190 NA
HETATM    7  C11 UNL     1      21.309   4.114  51.182  1.00  0.00     0.158 C 
HETATM    8  N4  UNL     1      20.199   3.110  51.578  1.00  0.00    -0.262 NA
HETATM    9  C12 UNL     1      20.637   1.789  51.719  1.00  0.00     0.040 C 
HETATM   10  C13 UNL     1      20.991   0.359  51.003  1.00  0.00     0.066 C 
HETATM   11  C14 UNL     1      22.017   1.052  50.411  1.00  0.00     0.097 C 
HETATM   12  C17 UNL     1      22.852   1.618  51.606  1.00  0.00     0.073 C 
HETATM   13  C18 UNL     1      22.560   1.316  52.937  1.00  0.00     0.012 C 
HETATM   14  C19 UNL     1      21.096   1.668  53.187  1.00  0.00     0.088 C 
ENDROOT
BRANCH   1  15
HETATM   15  C2  UNL     1      26.277   2.780  50.772  1.00  0.00     0.018 C 
HETATM   16  C1  UNL     1      26.514   2.908  49.482  1.00  0.00     0.026 C 
BRANCH  15  17
HETATM   17  C3  UNL     1      26.834   2.347  52.055  1.00  0.00     0.160 C 
BRANCH  17  18
HETATM   18  N1  UNL     1      26.331   1.132  52.590  1.00  0.00    -0.404 N 
HETATM   19  C4  UNL     1      26.273   1.025  54.009  1.00  0.00     0.143 C 
HETATM   20  C5  UNL     1      25.607  -0.288  54.358  1.00  0.00     0.187 C 
HETATM   21  O1  UNL     1      26.340  -1.379  53.916  1.00  0.00    -0.388 OA
HETATM   22  C6  UNL     1      27.191  -1.127  52.869  1.00  0.00     0.187 C 
HETATM   23  C7  UNL     1      26.687  -0.069  51.918  1.00  0.00     0.143 C 
ENDBRANCH  17  18
ENDBRANCH  15  17
ENDBRANCH   1  15
BRANCH  11  24
HETATM   24  O3  UNL     1      21.588   0.746  49.035  1.00  0.00    -0.349 OA
BRANCH  24  25
HETATM   25  C15 UNL     1      21.450   1.830  48.148  1.00  0.00     0.171 C 
HETATM   26  C16 UNL     1      22.725   2.534  47.879  1.00  0.00     0.034 C 
ENDBRANCH  24  25
ENDBRANCH  11  24
TORSDOF 5
ENDMDL
MODEL 2
REMARK VINA RESULT:      -7.0      1.306      1.650
REMARK  5 active torsions:
REMARK  status: ('A' for Active; 'I' for Inactive)
REMARK    1  A    between atoms: C2_2  and  C3_3 
REMARK    2  A    between atoms: C2_2  and  C8_10 
REMARK    3  A    between atoms: C3_3  and  N1_4 
REMARK       I    between atoms: C8_10  and  N2_12 
REMARK    4  A    between atoms: C14_20  and  O3_21 
REMARK    5  A    between atoms: O3_21  and  C15_22 
ROOT
HETATM    1  C8  UNL     1      24.611   2.436  51.696  1.00  0.00     0.260 C 
HETATM    2  O2  UNL     1      24.923   3.635  51.749  1.00  0.00    -0.267 OA
HETATM    3  N2  UNL     1      23.276   2.205  51.982  1.00  0.00    -0.265 N 
HETATM    4  C9  UNL     1      22.574   3.556  52.284  1.00  0.00     0.141 C 
HETATM    5  C10 UNL     1      23.232   4.735  52.654  1.00  0.00     0.119 C 
HETATM    6  N3  UNL     1      23.777   5.683  52.969  1.00  0.00    -0.190 NA
HETATM    7  C11 UNL     1      21.156   3.755  52.212  1.00  0.00     0.158 C 
HETATM    8  N4  UNL     1      19.910   2.866  52.448  1.00  0.00    -0.262 NA
HETATM    9  C12 UNL     1      20.143   1.494  52.308  1.00  0.00     0.040 C 
HETATM   10  C13 UNL     1      20.267   0.201  51.310  1.00  0.00     0.066 C 
HETATM   11  C14 UNL     1      21.380   0.841  50.824  1.00  0.00     0.097 C 
HETATM   12  C17 UNL     1      22.305   1.026  52.072  1.00  0.00     0.073 C 
HETATM   13  C18 UNL     1      21.985   0.508  53.328  1.00  0.00     0.012 C 
HETATM   14  C19 UNL     1      20.595   1.015  53.703  1.00  0.00     0.088 C 
ENDROOT
BRANCH   1  15
HETATM   15  C2  UNL     1      25.857   1.814  51.343  1.00  0.00     0.018 C 
HETATM   16  C1  UNL     1      26.431   2.618  50.469  1.00  0.00     0.026 C 
BRANCH  15  17
HETATM   17  C3  UNL     1      25.992   0.557  52.082  1.00  0.00     0.160 C 
BRANCH  17  18
HETATM   18  N1  UNL     1      27.280   0.256  52.596  1.00  0.00    -0.404 N 
HETATM   19  C4  UNL     1      27.548  -1.107  52.911  1.00  0.00     0.143 C 
HETATM   20  C5  UNL     1      28.998  -1.220  53.328  1.00  0.00     0.187 C 
HETATM   21  O1  UNL     1      29.269  -0.495  54.479  1.00  0.00    -0.388 OA
HETATM   22  C6  UNL     1      28.405   0.541  54.735  1.00  0.00     0.187 C 
HETATM   23  C7  UNL     1      27.859   1.198  53.490  1.00  0.00     0.143 C 
ENDBRANCH  17  18
ENDBRANCH  15  17
ENDBRANCH   1  15
BRANCH  11  24
HETATM   24  O3  UNL     1      20.894   0.884  49.434  1.00  0.00    -0.349 OA
BRANCH  24  25
HETATM   25  C15 UNL     1      21.829   1.220  48.436  1.00  0.00     0.171 C 
HETATM   26  C16 UNL     1      22.394   2.580  48.596  1.00  0.00     0.034 C 
ENDBRANCH  24  25
ENDBRANCH  11  24
TORSDOF 5
ENDMDL
MODEL 3
REMARK VINA RESULT:      -7.0      2.111      3.719
REMARK  5 active torsions:
REMARK  status: ('A' for Active; 'I' for Inactive)
REMARK    1  A    between atoms: C2_2  and  C3_3 
REMARK    2  A    between atoms: C2_2  and  C8_10 
REMARK    3  A    between atoms: C3_3  and  N1_4 
REMARK       I    between atoms: C8_10  and  N2_12 
REMARK    4  A    between atoms: C14_20  and  O3_21 
REMARK    5  A    between atoms: O3_21  and  C15_22 
ROOT
HETATM    1  C8  UNL     1      24.002   1.007  52.296  1.00  0.00     0.260 C 
HETATM    2  O2  UNL     1      23.976   0.541  53.445  1.00  0.00    -0.267 OA
HETATM    3  N2  UNL     1      22.746   1.316  51.803  1.00  0.00    -0.265 N 
HETATM    4  C9  UNL     1      21.675   0.974  52.872  1.00  0.00     0.141 C 
HETATM    5  C10 UNL     1      21.868   0.098  53.948  1.00  0.00     0.119 C 
HETATM    6  N3  UNL     1      22.034  -0.626  54.810  1.00  0.00    -0.190 NA
HETATM    7  C11 UNL     1      20.351   1.525  52.885  1.00  0.00     0.158 C 
HETATM    8  N4  UNL     1      19.354   2.009  51.805  1.00  0.00    -0.262 NA
HETATM    9  C12 UNL     1      19.949   2.390  50.597  1.00  0.00     0.040 C 
HETATM   10  C13 UNL     1      20.700   3.557  49.726  1.00  0.00     0.066 C 
HETATM   11  C14 UNL     1      21.716   3.408  50.636  1.00  0.00     0.097 C 
HETATM   12  C17 UNL     1      22.118   1.899  50.535  1.00  0.00     0.073 C 
HETATM   13  C18 UNL     1      21.551   1.032  49.600  1.00  0.00     0.012 C 
HETATM   14  C19 UNL     1      20.034   1.097  49.761  1.00  0.00     0.088 C 
ENDROOT
BRANCH   1  15
HETATM   15  C2  UNL     1      25.408   1.006  52.001  1.00  0.00     0.018 C 
HETATM   16  C1  UNL     1      25.654   2.150  51.393  1.00  0.00     0.026 C 
BRANCH  15  17
HETATM   17  C3  UNL     1      25.998  -0.243  52.486  1.00  0.00     0.160 C 
BRANCH  17  18
HETATM   18  N1  UNL     1      27.366  -0.197  52.863  1.00  0.00    -0.404 N 
HETATM   19  C4  UNL     1      28.039  -1.443  53.011  1.00  0.00     0.143 C 
HETATM   20  C5  UNL     1      29.497  -1.162  53.300  1.00  0.00     0.187 C 
HETATM   21  O1  UNL     1      29.671  -0.483  54.496  1.00  0.00    -0.388 OA
HETATM   22  C6  UNL     1      28.582   0.234  54.927  1.00  0.00     0.187 C 
HETATM   23  C7  UNL     1      27.745   0.799  53.805  1.00  0.00     0.143 C 
ENDBRANCH  17  18
ENDBRANCH  15  17
ENDBRANCH   1  15
BRANCH  11  24
HETATM   24  O3  UNL     1      21.706   4.819  51.058  1.00  0.00    -0.349 OA
BRANCH  24  25
HETATM   25  C15 UNL     1      22.916   5.357  51.537  1.00  0.00     0.171 C 
HETATM   26  C16 UNL     1      23.350   4.767  52.825  1.00  0.00     0.034 C 
ENDBRANCH  24  25
ENDBRANCH  11  24
TORSDOF 5
ENDMDL
MODEL 4
REMARK VINA RESULT:      -6.9      2.431      3.986
REMARK  5 active torsions:
REMARK  status: ('A' for Active; 'I' for Inactive)
REMARK    1  A    between atoms: C2_2  and  C3_3 
REMARK    2  A    between atoms: C2_2  and  C8_10 
REMARK    3  A    between atoms: C3_3  and  N1_4 
REMARK       I    between atoms: C8_10  and  N2_12 
REMARK    4  A    between atoms: C14_20  and  O3_21 
REMARK    5  A    between atoms: O3_21  and  C15_22 
ROOT
HETATM    1  C8  UNL     1      25.618   3.506  50.813  1.00  0.00     0.260 C 
HETATM    2  O2  UNL     1      26.619   3.232  50.134  1.00  0.00    -0.267 OA
HETATM    3  N2  UNL     1      24.991   4.675  50.415  1.00  0.00    -0.265 N 
HETATM    4  C9  UNL     1      25.758   5.286  49.213  1.00  0.00     0.141 C 
HETATM    5  C10 UNL     1      27.083   4.988  48.873  1.00  0.00     0.119 C 
HETATM    6  N3  UNL     1      28.165   4.749  48.616  1.00  0.00    -0.190 NA
HETATM    7  C11 UNL     1      25.189   6.234  48.298  1.00  0.00     0.158 C 
HETATM    8  N4  UNL     1      24.124   7.352  48.400  1.00  0.00    -0.262 NA
HETATM    9  C12 UNL     1      23.211   7.190  49.448  1.00  0.00     0.040 C 
HETATM   10  C13 UNL     1      21.827   6.501  49.990  1.00  0.00     0.066 C 
HETATM   11  C14 UNL     1      22.521   5.321  49.886  1.00  0.00     0.097 C 
HETATM   12  C17 UNL     1      23.773   5.517  50.802  1.00  0.00     0.073 C 
HETATM   13  C18 UNL     1      23.962   6.659  51.583  1.00  0.00     0.012 C 
HETATM   14  C19 UNL     1      23.865   7.875  50.665  1.00  0.00     0.088 C 
ENDROOT
BRANCH   1  15
HETATM   15  C2  UNL     1      25.580   2.417  51.749  1.00  0.00     0.018 C 
HETATM   16  C1  UNL     1      24.436   2.531  52.395  1.00  0.00     0.026 C 
BRANCH  15  17
HETATM   17  C3  UNL     1      26.804   1.626  51.614  1.00  0.00     0.160 C 
BRANCH  17  18
HETATM   18  N1  UNL     1      27.226   0.905  52.761  1.00  0.00    -0.404 N 
HETATM   19  C4  UNL     1      28.390   1.379  53.431  1.00  0.00     0.143 C 
HETATM   20  C5  UNL     1      28.593   0.544  54.677  1.00  0.00     0.187 C 
HETATM   21  O1  UNL     1      28.832  -0.789  54.379  1.00  0.00    -0.388 OA
HETATM   22  C6  UNL     1      28.363  -1.210  53.158  1.00  0.00     0.187 C 
HETATM   23  C7  UNL     1      27.099  -0.511  52.720  1.00  0.00     0.143 C 
ENDBRANCH  17  18
ENDBRANCH  15  17
ENDBRANCH   1  15
BRANCH  11  24
HETATM   24  O3  UNL     1      21.554   4.696  48.968  1.00  0.00    -0.349 OA
BRANCH  24  25
HETATM   25  C15 UNL     1      22.071   3.869  47.952  1.00  0.00     0.171 C 
HETATM   26  C16 UNL     1      22.766   2.668  48.471  1.00  0.00     0.034 C 
ENDBRANCH  24  25
ENDBRANCH  11  24
TORSDOF 5
ENDMDL
MODEL 5
REMARK VINA RESULT:      -6.9      2.672      4.604
REMARK  5 active torsions:
REMARK  status: ('A' for Active; 'I' for Inactive)
REMARK    1  A    between atoms: C2_2  and  C3_3 
REMARK    2  A    between atoms: C2_2  and  C8_10 
REMARK    3  A    between atoms: C3_3  and  N1_4 
REMARK       I    between atoms: C8_10  and  N2_12 
REMARK    4  A    between atoms: C14_20  and  O3_21 
REMARK    5  A    between atoms: O3_21  and  C15_22 
ROOT
HETATM    1  C8  UNL     1      21.654  -0.197  53.284  1.00  0.00     0.260 C 
HETATM    2  O2  UNL     1      20.795  -0.777  53.965  1.00  0.00    -0.267 OA
HETATM    3  N2  UNL     1      21.118   0.546  52.245  1.00  0.00    -0.265 N 
HETATM    4  C9  UNL     1      19.573   0.414  52.263  1.00  0.00     0.141 C 
HETATM    5  C10 UNL     1      18.863  -0.610  52.902  1.00  0.00     0.119 C 
HETATM    6  N3  UNL     1      18.299  -1.456  53.413  1.00  0.00    -0.190 NA
HETATM    7  C11 UNL     1      18.682   1.339  51.623  1.00  0.00     0.158 C 
HETATM    8  N4  UNL     1      18.756   2.243  50.369  1.00  0.00    -0.262 NA
HETATM    9  C12 UNL     1      20.055   2.576  49.970  1.00  0.00     0.040 C 
HETATM   10  C13 UNL     1      21.354   3.558  50.148  1.00  0.00     0.066 C 
HETATM   11  C14 UNL     1      21.458   2.986  51.392  1.00  0.00     0.097 C 
HETATM   12  C17 UNL     1      21.600   1.453  51.111  1.00  0.00     0.073 C 
HETATM   13  C18 UNL     1      21.692   0.932  49.820  1.00  0.00     0.012 C 
HETATM   14  C19 UNL     1      20.492   1.439  49.023  1.00  0.00     0.088 C 
ENDROOT
BRANCH   1  15
HETATM   15  C2  UNL     1      22.873  -0.592  53.934  1.00  0.00     0.018 C 
HETATM   16  C1  UNL     1      22.512  -1.251  55.017  1.00  0.00     0.026 C 
BRANCH  15  17
HETATM   17  C3  UNL     1      24.011  -0.115  53.146  1.00  0.00     0.160 C 
BRANCH  17  18
HETATM   18  N1  UNL     1      25.303  -0.363  53.680  1.00  0.00    -0.404 N 
HETATM   19  C4  UNL     1      25.983   0.743  54.266  1.00  0.00     0.143 C 
HETATM   20  C5  UNL     1      27.277   0.237  54.867  1.00  0.00     0.187 C 
HETATM   21  O1  UNL     1      28.133  -0.280  53.906  1.00  0.00    -0.388 OA
HETATM   22  C6  UNL     1      27.526  -0.707  52.751  1.00  0.00     0.187 C 
HETATM   23  C7  UNL     1      26.139  -1.263  52.964  1.00  0.00     0.143 C 
ENDBRANCH  17  18
ENDBRANCH  15  17
ENDBRANCH   1  15
BRANCH  11  24
HETATM   24  O3  UNL     1      21.371   4.264  52.118  1.00  0.00    -0.349 OA
BRANCH  24  25
HETATM   25  C15 UNL     1      22.550   5.026  52.224  1.00  0.00     0.171 C 
HETATM   26  C16 UNL     1      23.647   4.314  52.919  1.00  0.00     0.034 C 
ENDBRANCH  24  25
ENDBRANCH  11  24
TORSDOF 5
ENDMDL
MODEL 6
REMARK VINA RESULT:      -6.8      1.848      4.085
REMARK  5 active torsions:
REMARK  status: ('A' for Active; 'I' for Inactive)
REMARK    1  A    between atoms: C2_2  and  C3_3 
REMARK    2  A    between atoms: C2_2  and  C8_10 
REMARK    3  A    between atoms: C3_3  and  N1_4 
REMARK       I    between atoms: C8_10  and  N2_12 
REMARK    4  A    between atoms: C14_20  and  O3_21 
REMARK    5  A    between atoms: O3_21  and  C15_22 
ROOT
HETATM    1  C8  UNL     1      23.083   2.033  51.829  1.00  0.00     0.260 C 
HETATM    2  O2  UNL     1      22.202   2.004  52.701  1.00  0.00    -0.267 OA
HETATM    3  N2  UNL     1      22.820   2.938  50.815  1.00  0.00    -0.265 N 
HETATM    4  C9  UNL     1      21.470   3.649  51.098  1.00  0.00     0.141 C 
HETATM    5  C10 UNL     1      20.473   3.165  51.954  1.00  0.00     0.119 C 
HETATM    6  N3  UNL     1      19.666   2.753  52.641  1.00  0.00    -0.190 NA
HETATM    7  C11 UNL     1      21.086   4.901  50.514  1.00  0.00     0.158 C 
HETATM    8  N4  UNL     1      21.371   5.618  49.171  1.00  0.00    -0.262 NA
HETATM    9  C12 UNL     1      22.544   5.205  48.532  1.00  0.00     0.040 C 
HETATM   10  C13 UNL     1      24.170   5.347  48.386  1.00  0.00     0.066 C 
HETATM   11  C14 UNL     1      24.204   4.817  49.652  1.00  0.00     0.097 C 
HETATM   12  C17 UNL     1      23.469   3.442  49.524  1.00  0.00     0.073 C 
HETATM   13  C18 UNL     1      23.019   2.941  48.301  1.00  0.00     0.012 C 
HETATM   14  C19 UNL     1      22.130   4.003  47.659  1.00  0.00     0.088 C 
ENDROOT
BRANCH   1  15
HETATM   15  C2  UNL     1      24.018   1.054  52.311  1.00  0.00     0.018 C 
HETATM   16  C1  UNL     1      23.310   0.184  53.004  1.00  0.00     0.026 C 
BRANCH  15  17
HETATM   17  C3  UNL     1      25.362   1.407  51.848  1.00  0.00     0.160 C 
BRANCH  17  18
HETATM   18  N1  UNL     1      26.448   0.953  52.641  1.00  0.00    -0.404 N 
HETATM   19  C4  UNL     1      26.899  -0.379  52.417  1.00  0.00     0.143 C 
HETATM   20  C5  UNL     1      28.123  -0.615  53.276  1.00  0.00     0.187 C 
HETATM   21  O1  UNL     1      27.836  -0.525  54.629  1.00  0.00    -0.388 OA
HETATM   22  C6  UNL     1      26.725   0.219  54.945  1.00  0.00     0.187 C 
HETATM   23  C7  UNL     1      26.478   1.370  54.000  1.00  0.00     0.143 C 
ENDBRANCH  17  18
ENDBRANCH  15  17
ENDBRANCH   1  15
BRANCH  11  24
HETATM   24  O3  UNL     1      24.940   5.951  50.235  1.00  0.00    -0.349 OA
BRANCH  24  25
HETATM   25  C15 UNL     1      24.307   6.664  51.272  1.00  0.00     0.171 C 
HETATM   26  C16 UNL     1      23.742   7.961  50.832  1.00  0.00     0.034 C 
ENDBRANCH  24  25
ENDBRANCH  11  24
TORSDOF 5
ENDMDL
MODEL 7
REMARK VINA RESULT:      -6.5      2.447      5.976
REMARK  5 active torsions:
REMARK  status: ('A' for Active; 'I' for Inactive)
REMARK    1  A    between atoms: C2_2  and  C3_3 
REMARK    2  A    between atoms: C2_2  and  C8_10 
REMARK    3  A    between atoms: C3_3  and  N1_4 
REMARK       I    between atoms: C8_10  and  N2_12 
REMARK    4  A    between atoms: C14_20  and  O3_21 
REMARK    5  A    between atoms: O3_21  and  C15_22 
ROOT
HETATM    1  C8  UNL     1      22.652  -0.030  53.521  1.00  0.00     0.260 C 
HETATM    2  O2  UNL     1      23.475  -0.879  53.897  1.00  0.00    -0.267 OA
HETATM    3  N2  UNL     1      23.230   1.023  52.832  1.00  0.00    -0.265 N 
HETATM    4  C9  UNL     1      24.763   0.802  52.744  1.00  0.00     0.141 C 
HETATM    5  C10 UNL     1      25.499  -0.045  53.582  1.00  0.00     0.119 C 
HETATM    6  N3  UNL     1      26.088  -0.725  54.278  1.00  0.00    -0.190 NA
HETATM    7  C11 UNL     1      25.611   1.442  51.780  1.00  0.00     0.158 C 
HETATM    8  N4  UNL     1      25.599   2.801  51.041  1.00  0.00    -0.262 NA
HETATM    9  C12 UNL     1      24.336   3.394  50.939  1.00  0.00     0.040 C 
HETATM   10  C13 UNL     1      22.914   3.502  50.134  1.00  0.00     0.066 C 
HETATM   11  C14 UNL     1      22.711   2.218  50.573  1.00  0.00     0.097 C 
HETATM   12  C17 UNL     1      22.800   2.315  52.132  1.00  0.00     0.073 C 
HETATM   13  C18 UNL     1      22.952   3.530  52.802  1.00  0.00     0.012 C 
HETATM   14  C19 UNL     1      24.177   4.233  52.224  1.00  0.00     0.088 C 
ENDROOT
BRANCH   1  15
HETATM   15  C2  UNL     1      21.414  -0.572  54.008  1.00  0.00     0.018 C 
HETATM   16  C1  UNL     1      21.723  -1.704  54.609  1.00  0.00     0.026 C 
BRANCH  15  17
HETATM   17  C3  UNL     1      20.321   0.334  53.649  1.00  0.00     0.160 C 
BRANCH  17  18
HETATM   18  N1  UNL     1      19.394  -0.137  52.684  1.00  0.00    -0.404 N 
HETATM   19  C4  UNL     1      18.920   0.806  51.728  1.00  0.00     0.143 C 
HETATM   20  C5  UNL     1      18.042   0.074  50.736  1.00  0.00     0.187 C 
HETATM   21  O1  UNL     1      16.917  -0.470  51.336  1.00  0.00    -0.388 OA
HETATM   22  C6  UNL     1      17.028  -0.705  52.685  1.00  0.00     0.187 C 
HETATM   23  C7  UNL     1      18.423  -1.079  53.123  1.00  0.00     0.143 C 
ENDBRANCH  17  18
ENDBRANCH  15  17
ENDBRANCH   1  15
BRANCH  11  24
HETATM   24  O3  UNL     1      22.539   1.657  49.222  1.00  0.00    -0.349 OA
BRANCH  24  25
HETATM   25  C15 UNL     1      21.274   1.129  48.901  1.00  0.00     0.171 C 
HETATM   26  C16 UNL     1      20.357   2.127  48.303  1.00  0.00     0.034 C 
ENDBRANCH  24  25
ENDBRANCH  11  24
TORSDOF 5
ENDMDL
MODEL 8
REMARK VINA RESULT:      -6.4      2.142      6.011
REMARK  5 active torsions:
REMARK  status: ('A' for Active; 'I' for Inactive)
REMARK    1  A    between atoms: C2_2  and  C3_3 
REMARK    2  A    between atoms: C2_2  and  C8_10 
REMARK    3  A    between atoms: C3_3  and  N1_4 
REMARK       I    between atoms: C8_10  and  N2_12 
REMARK    4  A    between atoms: C14_20  and  O3_21 
REMARK    5  A    between atoms: O3_21  and  C15_22 
ROOT
HETATM    1  C8  UNL     1      22.779   1.753  51.207  1.00  0.00     0.260 C 
HETATM    2  O2  UNL     1      22.378   2.925  51.267  1.00  0.00    -0.267 OA
HETATM    3  N2  UNL     1      23.904   1.519  51.980  1.00  0.00    -0.265 N 
HETATM    4  C9  UNL     1      24.316   2.832  52.697  1.00  0.00     0.141 C 
HETATM    5  C10 UNL     1      23.927   4.118  52.302  1.00  0.00     0.119 C 
HETATM    6  N3  UNL     1      23.615   5.157  51.962  1.00  0.00    -0.190 NA
HETATM    7  C11 UNL     1      25.149   2.879  53.864  1.00  0.00     0.158 C 
HETATM    8  N4  UNL     1      26.309   2.017  54.420  1.00  0.00    -0.262 NA
HETATM    9  C12 UNL     1      26.325   0.699  53.953  1.00  0.00     0.040 C 
HETATM   10  C13 UNL     1      25.768  -0.835  54.104  1.00  0.00     0.066 C 
HETATM   11  C14 UNL     1      24.561  -0.299  53.729  1.00  0.00     0.097 C 
HETATM   12  C17 UNL     1      24.835   0.358  52.337  1.00  0.00     0.073 C 
HETATM   13  C18 UNL     1      26.066   0.254  51.686  1.00  0.00     0.012 C 
HETATM   14  C19 UNL     1      27.147   0.740  52.648  1.00  0.00     0.088 C 
ENDROOT
BRANCH   1  15
HETATM   15  C2  UNL     1      21.831   1.154  50.309  1.00  0.00     0.018 C 
HETATM   16  C1  UNL     1      22.090   1.655  49.117  1.00  0.00     0.026 C 
BRANCH  15  17
HETATM   17  C3  UNL     1      20.970   0.240  51.062  1.00  0.00     0.160 C 
BRANCH  17  18
HETATM   18  N1  UNL     1      19.632   0.663  51.282  1.00  0.00    -0.404 N 
HETATM   19  C4  UNL     1      18.766   0.683  50.152  1.00  0.00     0.143 C 
HETATM   20  C5  UNL     1      17.377   1.048  50.627  1.00  0.00     0.187 C 
HETATM   21  O1  UNL     1      17.330   2.321  51.175  1.00  0.00    -0.388 OA
HETATM   22  C6  UNL     1      18.527   2.800  51.649  1.00  0.00     0.187 C 
HETATM   23  C7  UNL     1      19.432   1.727  52.204  1.00  0.00     0.143 C 
ENDBRANCH  17  18
ENDBRANCH  15  17
ENDBRANCH   1  15
BRANCH  11  24
HETATM   24  O3  UNL     1      23.851  -0.753  54.937  1.00  0.00    -0.349 OA
BRANCH  24  25
HETATM   25  C15 UNL     1      22.559  -1.285  54.763  1.00  0.00     0.171 C 
HETATM   26  C16 UNL     1      21.502  -0.249  54.699  1.00  0.00     0.034 C 
ENDBRANCH  24  25
ENDBRANCH  11  24
TORSDOF 5
ENDMDL
MODEL 9
REMARK VINA RESULT:      -6.4      2.222      4.740
REMARK  5 active torsions:
REMARK  status: ('A' for Active; 'I' for Inactive)
REMARK    1  A    between atoms: C2_2  and  C3_3 
REMARK    2  A    between atoms: C2_2  and  C8_10 
REMARK    3  A    between atoms: C3_3  and  N1_4 
REMARK       I    between atoms: C8_10  and  N2_12 
REMARK    4  A    between atoms: C14_20  and  O3_21 
REMARK    5  A    between atoms: O3_21  and  C15_22 
ROOT
HETATM    1  C8  UNL     1      23.898   2.948  50.792  1.00  0.00     0.260 C 
HETATM    2  O2  UNL     1      23.119   2.157  50.238  1.00  0.00    -0.267 OA
HETATM    3  N2  UNL     1      24.137   4.091  50.048  1.00  0.00    -0.265 N 
HETATM    4  C9  UNL     1      23.333   4.020  48.723  1.00  0.00     0.141 C 
HETATM    5  C10 UNL     1      22.825   2.844  48.156  1.00  0.00     0.119 C 
HETATM    6  N3  UNL     1      22.429   1.880  47.700  1.00  0.00    -0.190 NA
HETATM    7  C11 UNL     1      23.010   5.163  47.919  1.00  0.00     0.158 C 
HETATM    8  N4  UNL     1      23.686   6.524  47.627  1.00  0.00    -0.262 NA
HETATM    9  C12 UNL     1      24.576   6.953  48.618  1.00  0.00     0.040 C 
HETATM   10  C13 UNL     1      24.795   7.709  50.055  1.00  0.00     0.066 C 
HETATM   11  C14 UNL     1      24.106   6.644  50.578  1.00  0.00     0.097 C 
HETATM   12  C17 UNL     1      24.940   5.389  50.157  1.00  0.00     0.073 C 
HETATM   13  C18 UNL     1      26.159   5.488  49.485  1.00  0.00     0.012 C 
HETATM   14  C19 UNL     1      25.937   6.337  48.235  1.00  0.00     0.088 C 
ENDROOT
BRANCH   1  15
HETATM   15  C2  UNL     1      24.203   2.264  52.018  1.00  0.00     0.018 C 
HETATM   16  C1  UNL     1      23.079   1.693  52.407  1.00  0.00     0.026 C 
BRANCH  15  17
HETATM   17  C3  UNL     1      25.616   2.469  52.342  1.00  0.00     0.160 C 
BRANCH  17  18
HETATM   18  N1  UNL     1      26.322   1.346  52.848  1.00  0.00    -0.404 N 
HETATM   19  C4  UNL     1      26.433   0.214  51.992  1.00  0.00     0.143 C 
HETATM   20  C5  UNL     1      27.312  -0.812  52.676  1.00  0.00     0.187 C 
HETATM   21  O1  UNL     1      26.753  -1.272  53.859  1.00  0.00    -0.388 OA
HETATM   22  C6  UNL     1      25.845  -0.425  54.447  1.00  0.00     0.187 C 
HETATM   23  C7  UNL     1      26.147   1.037  54.224  1.00  0.00     0.143 C 
ENDBRANCH  17  18
ENDBRANCH  15  17
ENDBRANCH   1  15
BRANCH  11  24
HETATM   24  O3  UNL     1      23.052   7.473  51.188  1.00  0.00    -0.349 OA
BRANCH  24  25
HETATM   25  C15 UNL     1      21.722   7.199  50.816  1.00  0.00     0.171 C 
HETATM   26  C16 UNL     1      21.295   5.818  51.139  1.00  0.00     0.034 C 
ENDBRANCH  24  25
ENDBRANCH  11  24
TORSDOF 5
ENDMDL
