MODEL 1
REMARK VINA RESULT:      -7.6      0.000      0.000
REMARK  1 active torsions:
REMARK  status: ('A' for Active; 'I' for Inactive)
REMARK    1  A    between atoms: C8_11  and  C9_12 
ROOT
HETATM    1  C1  UNL     1      23.293  -0.189  53.835  1.00  0.00     0.137 C 
HETATM    2  N1  UNL     1      23.181   0.041  52.387  1.00  0.00    -0.222 NA
HETATM    3  C2  UNL     1      21.820   0.414  52.113  1.00  0.00     0.117 C 
HETATM    4  C3  UNL     1      21.603   0.584  50.613  1.00  0.00     0.024 C 
HETATM    5  C4  UNL     1      21.304   1.458  49.610  1.00  0.00     0.217 A 
HETATM    6  C5  UNL     1      20.968   2.507  48.599  1.00  0.00     0.236 A 
HETATM    7  O1  UNL     1      21.095   1.318  48.196  1.00  0.00    -0.341 OA
HETATM    8  N2  UNL     1      20.966   3.577  49.632  1.00  0.00    -0.256 NA
HETATM    9  C6  UNL     1      22.047   4.226  49.779  1.00  0.00     0.116 C 
HETATM   10  C7  UNL     1      23.398   4.681  49.606  1.00  0.00     0.051 C 
HETATM   11  C8  UNL     1      24.223   5.483  50.192  1.00  0.00     0.067 C 
HETATM   12  N3  UNL     1      23.641   5.979  51.422  1.00  0.00    -0.262 NA
HETATM   13  C15 UNL     1      23.416   4.974  52.291  1.00  0.00     0.121 C 
HETATM   14  C16 UNL     1      23.532   3.490  52.502  1.00  0.00     0.385 C 
HETATM   15  N4  UNL     1      23.971   2.528  51.795  1.00  0.00    -0.339 NA
HETATM   16  N5  UNL     1      24.027   1.177  52.089  1.00  0.00    -0.276 N 
HETATM   17  H16 UNL     1      25.023   0.803  52.112  1.00  0.00     0.200 HD
ENDROOT
BRANCH  11  18
HETATM   18  C9  UNL     1      25.493   5.598  49.596  1.00  0.00    -0.006 A 
HETATM   19  C10 UNL     1      26.125   4.383  49.516  1.00  0.00     0.014 A 
HETATM   20  C11 UNL     1      27.377   4.283  48.925  1.00  0.00     0.002 A 
HETATM   21  C12 UNL     1      27.942   5.434  48.431  1.00  0.00     0.019 A 
HETATM   22  C13 UNL     1      27.277   6.636  48.528  1.00  0.00     0.011 A 
HETATM   23 BR1  UNL     1      28.149   8.170  47.811  1.00  0.00    -0.051 Br
HETATM   24  C14 UNL     1      26.037   6.733  49.115  1.00  0.00     0.032 A 
ENDBRANCH  11  18
TORSDOF 1
ENDMDL
MODEL 2
REMARK VINA RESULT:      -7.3      3.540      5.066
REMARK  1 active torsions:
REMARK  status: ('A' for Active; 'I' for Inactive)
REMARK    1  A    between atoms: C8_11  and  C9_12 
ROOT
HETATM    1  C1  UNL     1      17.483   2.829  51.620  1.00  0.00     0.137 C 
HETATM    2  N1  UNL     1      18.508   2.110  50.849  1.00  0.00    -0.222 NA
HETATM    3  C2  UNL     1      18.877   2.945  49.739  1.00  0.00     0.117 C 
HETATM    4  C3  UNL     1      19.876   2.227  48.838  1.00  0.00     0.024 C 
HETATM    5  C4  UNL     1      21.149   2.220  48.348  1.00  0.00     0.217 A 
HETATM    6  C5  UNL     1      22.565   2.318  47.879  1.00  0.00     0.236 A 
HETATM    7  O1  UNL     1      21.848   1.396  47.403  1.00  0.00    -0.341 OA
HETATM    8  N2  UNL     1      22.826   3.498  48.746  1.00  0.00    -0.256 NA
HETATM    9  C6  UNL     1      23.338   3.264  49.883  1.00  0.00     0.116 C 
HETATM   10  C7  UNL     1      23.899   2.571  51.010  1.00  0.00     0.051 C 
HETATM   11  C8  UNL     1      24.261   2.842  52.219  1.00  0.00     0.067 C 
HETATM   12  N3  UNL     1      23.904   4.205  52.549  1.00  0.00    -0.262 NA
HETATM   13  C15 UNL     1      22.568   4.378  52.512  1.00  0.00     0.121 C 
HETATM   14  C16 UNL     1      21.253   3.697  52.255  1.00  0.00     0.385 C 
HETATM   15  N4  UNL     1      20.918   2.511  51.939  1.00  0.00    -0.339 NA
HETATM   16  N5  UNL     1      19.658   1.985  51.719  1.00  0.00    -0.276 N 
HETATM   17  H16 UNL     1      19.409   1.212  52.407  1.00  0.00     0.200 HD
ENDROOT
BRANCH  11  18
HETATM   18  C9  UNL     1      24.789   1.763  52.955  1.00  0.00    -0.006 A 
HETATM   19  C10 UNL     1      23.848   0.790  53.170  1.00  0.00     0.014 A 
HETATM   20  C11 UNL     1      24.185  -0.373  53.849  1.00  0.00     0.002 A 
HETATM   21  C12 UNL     1      25.483  -0.503  54.285  1.00  0.00     0.019 A 
HETATM   22  C13 UNL     1      26.401   0.497  54.049  1.00  0.00     0.011 A 
HETATM   23 BR1  UNL     1      28.171   0.217  54.696  1.00  0.00    -0.051 Br
HETATM   24  C14 UNL     1      26.064   1.648  53.378  1.00  0.00     0.032 A 
ENDBRANCH  11  18
TORSDOF 1
ENDMDL
MODEL 3
REMARK VINA RESULT:      -7.3      7.802     10.983
REMARK  1 active torsions:
REMARK  status: ('A' for Active; 'I' for Inactive)
REMARK    1  A    between atoms: C8_11  and  C9_12 
ROOT
HETATM    1  C1  UNL     1      34.123   5.470  42.159  1.00  0.00     0.137 C 
HETATM    2  N1  UNL     1      33.882   4.715  43.397  1.00  0.00    -0.222 NA
HETATM    3  C2  UNL     1      35.063   4.829  44.209  1.00  0.00     0.117 C 
HETATM    4  C3  UNL     1      34.923   3.996  45.478  1.00  0.00     0.024 C 
HETATM    5  C4  UNL     1      34.838   4.021  46.839  1.00  0.00     0.217 A 
HETATM    6  C5  UNL     1      34.755   4.175  48.324  1.00  0.00     0.236 A 
HETATM    7  O1  UNL     1      34.765   3.006  47.852  1.00  0.00    -0.341 OA
HETATM    8  N2  UNL     1      34.780   5.659  48.224  1.00  0.00    -0.256 NA
HETATM    9  C6  UNL     1      33.655   6.246  48.214  1.00  0.00     0.116 C 
HETATM   10  C7  UNL     1      32.238   6.478  48.244  1.00  0.00     0.051 C 
HETATM   11  C8  UNL     1      31.424   7.466  48.077  1.00  0.00     0.067 C 
HETATM   12  N3  UNL     1      32.152   8.638  47.641  1.00  0.00    -0.262 NA
HETATM   13  C15 UNL     1      32.735   8.429  46.444  1.00  0.00     0.121 C 
HETATM   14  C16 UNL     1      32.939   7.428  45.341  1.00  0.00     0.385 C 
HETATM   15  N4  UNL     1      32.544   6.235  45.146  1.00  0.00    -0.339 NA
HETATM   16  N5  UNL     1      32.800   5.390  44.080  1.00  0.00    -0.276 N 
HETATM   17  H16 UNL     1      31.917   5.114  43.554  1.00  0.00     0.200 HD
ENDROOT
BRANCH  11  18
HETATM   18  C9  UNL     1      30.057   7.165  48.232  1.00  0.00    -0.006 A 
HETATM   19  C10 UNL     1      29.816   5.823  48.090  1.00  0.00     0.014 A 
HETATM   20  C11 UNL     1      28.530   5.322  48.243  1.00  0.00     0.002 A 
HETATM   21  C12 UNL     1      27.529   6.216  48.541  1.00  0.00     0.019 A 
HETATM   22  C13 UNL     1      27.810   7.558  48.677  1.00  0.00     0.011 A 
HETATM   23 BR1  UNL     1      26.351   8.710  49.090  1.00  0.00    -0.051 Br
HETATM   24  C14 UNL     1      29.084   8.051  48.523  1.00  0.00     0.032 A 
ENDBRANCH  11  18
TORSDOF 1
ENDMDL
MODEL 4
REMARK VINA RESULT:      -7.1      3.731      6.604
REMARK  1 active torsions:
REMARK  status: ('A' for Active; 'I' for Inactive)
REMARK    1  A    between atoms: C8_11  and  C9_12 
ROOT
HETATM    1  C1  UNL     1      21.230   3.630  45.831  1.00  0.00     0.137 C 
HETATM    2  N1  UNL     1      22.260   3.875  46.851  1.00  0.00    -0.222 NA
HETATM    3  C2  UNL     1      22.097   5.227  47.312  1.00  0.00     0.117 C 
HETATM    4  C3  UNL     1      23.190   5.586  48.313  1.00  0.00     0.024 C 
HETATM    5  C4  UNL     1      23.468   5.925  49.605  1.00  0.00     0.217 A 
HETATM    6  C5  UNL     1      23.647   6.288  51.044  1.00  0.00     0.236 A 
HETATM    7  O1  UNL     1      24.668   6.289  50.303  1.00  0.00    -0.341 OA
HETATM    8  N2  UNL     1      22.198   6.106  51.325  1.00  0.00    -0.256 NA
HETATM    9  C6  UNL     1      21.845   4.972  51.773  1.00  0.00     0.116 C 
HETATM   10  C7  UNL     1      21.896   3.617  52.246  1.00  0.00     0.051 C 
HETATM   11  C8  UNL     1      21.068   2.681  52.566  1.00  0.00     0.067 C 
HETATM   12  N3  UNL     1      19.714   3.094  52.265  1.00  0.00    -0.262 NA
HETATM   13  C15 UNL     1      19.553   3.298  50.942  1.00  0.00     0.121 C 
HETATM   14  C16 UNL     1      20.243   3.268  49.607  1.00  0.00     0.385 C 
HETATM   15  N4  UNL     1      21.421   2.975  49.227  1.00  0.00    -0.339 NA
HETATM   16  N5  UNL     1      21.960   2.986  47.953  1.00  0.00    -0.276 N 
HETATM   17  H16 UNL     1      22.280   2.022  47.635  1.00  0.00     0.200 HD
ENDROOT
BRANCH  11  18
HETATM   18  C9  UNL     1      21.647   1.474  53.005  1.00  0.00    -0.006 A 
HETATM   19  C10 UNL     1      20.695   0.584  53.434  1.00  0.00     0.014 A 
HETATM   20  C11 UNL     1      21.065  -0.679  53.873  1.00  0.00     0.002 A 
HETATM   21  C12 UNL     1      22.404  -0.993  53.856  1.00  0.00     0.019 A 
HETATM   22  C13 UNL     1      23.331  -0.073  53.417  1.00  0.00     0.011 A 
HETATM   23 BR1  UNL     1      25.158  -0.610  53.434  1.00  0.00    -0.051 Br
HETATM   24  C14 UNL     1      22.961   1.178  52.984  1.00  0.00     0.032 A 
ENDBRANCH  11  18
TORSDOF 1
ENDMDL
MODEL 5
REMARK VINA RESULT:      -7.0      3.388      4.460
REMARK  1 active torsions:
REMARK  status: ('A' for Active; 'I' for Inactive)
REMARK    1  A    between atoms: C8_11  and  C9_12 
ROOT
HETATM    1  C1  UNL     1      27.731   0.690  54.041  1.00  0.00     0.137 C 
HETATM    2  N1  UNL     1      26.557   0.019  53.463  1.00  0.00    -0.222 NA
HETATM    3  C2  UNL     1      25.587  -0.134  54.513  1.00  0.00     0.117 C 
HETATM    4  C3  UNL     1      24.371  -0.904  54.012  1.00  0.00     0.024 C 
HETATM    5  C4  UNL     1      23.034  -0.850  53.745  1.00  0.00     0.217 A 
HETATM    6  C5  UNL     1      21.572  -0.670  53.492  1.00  0.00     0.236 A 
HETATM    7  O1  UNL     1      22.068  -1.815  53.302  1.00  0.00    -0.341 OA
HETATM    8  N2  UNL     1      21.630   0.768  53.867  1.00  0.00    -0.256 NA
HETATM    9  C6  UNL     1      21.780   1.596  52.918  1.00  0.00     0.116 C 
HETATM   10  C7  UNL     1      21.941   2.146  51.600  1.00  0.00     0.051 C 
HETATM   11  C8  UNL     1      22.194   3.292  51.064  1.00  0.00     0.067 C 
HETATM   12  N3  UNL     1      22.496   4.264  52.093  1.00  0.00    -0.262 NA
HETATM   13  C15 UNL     1      23.605   3.919  52.775  1.00  0.00     0.121 C 
HETATM   14  C16 UNL     1      24.694   2.890  52.899  1.00  0.00     0.385 C 
HETATM   15  N4  UNL     1      24.972   1.817  52.274  1.00  0.00    -0.339 NA
HETATM   16  N5  UNL     1      26.013   0.928  52.478  1.00  0.00    -0.276 N 
HETATM   17  H16 UNL     1      26.663   0.858  51.638  1.00  0.00     0.200 HD
ENDROOT
BRANCH  11  18
HETATM   18  C9  UNL     1      22.237   3.313  49.657  1.00  0.00    -0.006 A 
HETATM   19  C10 UNL     1      22.302   2.047  49.134  1.00  0.00     0.014 A 
HETATM   20  C11 UNL     1      22.317   1.856  47.760  1.00  0.00     0.002 A 
HETATM   21  C12 UNL     1      22.261   2.973  46.961  1.00  0.00     0.019 A 
HETATM   22  C13 UNL     1      22.194   4.230  47.521  1.00  0.00     0.011 A 
HETATM   23 BR1  UNL     1      22.120   5.710  46.325  1.00  0.00    -0.051 Br
HETATM   24  C14 UNL     1      22.181   4.416  48.884  1.00  0.00     0.032 A 
ENDBRANCH  11  18
TORSDOF 1
ENDMDL
MODEL 6
REMARK VINA RESULT:      -6.9      4.343      7.296
REMARK  1 active torsions:
REMARK  status: ('A' for Active; 'I' for Inactive)
REMARK    1  A    between atoms: C8_11  and  C9_12 
ROOT
HETATM    1  C1  UNL     1      21.095   3.691  45.834  1.00  0.00     0.137 C 
HETATM    2  N1  UNL     1      22.074   3.540  46.920  1.00  0.00    -0.222 NA
HETATM    3  C2  UNL     1      22.343   4.852  47.444  1.00  0.00     0.117 C 
HETATM    4  C3  UNL     1      23.422   4.788  48.520  1.00  0.00     0.024 C 
HETATM    5  C4  UNL     1      23.707   4.971  49.841  1.00  0.00     0.217 A 
HETATM    6  C5  UNL     1      23.898   5.205  51.305  1.00  0.00     0.236 A 
HETATM    7  O1  UNL     1      24.909   4.885  50.621  1.00  0.00    -0.341 OA
HETATM    8  N2  UNL     1      22.456   5.515  51.498  1.00  0.00    -0.256 NA
HETATM    9  C6  UNL     1      21.714   4.553  51.864  1.00  0.00     0.116 C 
HETATM   10  C7  UNL     1      21.275   3.246  52.266  1.00  0.00     0.051 C 
HETATM   11  C8  UNL     1      20.160   2.635  52.491  1.00  0.00     0.067 C 
HETATM   12  N3  UNL     1      19.048   3.492  52.139  1.00  0.00    -0.262 NA
HETATM   13  C15 UNL     1      19.056   3.781  50.823  1.00  0.00     0.121 C 
HETATM   14  C16 UNL     1      19.786   3.562  49.527  1.00  0.00     0.385 C 
HETATM   15  N4  UNL     1      20.821   2.900  49.196  1.00  0.00    -0.339 NA
HETATM   16  N5  UNL     1      21.418   2.769  47.955  1.00  0.00    -0.276 N 
HETATM   17  H16 UNL     1      21.418   1.765  47.603  1.00  0.00     0.200 HD
ENDROOT
BRANCH  11  18
HETATM   18  C9  UNL     1      20.269   1.291  52.895  1.00  0.00    -0.006 A 
HETATM   19  C10 UNL     1      21.550   0.979  53.271  1.00  0.00     0.014 A 
HETATM   20  C11 UNL     1      21.854  -0.293  53.736  1.00  0.00     0.002 A 
HETATM   21  C12 UNL     1      20.830  -1.208  53.804  1.00  0.00     0.019 A 
HETATM   22  C13 UNL     1      19.555  -0.858  53.418  1.00  0.00     0.011 A 
HETATM   23 BR1  UNL     1      18.210  -2.200  53.551  1.00  0.00    -0.051 Br
HETATM   24  C14 UNL     1      19.258   0.403  52.957  1.00  0.00     0.032 A 
ENDBRANCH  11  18
TORSDOF 1
ENDMDL
MODEL 7
REMARK VINA RESULT:      -6.8      6.776      9.990
REMARK  1 active torsions:
REMARK  status: ('A' for Active; 'I' for Inactive)
REMARK    1  A    between atoms: C8_11  and  C9_12 
ROOT
HETATM    1  C1  UNL     1      33.340   8.113  42.849  1.00  0.00     0.137 C 
HETATM    2  N1  UNL     1      32.695   6.910  43.394  1.00  0.00    -0.222 NA
HETATM    3  C2  UNL     1      33.626   6.294  44.300  1.00  0.00     0.117 C 
HETATM    4  C3  UNL     1      33.061   4.986  44.841  1.00  0.00     0.024 C 
HETATM    5  C4  UNL     1      32.625   4.319  45.949  1.00  0.00     0.217 A 
HETATM    6  C5  UNL     1      32.173   3.694  47.229  1.00  0.00     0.236 A 
HETATM    7  O1  UNL     1      32.169   2.979  46.190  1.00  0.00    -0.341 OA
HETATM    8  N2  UNL     1      32.398   4.954  47.986  1.00  0.00    -0.256 NA
HETATM    9  C6  UNL     1      31.392   5.714  48.135  1.00  0.00     0.116 C 
HETATM   10  C7  UNL     1      30.054   6.233  48.071  1.00  0.00     0.051 C 
HETATM   11  C8  UNL     1      29.435   7.326  48.365  1.00  0.00     0.067 C 
HETATM   12  N3  UNL     1      30.384   8.336  48.782  1.00  0.00    -0.262 NA
HETATM   13  C15 UNL     1      31.233   8.645  47.781  1.00  0.00     0.121 C 
HETATM   14  C16 UNL     1      31.600   8.350  46.354  1.00  0.00     0.385 C 
HETATM   15  N4  UNL     1      31.133   7.571  45.464  1.00  0.00    -0.339 NA
HETATM   16  N5  UNL     1      31.558   7.371  44.162  1.00  0.00    -0.276 N 
HETATM   17  H16 UNL     1      30.819   7.633  43.444  1.00  0.00     0.200 HD
ENDROOT
BRANCH  11  18
HETATM   18  C9  UNL     1      28.050   7.332  48.112  1.00  0.00    -0.006 A 
HETATM   19  C10 UNL     1      27.722   8.219  47.119  1.00  0.00     0.014 A 
HETATM   20  C11 UNL     1      26.405   8.346  46.699  1.00  0.00     0.002 A 
HETATM   21  C12 UNL     1      25.463   7.553  47.310  1.00  0.00     0.019 A 
HETATM   22  C13 UNL     1      25.830   6.672  48.303  1.00  0.00     0.011 A 
HETATM   23 BR1  UNL     1      24.446   5.621  49.084  1.00  0.00    -0.051 Br
HETATM   24  C14 UNL     1      27.135   6.550  48.718  1.00  0.00     0.032 A 
ENDBRANCH  11  18
TORSDOF 1
ENDMDL
MODEL 8
REMARK VINA RESULT:      -6.8      3.967      6.709
REMARK  1 active torsions:
REMARK  status: ('A' for Active; 'I' for Inactive)
REMARK    1  A    between atoms: C8_11  and  C9_12 
ROOT
HETATM    1  C1  UNL     1      21.534   7.815  50.830  1.00  0.00     0.137 C 
HETATM    2  N1  UNL     1      20.867   6.664  50.205  1.00  0.00    -0.222 NA
HETATM    3  C2  UNL     1      21.511   6.424  48.943  1.00  0.00     0.117 C 
HETATM    4  C3  UNL     1      20.814   5.296  48.191  1.00  0.00     0.024 C 
HETATM    5  C4  UNL     1      20.933   4.031  47.694  1.00  0.00     0.217 A 
HETATM    6  C5  UNL     1      21.183   2.645  47.193  1.00  0.00     0.236 A 
HETATM    7  O1  UNL     1      20.071   3.178  46.926  1.00  0.00    -0.341 OA
HETATM    8  N2  UNL     1      22.541   2.614  47.799  1.00  0.00    -0.256 NA
HETATM    9  C6  UNL     1      22.637   2.093  48.951  1.00  0.00     0.116 C 
HETATM   10  C7  UNL     1      22.297   1.443  50.187  1.00  0.00     0.051 C 
HETATM   11  C8  UNL     1      22.866   1.160  51.310  1.00  0.00     0.067 C 
HETATM   12  N3  UNL     1      24.183   1.759  51.361  1.00  0.00    -0.262 NA
HETATM   13  C15 UNL     1      24.106   3.103  51.311  1.00  0.00     0.121 C 
HETATM   14  C16 UNL     1      23.165   4.272  51.218  1.00  0.00     0.385 C 
HETATM   15  N4  UNL     1      21.900   4.385  51.154  1.00  0.00    -0.339 NA
HETATM   16  N5  UNL     1      21.125   5.528  51.065  1.00  0.00    -0.276 N 
HETATM   17  H16 UNL     1      20.477   5.651  51.900  1.00  0.00     0.200 HD
ENDROOT
BRANCH  11  18
HETATM   18  C9  UNL     1      22.071   0.466  52.241  1.00  0.00    -0.006 A 
HETATM   19  C10 UNL     1      22.785   0.127  53.362  1.00  0.00     0.014 A 
HETATM   20  C11 UNL     1      22.166  -0.533  54.414  1.00  0.00     0.002 A 
HETATM   21  C12 UNL     1      20.828  -0.823  54.286  1.00  0.00     0.019 A 
HETATM   22  C13 UNL     1      20.143  -0.466  53.145  1.00  0.00     0.011 A 
HETATM   23 BR1  UNL     1      18.294  -0.916  53.069  1.00  0.00    -0.051 Br
HETATM   24  C14 UNL     1      20.760   0.186  52.104  1.00  0.00     0.032 A 
ENDBRANCH  11  18
TORSDOF 1
ENDMDL
MODEL 9
REMARK VINA RESULT:      -6.6      3.172      4.433
REMARK  1 active torsions:
REMARK  status: ('A' for Active; 'I' for Inactive)
REMARK    1  A    between atoms: C8_11  and  C9_12 
ROOT
HETATM    1  C1  UNL     1      20.167  -0.548  53.482  1.00  0.00     0.137 C 
HETATM    2  N1  UNL     1      21.374   0.204  53.853  1.00  0.00    -0.222 NA
HETATM    3  C2  UNL     1      22.510  -0.606  53.506  1.00  0.00     0.117 C 
HETATM    4  C3  UNL     1      23.804   0.071  53.944  1.00  0.00     0.024 C 
HETATM    5  C4  UNL     1      24.973   0.642  53.532  1.00  0.00     0.217 A 
HETATM    6  C5  UNL     1      26.217   1.242  52.961  1.00  0.00     0.236 A 
HETATM    7  O1  UNL     1      26.113   1.183  54.216  1.00  0.00    -0.341 OA
HETATM    8  N2  UNL     1      25.744   1.028  51.567  1.00  0.00    -0.256 NA
HETATM    9  C6  UNL     1      25.154   2.005  51.012  1.00  0.00     0.116 C 
HETATM   10  C7  UNL     1      24.583   3.304  50.787  1.00  0.00     0.051 C 
HETATM   11  C8  UNL     1      23.865   3.894  49.892  1.00  0.00     0.067 C 
HETATM   12  N3  UNL     1      23.442   2.940  48.889  1.00  0.00    -0.262 NA
HETATM   13  C15 UNL     1      22.656   1.987  49.429  1.00  0.00     0.121 C 
HETATM   14  C16 UNL     1      22.021   1.501  50.702  1.00  0.00     0.385 C 
HETATM   15  N4  UNL     1      22.016   1.920  51.903  1.00  0.00    -0.339 NA
HETATM   16  N5  UNL     1      21.392   1.384  53.016  1.00  0.00    -0.276 N 
HETATM   17  H16 UNL     1      20.665   2.039  53.434  1.00  0.00     0.200 HD
ENDROOT
BRANCH  11  18
HETATM   18  C9  UNL     1      23.566   5.248  50.142  1.00  0.00    -0.006 A 
HETATM   19  C10 UNL     1      24.665   5.934  50.589  1.00  0.00     0.014 A 
HETATM   20  C11 UNL     1      24.581   7.293  50.858  1.00  0.00     0.002 A 
HETATM   21  C12 UNL     1      23.369   7.909  50.656  1.00  0.00     0.019 A 
HETATM   22  C13 UNL     1      22.286   7.187  50.205  1.00  0.00     0.011 A 
HETATM   23 BR1  UNL     1      20.653   8.136  49.959  1.00  0.00    -0.051 Br
HETATM   24  C14 UNL     1      22.372   5.840  49.941  1.00  0.00     0.032 A 
ENDBRANCH  11  18
TORSDOF 1
ENDMDL
