MODEL 1
REMARK VINA RESULT:      -8.3      0.000      0.000
REMARK  7 active torsions:
REMARK  status: ('A' for Active; 'I' for Inactive)
REMARK    1  A    between atoms: C3_3  and  C4_4 
REMARK    2  A    between atoms: C3_3  and  N1_17 
REMARK    3  A    between atoms: C5_5  and  C6_7 
REMARK    4  A    between atoms: C6_7  and  O1_8 
REMARK    5  A    between atoms: O1_8  and  C7_9 
REMARK    6  A    between atoms: C7_9  and  C8_10 
REMARK    7  A    between atoms: N1_17  and  C14_18 
ROOT
HETATM    1  C1  UNL     1      22.998  -0.817  53.687  1.00  0.00     0.099 C 
HETATM    2  C2  UNL     1      23.784   0.134  53.202  1.00  0.00    -0.126 C 
HETATM    3  C3  UNL     1      24.467   1.176  52.787  1.00  0.00     0.077 C 
ENDROOT
BRANCH   3   4
HETATM    4  C4  UNL     1      23.993   2.481  53.107  1.00  0.00     0.059 C 
HETATM    5  C5  UNL     1      23.936   3.523  52.272  1.00  0.00     0.038 C 
HETATM    6 CL1  UNL     1      23.344   5.125  52.700  1.00  0.00    -0.087 Cl
BRANCH   5   7
HETATM    7  C6  UNL     1      24.315   3.648  50.853  1.00  0.00     0.219 C 
BRANCH   7   8
HETATM    8  O1  UNL     1      25.701   3.758  50.771  1.00  0.00    -0.381 OA
BRANCH   8   9
HETATM    9  C7  UNL     1      26.180   3.525  49.502  1.00  0.00     0.206 C 
BRANCH   9  10
HETATM   10  C8  UNL     1      26.713   4.816  48.949  1.00  0.00    -0.032 A 
HETATM   11  C9  UNL     1      28.056   4.910  48.600  1.00  0.00     0.009 A 
HETATM   12  C10 UNL     1      28.619   6.073  48.082  1.00  0.00     0.004 A 
HETATM   13  C11 UNL     1      27.798   7.179  47.909  1.00  0.00     0.042 A 
HETATM   14  C12 UNL     1      26.469   7.081  48.256  1.00  0.00     0.117 A 
HETATM   15  F1  UNL     1      25.653   8.163  48.090  1.00  0.00    -0.206 F 
HETATM   16  C13 UNL     1      25.906   5.923  48.772  1.00  0.00     0.051 A 
ENDBRANCH   9  10
ENDBRANCH   8   9
ENDBRANCH   7   8
ENDBRANCH   5   7
ENDBRANCH   3   4
BRANCH   3  17
HETATM   17  N1  UNL     1      25.592   0.781  52.069  1.00  0.00    -0.334 N 
HETATM   18  H12 UNL     1      25.322   0.499  51.103  1.00  0.00     0.168 HD
BRANCH  17  19
HETATM   19  C14 UNL     1      26.883   0.799  52.666  1.00  0.00     0.137 A 
HETATM   20  N2  UNL     1      27.343   2.015  53.010  1.00  0.00    -0.224 NA
HETATM   21  C15 UNL     1      28.566   2.162  53.589  1.00  0.00     0.235 A 
HETATM   22  N3  UNL     1      29.305   1.036  53.807  1.00  0.00    -0.246 NA
HETATM   23  C16 UNL     1      28.850  -0.183  53.465  1.00  0.00     0.041 A 
HETATM   24  C17 UNL     1      29.729  -1.324  53.747  1.00  0.00     0.071 C 
HETATM   25  C18 UNL     1      27.626  -0.342  52.884  1.00  0.00     0.008 A 
HETATM   26  C19 UNL     1      27.101  -1.653  52.500  1.00  0.00     0.054 C 
ENDBRANCH  17  19
ENDBRANCH   3  17
TORSDOF 7
ENDMDL
MODEL 2
REMARK VINA RESULT:      -8.0      3.442      6.410
REMARK  7 active torsions:
REMARK  status: ('A' for Active; 'I' for Inactive)
REMARK    1  A    between atoms: C3_3  and  C4_4 
REMARK    2  A    between atoms: C3_3  and  N1_17 
REMARK    3  A    between atoms: C5_5  and  C6_7 
REMARK    4  A    between atoms: C6_7  and  O1_8 
REMARK    5  A    between atoms: O1_8  and  C7_9 
REMARK    6  A    between atoms: C7_9  and  C8_10 
REMARK    7  A    between atoms: N1_17  and  C14_18 
ROOT
HETATM    1  C1  UNL     1      22.090   1.646  49.167  1.00  0.00     0.099 C 
HETATM    2  C2  UNL     1      22.651   1.851  50.350  1.00  0.00    -0.126 C 
HETATM    3  C3  UNL     1      23.081   1.994  51.582  1.00  0.00     0.077 C 
ENDROOT
BRANCH   3   4
HETATM    4  C4  UNL     1      22.236   1.591  52.656  1.00  0.00     0.059 C 
HETATM    5  C5  UNL     1      22.382   0.493  53.403  1.00  0.00     0.038 C 
HETATM    6 CL1  UNL     1      21.317   0.024  54.724  1.00  0.00    -0.087 Cl
BRANCH   5   7
HETATM    7  C6  UNL     1      23.395  -0.577  53.362  1.00  0.00     0.219 C 
BRANCH   7   8
HETATM    8  O1  UNL     1      24.656  -0.001  53.490  1.00  0.00    -0.381 OA
BRANCH   8   9
HETATM    9  C7  UNL     1      25.662  -0.806  53.009  1.00  0.00     0.206 C 
BRANCH   9  10
HETATM   10  C8  UNL     1      26.980  -0.135  53.276  1.00  0.00    -0.032 A 
HETATM   11  C9  UNL     1      27.026   1.247  53.430  1.00  0.00     0.009 A 
HETATM   12  C10 UNL     1      28.211   1.936  53.680  1.00  0.00     0.004 A 
HETATM   13  C11 UNL     1      29.387   1.206  53.777  1.00  0.00     0.042 A 
HETATM   14  C12 UNL     1      29.335  -0.162  53.623  1.00  0.00     0.117 A 
HETATM   15  F1  UNL     1      30.486  -0.890  53.718  1.00  0.00    -0.206 F 
HETATM   16  C13 UNL     1      28.157  -0.850  53.376  1.00  0.00     0.051 A 
ENDBRANCH   9  10
ENDBRANCH   8   9
ENDBRANCH   7   8
ENDBRANCH   5   7
ENDBRANCH   3   4
BRANCH   3  17
HETATM   17  N1  UNL     1      24.358   2.546  51.604  1.00  0.00    -0.334 N 
HETATM   18  H12 UNL     1      25.039   1.865  52.002  1.00  0.00     0.168 HD
BRANCH  17  19
HETATM   19  C14 UNL     1      24.591   3.865  51.126  1.00  0.00     0.137 A 
HETATM   20  N2  UNL     1      23.819   4.822  51.671  1.00  0.00    -0.224 NA
HETATM   21  C15 UNL     1      23.949   6.123  51.294  1.00  0.00     0.235 A 
HETATM   22  N3  UNL     1      24.886   6.422  50.347  1.00  0.00    -0.246 NA
HETATM   23  C16 UNL     1      25.660   5.468  49.799  1.00  0.00     0.041 A 
HETATM   24  C17 UNL     1      26.634   5.903  48.790  1.00  0.00     0.071 C 
HETATM   25  C18 UNL     1      25.539   4.162  50.169  1.00  0.00     0.008 A 
HETATM   26  C19 UNL     1      26.366   3.100  49.592  1.00  0.00     0.054 C 
ENDBRANCH  17  19
ENDBRANCH   3  17
TORSDOF 7
ENDMDL
MODEL 3
REMARK VINA RESULT:      -8.0      3.853      5.823
REMARK  7 active torsions:
REMARK  status: ('A' for Active; 'I' for Inactive)
REMARK    1  A    between atoms: C3_3  and  C4_4 
REMARK    2  A    between atoms: C3_3  and  N1_17 
REMARK    3  A    between atoms: C5_5  and  C6_7 
REMARK    4  A    between atoms: C6_7  and  O1_8 
REMARK    5  A    between atoms: O1_8  and  C7_9 
REMARK    6  A    between atoms: C7_9  and  C8_10 
REMARK    7  A    between atoms: N1_17  and  C14_18 
ROOT
HETATM    1  C1  UNL     1      23.314  -0.868  54.163  1.00  0.00     0.099 C 
HETATM    2  C2  UNL     1      23.905   0.086  53.458  1.00  0.00    -0.126 C 
HETATM    3  C3  UNL     1      24.386   1.125  52.815  1.00  0.00     0.077 C 
ENDROOT
BRANCH   3   4
HETATM    4  C4  UNL     1      23.727   2.382  52.950  1.00  0.00     0.059 C 
HETATM    5  C5  UNL     1      23.223   3.115  51.954  1.00  0.00     0.038 C 
HETATM    6 CL1  UNL     1      22.414   4.667  52.155  1.00  0.00    -0.087 Cl
BRANCH   5   7
HETATM    7  C6  UNL     1      23.184   2.877  50.500  1.00  0.00     0.219 C 
BRANCH   7   8
HETATM    8  O1  UNL     1      21.869   2.609  50.128  1.00  0.00    -0.381 OA
BRANCH   8   9
HETATM    9  C7  UNL     1      21.663   1.286  49.813  1.00  0.00     0.206 C 
BRANCH   9  10
HETATM   10  C8  UNL     1      20.504   0.777  50.623  1.00  0.00    -0.032 A 
HETATM   11  C9  UNL     1      19.225   0.797  50.077  1.00  0.00     0.009 A 
HETATM   12  C10 UNL     1      18.106   0.341  50.770  1.00  0.00     0.004 A 
HETATM   13  C11 UNL     1      18.284  -0.151  52.055  1.00  0.00     0.042 A 
HETATM   14  C12 UNL     1      19.553  -0.168  52.590  1.00  0.00     0.117 A 
HETATM   15  F1  UNL     1      19.739  -0.650  53.854  1.00  0.00    -0.206 F 
HETATM   16  C13 UNL     1      20.669   0.285  51.903  1.00  0.00     0.051 A 
ENDBRANCH   9  10
ENDBRANCH   8   9
ENDBRANCH   7   8
ENDBRANCH   5   7
ENDBRANCH   3   4
BRANCH   3  17
HETATM   17  N1  UNL     1      25.515   0.779  52.080  1.00  0.00    -0.334 N 
HETATM   18  H12 UNL     1      25.244   0.493  51.115  1.00  0.00     0.168 HD
BRANCH  17  19
HETATM   19  C14 UNL     1      26.813   0.842  52.659  1.00  0.00     0.137 A 
HETATM   20  N2  UNL     1      27.254   2.078  52.954  1.00  0.00    -0.224 NA
HETATM   21  C15 UNL     1      28.480   2.267  53.513  1.00  0.00     0.235 A 
HETATM   22  N3  UNL     1      29.243   1.164  53.762  1.00  0.00    -0.246 NA
HETATM   23  C16 UNL     1      28.807  -0.075  53.469  1.00  0.00     0.041 A 
HETATM   24  C17 UNL     1      29.711  -1.188  53.779  1.00  0.00     0.071 C 
HETATM   25  C18 UNL     1      27.580  -0.276  52.909  1.00  0.00     0.008 A 
HETATM   26  C19 UNL     1      27.076  -1.610  52.577  1.00  0.00     0.054 C 
ENDBRANCH  17  19
ENDBRANCH   3  17
TORSDOF 7
ENDMDL
MODEL 4
REMARK VINA RESULT:      -7.9      3.167      5.986
REMARK  7 active torsions:
REMARK  status: ('A' for Active; 'I' for Inactive)
REMARK    1  A    between atoms: C3_3  and  C4_4 
REMARK    2  A    between atoms: C3_3  and  N1_17 
REMARK    3  A    between atoms: C5_5  and  C6_7 
REMARK    4  A    between atoms: C6_7  and  O1_8 
REMARK    5  A    between atoms: O1_8  and  C7_9 
REMARK    6  A    between atoms: C7_9  and  C8_10 
REMARK    7  A    between atoms: N1_17  and  C14_18 
ROOT
HETATM    1  C1  UNL     1      26.565   2.899  50.041  1.00  0.00     0.099 C 
HETATM    2  C2  UNL     1      25.890   2.611  51.145  1.00  0.00    -0.126 C 
HETATM    3  C3  UNL     1      25.135   2.445  52.206  1.00  0.00     0.077 C 
ENDROOT
BRANCH   3   4
HETATM    4  C4  UNL     1      24.080   3.372  52.450  1.00  0.00     0.059 C 
HETATM    5  C5  UNL     1      23.024   3.586  51.662  1.00  0.00     0.038 C 
HETATM    6 CL1  UNL     1      21.737   4.742  51.994  1.00  0.00    -0.087 Cl
BRANCH   5   7
HETATM    7  C6  UNL     1      22.633   2.974  50.380  1.00  0.00     0.219 C 
BRANCH   7   8
HETATM    8  O1  UNL     1      22.603   1.590  50.538  1.00  0.00    -0.381 OA
BRANCH   8   9
HETATM    9  C7  UNL     1      21.327   1.097  50.679  1.00  0.00     0.206 C 
BRANCH   9  10
HETATM   10  C8  UNL     1      21.261   0.302  51.953  1.00  0.00    -0.032 A 
HETATM   11  C9  UNL     1      20.023  -0.080  52.459  1.00  0.00     0.009 A 
HETATM   12  C10 UNL     1      19.886  -0.817  53.632  1.00  0.00     0.004 A 
HETATM   13  C11 UNL     1      21.036  -1.180  54.317  1.00  0.00     0.042 A 
HETATM   14  C12 UNL     1      22.259  -0.800  53.812  1.00  0.00     0.117 A 
HETATM   15  F1  UNL     1      23.398  -1.153  54.478  1.00  0.00    -0.206 F 
HETATM   16  C13 UNL     1      22.399  -0.066  52.643  1.00  0.00     0.051 A 
ENDBRANCH   9  10
ENDBRANCH   8   9
ENDBRANCH   7   8
ENDBRANCH   5   7
ENDBRANCH   3   4
BRANCH   3  17
HETATM   17  N1  UNL     1      25.534   1.328  52.933  1.00  0.00    -0.334 N 
HETATM   18  H12 UNL     1      24.712   0.723  53.146  1.00  0.00     0.168 HD
BRANCH  17  19
HETATM   19  C14 UNL     1      26.898   1.134  53.284  1.00  0.00     0.137 A 
HETATM   20  N2  UNL     1      27.535   2.222  53.752  1.00  0.00    -0.224 NA
HETATM   21  C15 UNL     1      28.843   2.163  54.120  1.00  0.00     0.235 A 
HETATM   22  N3  UNL     1      29.485   0.964  53.998  1.00  0.00    -0.246 NA
HETATM   23  C16 UNL     1      28.853  -0.128  53.530  1.00  0.00     0.041 A 
HETATM   24  C17 UNL     1      29.640  -1.364  53.441  1.00  0.00     0.071 C 
HETATM   25  C18 UNL     1      27.542  -0.079  53.158  1.00  0.00     0.008 A 
HETATM   26  C19 UNL     1      26.825  -1.248  52.645  1.00  0.00     0.054 C 
ENDBRANCH  17  19
ENDBRANCH   3  17
TORSDOF 7
ENDMDL
MODEL 5
REMARK VINA RESULT:      -7.7      2.165      3.533
REMARK  7 active torsions:
REMARK  status: ('A' for Active; 'I' for Inactive)
REMARK    1  A    between atoms: C3_3  and  C4_4 
REMARK    2  A    between atoms: C3_3  and  N1_17 
REMARK    3  A    between atoms: C5_5  and  C6_7 
REMARK    4  A    between atoms: C6_7  and  O1_8 
REMARK    5  A    between atoms: O1_8  and  C7_9 
REMARK    6  A    between atoms: C7_9  and  C8_10 
REMARK    7  A    between atoms: N1_17  and  C14_18 
ROOT
HETATM    1  C1  UNL     1      26.809   3.818  49.516  1.00  0.00     0.099 C 
HETATM    2  C2  UNL     1      25.974   3.340  50.427  1.00  0.00    -0.126 C 
HETATM    3  C3  UNL     1      25.054   2.833  51.214  1.00  0.00     0.077 C 
ENDROOT
BRANCH   3   4
HETATM    4  C4  UNL     1      23.845   2.346  50.635  1.00  0.00     0.059 C 
HETATM    5  C5  UNL     1      22.608   2.592  51.075  1.00  0.00     0.038 C 
HETATM    6 CL1  UNL     1      21.135   1.974  50.335  1.00  0.00    -0.087 Cl
BRANCH   5   7
HETATM    7  C6  UNL     1      22.128   3.392  52.216  1.00  0.00     0.219 C 
BRANCH   7   8
HETATM    8  O1  UNL     1      22.848   4.584  52.258  1.00  0.00    -0.381 OA
BRANCH   8   9
HETATM    9  C7  UNL     1      22.298   5.567  51.469  1.00  0.00     0.206 C 
BRANCH   9  10
HETATM   10  C8  UNL     1      23.363   6.090  50.547  1.00  0.00    -0.032 A 
HETATM   11  C9  UNL     1      23.255   5.868  49.178  1.00  0.00     0.009 A 
HETATM   12  C10 UNL     1      24.203   6.323  48.266  1.00  0.00     0.004 A 
HETATM   13  C11 UNL     1      25.296   7.027  48.751  1.00  0.00     0.042 A 
HETATM   14  C12 UNL     1      25.399   7.244  50.106  1.00  0.00     0.117 A 
HETATM   15  F1  UNL     1      26.471   7.935  50.594  1.00  0.00    -0.206 F 
HETATM   16  C13 UNL     1      24.456   6.792  51.018  1.00  0.00     0.051 A 
ENDBRANCH   9  10
ENDBRANCH   8   9
ENDBRANCH   7   8
ENDBRANCH   5   7
ENDBRANCH   3   4
BRANCH   3  17
HETATM   17  N1  UNL     1      25.458   2.872  52.545  1.00  0.00    -0.334 N 
HETATM   18  H12 UNL     1      25.405   3.846  52.910  1.00  0.00     0.168 HD
BRANCH  17  19
HETATM   19  C14 UNL     1      25.867   1.687  53.219  1.00  0.00     0.137 A 
HETATM   20  N2  UNL     1      24.890   0.794  53.460  1.00  0.00    -0.224 NA
HETATM   21  C15 UNL     1      25.157  -0.377  54.099  1.00  0.00     0.235 A 
HETATM   22  N3  UNL     1      26.445  -0.613  54.484  1.00  0.00    -0.246 NA
HETATM   23  C16 UNL     1      27.425   0.277  54.245  1.00  0.00     0.041 A 
HETATM   24  C17 UNL     1      28.773  -0.081  54.703  1.00  0.00     0.071 C 
HETATM   25  C18 UNL     1      27.169   1.454  53.606  1.00  0.00     0.008 A 
HETATM   26  C19 UNL     1      28.212   2.444  53.331  1.00  0.00     0.054 C 
ENDBRANCH  17  19
ENDBRANCH   3  17
TORSDOF 7
ENDMDL
MODEL 6
REMARK VINA RESULT:      -7.6      2.590      3.433
REMARK  7 active torsions:
REMARK  status: ('A' for Active; 'I' for Inactive)
REMARK    1  A    between atoms: C3_3  and  C4_4 
REMARK    2  A    between atoms: C3_3  and  N1_17 
REMARK    3  A    between atoms: C5_5  and  C6_7 
REMARK    4  A    between atoms: C6_7  and  O1_8 
REMARK    5  A    between atoms: O1_8  and  C7_9 
REMARK    6  A    between atoms: C7_9  and  C8_10 
REMARK    7  A    between atoms: N1_17  and  C14_18 
ROOT
HETATM    1  C1  UNL     1      23.664   4.343  53.009  1.00  0.00     0.099 C 
HETATM    2  C2  UNL     1      23.541   3.079  52.629  1.00  0.00    -0.126 C 
HETATM    3  C3  UNL     1      23.270   1.848  52.263  1.00  0.00     0.077 C 
ENDROOT
BRANCH   3   4
HETATM    4  C4  UNL     1      21.907   1.434  52.200  1.00  0.00     0.059 C 
HETATM    5  C5  UNL     1      21.230   1.127  51.090  1.00  0.00     0.038 C 
HETATM    6 CL1  UNL     1      19.545   0.619  51.046  1.00  0.00    -0.087 Cl
BRANCH   5   7
HETATM    7  C6  UNL     1      21.645   1.115  49.675  1.00  0.00     0.219 C 
BRANCH   7   8
HETATM    8  O1  UNL     1      21.763   2.431  49.235  1.00  0.00    -0.381 OA
BRANCH   8   9
HETATM    9  C7  UNL     1      22.839   2.619  48.399  1.00  0.00     0.206 C 
BRANCH   9  10
HETATM   10  C8  UNL     1      23.698   3.714  48.966  1.00  0.00    -0.032 A 
HETATM   11  C9  UNL     1      25.019   3.441  49.307  1.00  0.00     0.009 A 
HETATM   12  C10 UNL     1      25.872   4.406  49.837  1.00  0.00     0.004 A 
HETATM   13  C11 UNL     1      25.376   5.687  50.029  1.00  0.00     0.042 A 
HETATM   14  C12 UNL     1      24.068   5.951  49.690  1.00  0.00     0.117 A 
HETATM   15  F1  UNL     1      23.570   7.209  49.875  1.00  0.00    -0.206 F 
HETATM   16  C13 UNL     1      23.216   4.993  49.162  1.00  0.00     0.051 A 
ENDBRANCH   9  10
ENDBRANCH   8   9
ENDBRANCH   7   8
ENDBRANCH   5   7
ENDBRANCH   3   4
BRANCH   3  17
HETATM   17  N1  UNL     1      24.436   1.139  51.992  1.00  0.00    -0.334 N 
HETATM   18  H12 UNL     1      24.593   1.082  50.963  1.00  0.00     0.168 HD
BRANCH  17  19
HETATM   19  C14 UNL     1      25.231   0.610  53.047  1.00  0.00     0.137 A 
HETATM   20  N2  UNL     1      24.603  -0.251  53.867  1.00  0.00    -0.224 NA
HETATM   21  C15 UNL     1      25.258  -0.824  54.913  1.00  0.00     0.235 A 
HETATM   22  N3  UNL     1      26.569  -0.494  55.100  1.00  0.00    -0.246 NA
HETATM   23  C16 UNL     1      27.202   0.367  54.282  1.00  0.00     0.041 A 
HETATM   24  C17 UNL     1      28.612   0.648  54.578  1.00  0.00     0.071 C 
HETATM   25  C18 UNL     1      26.555   0.947  53.231  1.00  0.00     0.008 A 
HETATM   26  C19 UNL     1      27.214   1.887  52.324  1.00  0.00     0.054 C 
ENDBRANCH  17  19
ENDBRANCH   3  17
TORSDOF 7
ENDMDL
MODEL 7
REMARK VINA RESULT:      -7.5      4.963      7.636
REMARK  7 active torsions:
REMARK  status: ('A' for Active; 'I' for Inactive)
REMARK    1  A    between atoms: C3_3  and  C4_4 
REMARK    2  A    between atoms: C3_3  and  N1_17 
REMARK    3  A    between atoms: C5_5  and  C6_7 
REMARK    4  A    between atoms: C6_7  and  O1_8 
REMARK    5  A    between atoms: O1_8  and  C7_9 
REMARK    6  A    between atoms: C7_9  and  C8_10 
REMARK    7  A    between atoms: N1_17  and  C14_18 
ROOT
HETATM    1  C1  UNL     1      22.915  -1.187  54.940  1.00  0.00     0.099 C 
HETATM    2  C2  UNL     1      22.378  -0.302  54.112  1.00  0.00    -0.126 C 
HETATM    3  C3  UNL     1      21.973   0.562  53.210  1.00  0.00     0.077 C 
ENDROOT
BRANCH   3   4
HETATM    4  C4  UNL     1      22.847   0.892  52.134  1.00  0.00     0.059 C 
HETATM    5  C5  UNL     1      23.894   1.719  52.196  1.00  0.00     0.038 C 
HETATM    6 CL1  UNL     1      24.955   2.106  50.845  1.00  0.00    -0.087 Cl
BRANCH   5   7
HETATM    7  C6  UNL     1      24.446   2.499  53.319  1.00  0.00     0.219 C 
BRANCH   7   8
HETATM    8  O1  UNL     1      25.804   2.212  53.434  1.00  0.00    -0.381 OA
BRANCH   8   9
HETATM    9  C7  UNL     1      26.081   1.344  54.465  1.00  0.00     0.206 C 
BRANCH   9  10
HETATM   10  C8  UNL     1      26.930   0.226  53.931  1.00  0.00    -0.032 A 
HETATM   11  C9  UNL     1      28.285   0.184  54.245  1.00  0.00     0.009 A 
HETATM   12  C10 UNL     1      29.132  -0.822  53.787  1.00  0.00     0.004 A 
HETATM   13  C11 UNL     1      28.593  -1.819  52.986  1.00  0.00     0.042 A 
HETATM   14  C12 UNL     1      27.252  -1.773  52.678  1.00  0.00     0.117 A 
HETATM   15  F1  UNL     1      26.713  -2.748  51.890  1.00  0.00    -0.206 F 
HETATM   16  C13 UNL     1      26.406  -0.772  53.133  1.00  0.00     0.051 A 
ENDBRANCH   9  10
ENDBRANCH   8   9
ENDBRANCH   7   8
ENDBRANCH   5   7
ENDBRANCH   3   4
BRANCH   3  17
HETATM   17  N1  UNL     1      20.691   1.020  53.497  1.00  0.00    -0.334 N 
HETATM   18  H12 UNL     1      20.416   0.741  54.463  1.00  0.00     0.168 HD
BRANCH  17  19
HETATM   19  C14 UNL     1      19.947   1.759  52.535  1.00  0.00     0.137 A 
HETATM   20  N2  UNL     1      20.219   3.075  52.482  1.00  0.00    -0.224 NA
HETATM   21  C15 UNL     1      19.572   3.887  51.603  1.00  0.00     0.235 A 
HETATM   22  N3  UNL     1      18.642   3.321  50.780  1.00  0.00    -0.246 NA
HETATM   23  C16 UNL     1      18.366   2.005  50.829  1.00  0.00     0.041 A 
HETATM   24  C17 UNL     1      17.348   1.504  49.898  1.00  0.00     0.071 C 
HETATM   25  C18 UNL     1      19.008   1.182  51.707  1.00  0.00     0.008 A 
HETATM   26  C19 UNL     1      18.732  -0.253  51.786  1.00  0.00     0.054 C 
ENDBRANCH  17  19
ENDBRANCH   3  17
TORSDOF 7
ENDMDL
MODEL 8
REMARK VINA RESULT:      -7.5      2.906      3.924
REMARK  7 active torsions:
REMARK  status: ('A' for Active; 'I' for Inactive)
REMARK    1  A    between atoms: C3_3  and  C4_4 
REMARK    2  A    between atoms: C3_3  and  N1_17 
REMARK    3  A    between atoms: C5_5  and  C6_7 
REMARK    4  A    between atoms: C6_7  and  O1_8 
REMARK    5  A    between atoms: O1_8  and  C7_9 
REMARK    6  A    between atoms: C7_9  and  C8_10 
REMARK    7  A    between atoms: N1_17  and  C14_18 
ROOT
HETATM    1  C1  UNL     1      23.825   3.969  53.119  1.00  0.00     0.099 C 
HETATM    2  C2  UNL     1      24.171   2.700  52.960  1.00  0.00    -0.126 C 
HETATM    3  C3  UNL     1      24.396   1.408  52.891  1.00  0.00     0.077 C 
ENDROOT
BRANCH   3   4
HETATM    4  C4  UNL     1      23.540   0.522  53.609  1.00  0.00     0.059 C 
HETATM    5  C5  UNL     1      22.434  -0.057  53.135  1.00  0.00     0.038 C 
HETATM    6 CL1  UNL     1      21.397  -1.148  54.050  1.00  0.00    -0.087 Cl
BRANCH   5   7
HETATM    7  C6  UNL     1      21.789   0.023  51.812  1.00  0.00     0.219 C 
BRANCH   7   8
HETATM    8  O1  UNL     1      21.164   1.263  51.696  1.00  0.00    -0.381 OA
BRANCH   8   9
HETATM    9  C7  UNL     1      20.949   1.632  50.389  1.00  0.00     0.206 C 
BRANCH   9  10
HETATM   10  C8  UNL     1      21.877   2.765  50.054  1.00  0.00    -0.032 A 
HETATM   11  C9  UNL     1      21.434   4.076  50.189  1.00  0.00     0.009 A 
HETATM   12  C10 UNL     1      22.239   5.175  49.897  1.00  0.00     0.004 A 
HETATM   13  C11 UNL     1      23.532   4.942  49.454  1.00  0.00     0.042 A 
HETATM   14  C12 UNL     1      23.966   3.641  49.321  1.00  0.00     0.117 A 
HETATM   15  F1  UNL     1      25.237   3.401  48.886  1.00  0.00    -0.206 F 
HETATM   16  C13 UNL     1      23.167   2.545  49.612  1.00  0.00     0.051 A 
ENDBRANCH   9  10
ENDBRANCH   8   9
ENDBRANCH   7   8
ENDBRANCH   5   7
ENDBRANCH   3   4
BRANCH   3  17
HETATM   17  N1  UNL     1      25.494   1.135  52.082  1.00  0.00    -0.334 N 
HETATM   18  H12 UNL     1      25.197   1.052  51.086  1.00  0.00     0.168 HD
BRANCH  17  19
HETATM   19  C14 UNL     1      26.797   1.007  52.638  1.00  0.00     0.137 A 
HETATM   20  N2  UNL     1      27.396   2.163  52.977  1.00  0.00    -0.224 NA
HETATM   21  C15 UNL     1      28.644   2.171  53.518  1.00  0.00     0.235 A 
HETATM   22  N3  UNL     1      29.265   0.970  53.705  1.00  0.00    -0.246 NA
HETATM   23  C16 UNL     1      28.670  -0.189  53.367  1.00  0.00     0.041 A 
HETATM   24  C17 UNL     1      29.430  -1.420  53.612  1.00  0.00     0.071 C 
HETATM   25  C18 UNL     1      27.420  -0.209  52.824  1.00  0.00     0.008 A 
HETATM   26  C19 UNL     1      26.746  -1.452  52.446  1.00  0.00     0.054 C 
ENDBRANCH  17  19
ENDBRANCH   3  17
TORSDOF 7
ENDMDL
MODEL 9
REMARK VINA RESULT:      -7.5      2.143      4.029
REMARK  7 active torsions:
REMARK  status: ('A' for Active; 'I' for Inactive)
REMARK    1  A    between atoms: C3_3  and  C4_4 
REMARK    2  A    between atoms: C3_3  and  N1_17 
REMARK    3  A    between atoms: C5_5  and  C6_7 
REMARK    4  A    between atoms: C6_7  and  O1_8 
REMARK    5  A    between atoms: O1_8  and  C7_9 
REMARK    6  A    between atoms: C7_9  and  C8_10 
REMARK    7  A    between atoms: N1_17  and  C14_18 
ROOT
HETATM    1  C1  UNL     1      27.488   4.591  48.785  1.00  0.00     0.099 C 
HETATM    2  C2  UNL     1      26.496   4.073  49.494  1.00  0.00    -0.126 C 
HETATM    3  C3  UNL     1      25.432   3.560  50.069  1.00  0.00     0.077 C 
ENDROOT
BRANCH   3   4
HETATM    4  C4  UNL     1      24.259   3.357  49.286  1.00  0.00     0.059 C 
HETATM    5  C5  UNL     1      23.089   3.982  49.447  1.00  0.00     0.038 C 
HETATM    6 CL1  UNL     1      21.656   3.706  48.461  1.00  0.00    -0.087 Cl
BRANCH   5   7
HETATM    7  C6  UNL     1      22.666   5.012  50.413  1.00  0.00     0.219 C 
BRANCH   7   8
HETATM    8  O1  UNL     1      22.986   6.265  49.895  1.00  0.00    -0.381 OA
BRANCH   8   9
HETATM    9  C7  UNL     1      23.948   6.916  50.631  1.00  0.00     0.206 C 
BRANCH   9  10
HETATM   10  C8  UNL     1      25.032   7.378  49.699  1.00  0.00    -0.032 A 
HETATM   11  C9  UNL     1      24.845   7.268  48.324  1.00  0.00     0.009 A 
HETATM   12  C10 UNL     1      25.806   7.676  47.402  1.00  0.00     0.004 A 
HETATM   13  C11 UNL     1      26.992   8.211  47.882  1.00  0.00     0.042 A 
HETATM   14  C12 UNL     1      27.171   8.316  49.243  1.00  0.00     0.117 A 
HETATM   15  F1  UNL     1      28.336   8.842  49.726  1.00  0.00    -0.206 F 
HETATM   16  C13 UNL     1      26.217   7.913  50.164  1.00  0.00     0.051 A 
ENDBRANCH   9  10
ENDBRANCH   8   9
ENDBRANCH   7   8
ENDBRANCH   5   7
ENDBRANCH   3   4
BRANCH   3  17
HETATM   17  N1  UNL     1      25.669   3.300  51.415  1.00  0.00    -0.334 N 
HETATM   18  H12 UNL     1      25.866   4.187  51.925  1.00  0.00     0.168 HD
BRANCH  17  19
HETATM   19  C14 UNL     1      25.621   1.971  51.921  1.00  0.00     0.137 A 
HETATM   20  N2  UNL     1      26.722   1.229  51.701  1.00  0.00    -0.224 NA
HETATM   21  C15 UNL     1      26.796  -0.057  52.137  1.00  0.00     0.235 A 
HETATM   22  N3  UNL     1      25.719  -0.567  52.803  1.00  0.00    -0.246 NA
HETATM   23  C16 UNL     1      24.616   0.170  53.025  1.00  0.00     0.041 A 
HETATM   24  C17 UNL     1      23.518  -0.480  53.751  1.00  0.00     0.071 C 
HETATM   25  C18 UNL     1      24.530   1.461  52.593  1.00  0.00     0.008 A 
HETATM   26  C19 UNL     1      23.345   2.290  52.818  1.00  0.00     0.054 C 
ENDBRANCH  17  19
ENDBRANCH   3  17
TORSDOF 7
ENDMDL
