MODEL 1
REMARK VINA RESULT:      -8.1      0.000      0.000
REMARK  2 active torsions:
REMARK  status: ('A' for Active; 'I' for Inactive)
REMARK    1  A    between atoms: C8_9  and  C10_11 
REMARK       I    between atoms: C10_11  and  N2_13 
REMARK    2  A    between atoms: N2_13  and  C11_14 
ROOT
HETATM    1  C1  UNL     1      24.205   7.039  51.113  1.00  0.00     0.159 C 
HETATM    2  N1  UNL     1      23.851   5.799  50.505  1.00  0.00    -0.354 N 
HETATM    3  C2  UNL     1      25.069   5.827  49.876  1.00  0.00    -0.060 C 
HETATM    4  C3  UNL     1      26.139   5.862  49.322  1.00  0.00     0.061 A 
HETATM    5  C4  UNL     1      27.455   5.906  48.605  1.00  0.00     0.020 A 
HETATM    6  C5  UNL     1      27.468   4.609  48.704  1.00  0.00     0.003 A 
HETATM    7  C6  UNL     1      26.240   4.328  49.367  1.00  0.00     0.020 A 
HETATM    8  C7  UNL     1      25.599   3.284  49.771  1.00  0.00     0.015 C 
HETATM    9  C8  UNL     1      24.329   3.361  50.419  1.00  0.00     0.045 C 
HETATM   10  C9  UNL     1      23.386   2.171  50.188  1.00  0.00     0.026 C 
HETATM   11  C17 UNL     1      23.505   4.541  49.880  1.00  0.00     0.149 C 
ENDROOT
BRANCH   9  12
HETATM   12  C10 UNL     1      24.323   3.460  51.949  1.00  0.00     0.166 C 
HETATM   13  O1  UNL     1      23.929   3.959  53.089  1.00  0.00    -0.176 OA
HETATM   14  N2  UNL     1      25.365   2.393  52.275  1.00  0.00    -0.332 N 
HETATM   15  H11 UNL     1      26.085   2.103  51.531  1.00  0.00     0.168 HD
BRANCH  14  16
HETATM   16  C11 UNL     1      26.194   1.498  53.137  1.00  0.00     0.075 C 
HETATM   17  C12 UNL     1      27.288   2.284  52.993  1.00  0.00     0.037 C 
HETATM   18  C13 UNL     1      28.647   1.984  53.655  1.00  0.00     0.003 C 
HETATM   19  C14 UNL     1      29.256   0.765  53.774  1.00  0.00     0.001 C 
HETATM   20  C15 UNL     1      28.678  -0.448  53.267  1.00  0.00     0.007 C 
HETATM   21  C16 UNL     1      27.442  -1.123  53.187  1.00  0.00     0.052 C 
HETATM   22  S1  UNL     1      26.136  -0.066  53.999  1.00  0.00    -0.084 SA
ENDBRANCH  14  16
ENDBRANCH   9  12
TORSDOF 2
ENDMDL
MODEL 2
REMARK VINA RESULT:      -7.6      1.409      2.009
REMARK  2 active torsions:
REMARK  status: ('A' for Active; 'I' for Inactive)
REMARK    1  A    between atoms: C8_9  and  C10_11 
REMARK       I    between atoms: C10_11  and  N2_13 
REMARK    2  A    between atoms: N2_13  and  C11_14 
ROOT
HETATM    1  C1  UNL     1      24.164   7.221  51.073  1.00  0.00     0.159 C 
HETATM    2  N1  UNL     1      23.832   6.083  50.281  1.00  0.00    -0.354 N 
HETATM    3  C2  UNL     1      25.083   6.178  49.727  1.00  0.00    -0.060 C 
HETATM    4  C3  UNL     1      26.182   6.271  49.240  1.00  0.00     0.061 A 
HETATM    5  C4  UNL     1      27.536   6.392  48.606  1.00  0.00     0.020 A 
HETATM    6  C5  UNL     1      27.531   5.094  48.524  1.00  0.00     0.003 A 
HETATM    7  C6  UNL     1      26.267   4.744  49.077  1.00  0.00     0.020 A 
HETATM    8  C7  UNL     1      25.595   3.665  49.297  1.00  0.00     0.015 C 
HETATM    9  C8  UNL     1      24.293   3.673  49.883  1.00  0.00     0.045 C 
HETATM   10  C9  UNL     1      23.353   2.542  49.439  1.00  0.00     0.026 C 
HETATM   11  C17 UNL     1      23.510   4.929  49.470  1.00  0.00     0.149 C 
ENDROOT
BRANCH   9  12
HETATM   12  C10 UNL     1      24.204   3.560  51.409  1.00  0.00     0.166 C 
HETATM   13  O1  UNL     1      23.851   3.973  52.596  1.00  0.00    -0.176 OA
HETATM   14  N2  UNL     1      24.966   2.252  51.609  1.00  0.00    -0.332 N 
HETATM   15  H11 UNL     1      25.655   1.912  50.856  1.00  0.00     0.168 HD
BRANCH  14  16
HETATM   16  C11 UNL     1      25.522   1.084  52.358  1.00  0.00     0.075 C 
HETATM   17  C12 UNL     1      24.303   0.747  52.844  1.00  0.00     0.037 C 
HETATM   18  C13 UNL     1      24.058  -0.461  53.768  1.00  0.00     0.003 C 
HETATM   19  C14 UNL     1      24.842  -0.875  54.810  1.00  0.00     0.001 C 
HETATM   20  C15 UNL     1      26.049  -0.198  55.195  1.00  0.00     0.007 C 
HETATM   21  C16 UNL     1      27.192   0.406  54.634  1.00  0.00     0.052 C 
HETATM   22  S1  UNL     1      27.069   0.294  52.775  1.00  0.00    -0.084 SA
ENDBRANCH  14  16
ENDBRANCH   9  12
TORSDOF 2
ENDMDL
MODEL 3
REMARK VINA RESULT:      -7.3      3.052      3.670
REMARK  2 active torsions:
REMARK  status: ('A' for Active; 'I' for Inactive)
REMARK    1  A    between atoms: C8_9  and  C10_11 
REMARK       I    between atoms: C10_11  and  N2_13 
REMARK    2  A    between atoms: N2_13  and  C11_14 
ROOT
HETATM    1  C1  UNL     1      21.299   5.241  51.308  1.00  0.00     0.159 C 
HETATM    2  N1  UNL     1      21.226   3.916  51.828  1.00  0.00    -0.354 N 
HETATM    3  C2  UNL     1      21.303   3.467  50.535  1.00  0.00    -0.060 C 
HETATM    4  C3  UNL     1      21.363   3.080  49.394  1.00  0.00     0.061 A 
HETATM    5  C4  UNL     1      21.411   2.586  47.980  1.00  0.00     0.020 A 
HETATM    6  C5  UNL     1      22.073   1.565  48.437  1.00  0.00     0.003 A 
HETATM    7  C6  UNL     1      22.133   1.824  49.836  1.00  0.00     0.020 A 
HETATM    8  C7  UNL     1      22.610   1.248  50.886  1.00  0.00     0.015 C 
HETATM    9  C8  UNL     1      22.478   1.800  52.196  1.00  0.00     0.045 C 
HETATM   10  C9  UNL     1      22.396   0.784  53.346  1.00  0.00     0.026 C 
HETATM   11  C17 UNL     1      21.153   2.565  52.341  1.00  0.00     0.149 C 
ENDROOT
BRANCH   9  12
HETATM   12  C10 UNL     1      23.597   2.725  52.689  1.00  0.00     0.166 C 
HETATM   13  O1  UNL     1      24.066   3.848  53.159  1.00  0.00    -0.176 OA
HETATM   14  N2  UNL     1      24.795   1.799  52.491  1.00  0.00    -0.332 N 
HETATM   15  H11 UNL     1      24.730   0.980  51.796  1.00  0.00     0.168 HD
BRANCH  14  16
HETATM   16  C11 UNL     1      26.220   1.359  52.566  1.00  0.00     0.075 C 
HETATM   17  C12 UNL     1      25.885   0.061  52.377  1.00  0.00     0.037 C 
HETATM   18  C13 UNL     1      26.913  -1.086  52.321  1.00  0.00     0.003 C 
HETATM   19  C14 UNL     1      28.013  -1.248  53.119  1.00  0.00     0.001 C 
HETATM   20  C15 UNL     1      28.360  -0.326  54.164  1.00  0.00     0.007 C 
HETATM   21  C16 UNL     1      28.430   1.058  54.426  1.00  0.00     0.052 C 
HETATM   22  S1  UNL     1      27.862   1.977  52.904  1.00  0.00    -0.084 SA
ENDBRANCH  14  16
ENDBRANCH   9  12
TORSDOF 2
ENDMDL
MODEL 4
REMARK VINA RESULT:      -7.3      2.204      4.164
REMARK  2 active torsions:
REMARK  status: ('A' for Active; 'I' for Inactive)
REMARK    1  A    between atoms: C8_9  and  C10_11 
REMARK       I    between atoms: C10_11  and  N2_13 
REMARK    2  A    between atoms: N2_13  and  C11_14 
ROOT
HETATM    1  C1  UNL     1      22.681   2.493  48.431  1.00  0.00     0.159 C 
HETATM    2  N1  UNL     1      22.552   3.303  49.596  1.00  0.00    -0.354 N 
HETATM    3  C2  UNL     1      22.220   2.162  50.281  1.00  0.00    -0.060 C 
HETATM    4  C3  UNL     1      21.922   1.156  50.875  1.00  0.00     0.061 A 
HETATM    5  C4  UNL     1      21.524  -0.083  51.620  1.00  0.00     0.020 A 
HETATM    6  C5  UNL     1      22.125   0.434  52.651  1.00  0.00     0.003 A 
HETATM    7  C6  UNL     1      22.585   1.687  52.157  1.00  0.00     0.020 A 
HETATM    8  C7  UNL     1      23.229   2.706  52.614  1.00  0.00     0.015 C 
HETATM    9  C8  UNL     1      23.528   3.852  51.816  1.00  0.00     0.045 C 
HETATM   10  C9  UNL     1      23.599   5.191  52.566  1.00  0.00     0.026 C 
HETATM   11  C17 UNL     1      22.415   4.113  50.788  1.00  0.00     0.149 C 
ENDROOT
BRANCH   9  12
HETATM   12  C10 UNL     1      24.861   3.858  51.059  1.00  0.00     0.166 C 
HETATM   13  O1  UNL     1      25.666   4.245  50.108  1.00  0.00    -0.176 OA
HETATM   14  N2  UNL     1      25.626   2.829  51.888  1.00  0.00    -0.332 N 
HETATM   15  H11 UNL     1      25.087   2.112  52.482  1.00  0.00     0.168 HD
BRANCH  14  16
HETATM   16  C11 UNL     1      26.796   2.010  52.326  1.00  0.00     0.075 C 
HETATM   17  C12 UNL     1      26.221   0.861  51.899  1.00  0.00     0.037 C 
HETATM   18  C13 UNL     1      26.890  -0.522  52.015  1.00  0.00     0.003 C 
HETATM   19  C14 UNL     1      27.606  -1.006  53.075  1.00  0.00     0.001 C 
HETATM   20  C15 UNL     1      27.831  -0.249  54.275  1.00  0.00     0.007 C 
HETATM   21  C16 UNL     1      28.162   1.053  54.702  1.00  0.00     0.052 C 
HETATM   22  S1  UNL     1      28.351   2.141  53.198  1.00  0.00    -0.084 SA
ENDBRANCH  14  16
ENDBRANCH   9  12
TORSDOF 2
ENDMDL
MODEL 5
REMARK VINA RESULT:      -7.2      3.150      6.374
REMARK  2 active torsions:
REMARK  status: ('A' for Active; 'I' for Inactive)
REMARK    1  A    between atoms: C8_9  and  C10_11 
REMARK       I    between atoms: C10_11  and  N2_13 
REMARK    2  A    between atoms: N2_13  and  C11_14 
ROOT
HETATM    1  C1  UNL     1      25.205   0.740  52.412  1.00  0.00     0.159 C 
HETATM    2  N1  UNL     1      23.981   0.995  51.728  1.00  0.00    -0.354 N 
HETATM    3  C2  UNL     1      23.337   0.393  52.778  1.00  0.00    -0.060 C 
HETATM    4  C3  UNL     1      22.778  -0.144  53.703  1.00  0.00     0.061 A 
HETATM    5  C4  UNL     1      22.073  -0.832  54.832  1.00  0.00     0.020 A 
HETATM    6  C5  UNL     1      21.097   0.004  54.635  1.00  0.00     0.003 A 
HETATM    7  C6  UNL     1      21.562   0.783  53.537  1.00  0.00     0.020 A 
HETATM    8  C7  UNL     1      21.126   1.760  52.817  1.00  0.00     0.015 C 
HETATM    9  C8  UNL     1      21.877   2.320  51.740  1.00  0.00     0.045 C 
HETATM   10  C9  UNL     1      21.054   2.889  50.574  1.00  0.00     0.026 C 
HETATM   11  C17 UNL     1      22.730   1.247  51.045  1.00  0.00     0.149 C 
ENDROOT
BRANCH   9  12
HETATM   12  C10 UNL     1      22.801   3.501  52.062  1.00  0.00     0.166 C 
HETATM   13  O1  UNL     1      23.362   4.364  52.864  1.00  0.00    -0.176 OA
HETATM   14  N2  UNL     1      23.306   3.817  50.656  1.00  0.00    -0.332 N 
HETATM   15  H11 UNL     1      22.735   3.505  49.799  1.00  0.00     0.168 HD
BRANCH  14  16
HETATM   16  C11 UNL     1      24.126   4.499  49.610  1.00  0.00     0.075 C 
HETATM   17  C12 UNL     1      25.228   3.781  49.929  1.00  0.00     0.037 C 
HETATM   18  C13 UNL     1      26.584   3.936  49.213  1.00  0.00     0.003 C 
HETATM   19  C14 UNL     1      27.179   5.102  48.816  1.00  0.00     0.001 C 
HETATM   20  C15 UNL     1      26.586   6.392  49.032  1.00  0.00     0.007 C 
HETATM   21  C16 UNL     1      25.343   7.053  48.957  1.00  0.00     0.052 C 
HETATM   22  S1  UNL     1      24.050   5.822  48.411  1.00  0.00    -0.084 SA
ENDBRANCH  14  16
ENDBRANCH   9  12
TORSDOF 2
ENDMDL
MODEL 6
REMARK VINA RESULT:      -7.1      3.279      6.463
REMARK  2 active torsions:
REMARK  status: ('A' for Active; 'I' for Inactive)
REMARK    1  A    between atoms: C8_9  and  C10_11 
REMARK       I    between atoms: C10_11  and  N2_13 
REMARK    2  A    between atoms: N2_13  and  C11_14 
ROOT
HETATM    1  C1  UNL     1      29.086   1.554  54.847  1.00  0.00     0.159 C 
HETATM    2  N1  UNL     1      28.482   1.625  53.558  1.00  0.00    -0.354 N 
HETATM    3  C2  UNL     1      28.627   0.264  53.480  1.00  0.00    -0.060 C 
HETATM    4  C3  UNL     1      28.764  -0.933  53.416  1.00  0.00     0.061 A 
HETATM    5  C4  UNL     1      28.952  -2.416  53.312  1.00  0.00     0.020 A 
HETATM    6  C5  UNL     1      27.842  -2.435  52.635  1.00  0.00     0.003 A 
HETATM    7  C6  UNL     1      27.474  -1.060  52.587  1.00  0.00     0.020 A 
HETATM    8  C7  UNL     1      26.522  -0.352  52.084  1.00  0.00     0.015 C 
HETATM    9  C8  UNL     1      26.461   1.069  52.222  1.00  0.00     0.045 C 
HETATM   10  C9  UNL     1      25.797   1.826  51.062  1.00  0.00     0.026 C 
HETATM   11  C17 UNL     1      27.870   1.681  52.248  1.00  0.00     0.149 C 
ENDROOT
BRANCH   9  12
HETATM   12  C10 UNL     1      25.696   1.629  53.427  1.00  0.00     0.166 C 
HETATM   13  O1  UNL     1      25.610   2.176  54.608  1.00  0.00    -0.176 OA
HETATM   14  N2  UNL     1      24.265   1.376  52.957  1.00  0.00    -0.332 N 
HETATM   15  H11 UNL     1      24.072   0.627  52.209  1.00  0.00     0.168 HD
BRANCH  14  16
HETATM   16  C11 UNL     1      22.773   1.429  53.001  1.00  0.00     0.075 C 
HETATM   17  C12 UNL     1      22.697   0.262  53.683  1.00  0.00     0.037 C 
HETATM   18  C13 UNL     1      21.370  -0.379  54.132  1.00  0.00     0.003 C 
HETATM   19  C14 UNL     1      20.208  -0.458  53.415  1.00  0.00     0.001 C 
HETATM   20  C15 UNL     1      20.074   0.068  52.085  1.00  0.00     0.007 C 
HETATM   21  C16 UNL     1      20.421   1.197  51.314  1.00  0.00     0.052 C 
HETATM   22  S1  UNL     1      21.386   2.377  52.392  1.00  0.00    -0.084 SA
ENDBRANCH  14  16
ENDBRANCH   9  12
TORSDOF 2
ENDMDL
MODEL 7
REMARK VINA RESULT:      -7.0      1.543      1.926
REMARK  2 active torsions:
REMARK  status: ('A' for Active; 'I' for Inactive)
REMARK    1  A    between atoms: C8_9  and  C10_11 
REMARK       I    between atoms: C10_11  and  N2_13 
REMARK    2  A    between atoms: N2_13  and  C11_14 
ROOT
HETATM    1  C1  UNL     1      21.943   6.291  51.055  1.00  0.00     0.159 C 
HETATM    2  N1  UNL     1      21.916   5.163  50.184  1.00  0.00    -0.354 N 
HETATM    3  C2  UNL     1      23.242   5.403  49.928  1.00  0.00    -0.060 C 
HETATM    4  C3  UNL     1      24.406   5.625  49.703  1.00  0.00     0.061 A 
HETATM    5  C4  UNL     1      25.845   5.905  49.393  1.00  0.00     0.020 A 
HETATM    6  C5  UNL     1      25.995   4.618  49.284  1.00  0.00     0.003 A 
HETATM    7  C6  UNL     1      24.684   4.122  49.530  1.00  0.00     0.020 A 
HETATM    8  C7  UNL     1      24.098   2.974  49.570  1.00  0.00     0.015 C 
HETATM    9  C8  UNL     1      22.704   2.829  49.847  1.00  0.00     0.045 C 
HETATM   10  C9  UNL     1      22.010   1.633  49.180  1.00  0.00     0.026 C 
HETATM   11  C17 UNL     1      21.905   4.020  49.296  1.00  0.00     0.149 C 
ENDROOT
BRANCH   9  12
HETATM   12  C10 UNL     1      22.292   2.640  51.312  1.00  0.00     0.166 C 
HETATM   13  O1  UNL     1      21.492   2.790  52.332  1.00  0.00    -0.176 OA
HETATM   14  N2  UNL     1      23.507   1.866  51.818  1.00  0.00    -0.332 N 
HETATM   15  H11 UNL     1      24.441   1.930  51.289  1.00  0.00     0.168 HD
BRANCH  14  16
HETATM   16  C11 UNL     1      24.341   1.096  52.790  1.00  0.00     0.075 C 
HETATM   17  C12 UNL     1      25.227   2.113  52.916  1.00  0.00     0.037 C 
HETATM   18  C13 UNL     1      26.464   2.056  53.832  1.00  0.00     0.003 C 
HETATM   19  C14 UNL     1      27.307   0.994  54.017  1.00  0.00     0.001 C 
HETATM   20  C15 UNL     1      27.138  -0.262  53.341  1.00  0.00     0.007 C 
HETATM   21  C16 UNL     1      26.134  -1.180  52.971  1.00  0.00     0.052 C 
HETATM   22  S1  UNL     1      24.485  -0.518  53.543  1.00  0.00    -0.084 SA
ENDBRANCH  14  16
ENDBRANCH   9  12
TORSDOF 2
ENDMDL
MODEL 8
REMARK VINA RESULT:      -6.8      3.550      6.574
REMARK  2 active torsions:
REMARK  status: ('A' for Active; 'I' for Inactive)
REMARK    1  A    between atoms: C8_9  and  C10_11 
REMARK       I    between atoms: C10_11  and  N2_13 
REMARK    2  A    between atoms: N2_13  and  C11_14 
ROOT
HETATM    1  C1  UNL     1      19.617   0.528  51.144  1.00  0.00     0.159 C 
HETATM    2  N1  UNL     1      20.382   1.555  51.771  1.00  0.00    -0.354 N 
HETATM    3  C2  UNL     1      20.945   0.578  52.551  1.00  0.00    -0.060 C 
HETATM    4  C3  UNL     1      21.431  -0.287  53.238  1.00  0.00     0.061 A 
HETATM    5  C4  UNL     1      22.023  -1.347  54.116  1.00  0.00     0.020 A 
HETATM    6  C5  UNL     1      23.119  -0.648  54.095  1.00  0.00     0.003 A 
HETATM    7  C6  UNL     1      22.766   0.475  53.294  1.00  0.00     0.020 A 
HETATM    8  C7  UNL     1      23.334   1.553  52.871  1.00  0.00     0.015 C 
HETATM    9  C8  UNL     1      22.658   2.513  52.059  1.00  0.00     0.045 C 
HETATM   10  C9  UNL     1      23.107   3.972  52.233  1.00  0.00     0.026 C 
HETATM   11  C17 UNL     1      21.165   2.586  52.417  1.00  0.00     0.149 C 
ENDROOT
BRANCH   9  12
HETATM   12  C10 UNL     1      22.756   2.346  50.538  1.00  0.00     0.166 C 
HETATM   13  O1  UNL     1      22.522   1.732  49.410  1.00  0.00    -0.176 OA
HETATM   14  N2  UNL     1      23.607   3.568  50.204  1.00  0.00    -0.332 N 
HETATM   15  H11 UNL     1      24.220   4.018  50.964  1.00  0.00     0.168 HD
BRANCH  14  16
HETATM   16  C11 UNL     1      24.310   4.559  49.334  1.00  0.00     0.075 C 
HETATM   17  C12 UNL     1      25.512   3.973  49.548  1.00  0.00     0.037 C 
HETATM   18  C13 UNL     1      26.828   4.473  48.920  1.00  0.00     0.003 C 
HETATM   19  C14 UNL     1      27.230   5.772  48.772  1.00  0.00     0.001 C 
HETATM   20  C15 UNL     1      26.439   6.888  49.209  1.00  0.00     0.007 C 
HETATM   21  C16 UNL     1      25.106   7.349  49.219  1.00  0.00     0.052 C 
HETATM   22  S1  UNL     1      24.028   6.060  48.407  1.00  0.00    -0.084 SA
ENDBRANCH  14  16
ENDBRANCH   9  12
TORSDOF 2
ENDMDL
MODEL 9
REMARK VINA RESULT:      -6.8      3.128      3.836
REMARK  2 active torsions:
REMARK  status: ('A' for Active; 'I' for Inactive)
REMARK    1  A    between atoms: C8_9  and  C10_11 
REMARK       I    between atoms: C10_11  and  N2_13 
REMARK    2  A    between atoms: N2_13  and  C11_14 
ROOT
HETATM    1  C1  UNL     1      22.401   6.593  49.109  1.00  0.00     0.159 C 
HETATM    2  N1  UNL     1      22.351   5.223  48.719  1.00  0.00    -0.354 N 
HETATM    3  C2  UNL     1      23.713   5.190  48.877  1.00  0.00    -0.060 C 
HETATM    4  C3  UNL     1      24.911   5.170  49.011  1.00  0.00     0.061 A 
HETATM    5  C4  UNL     1      26.403   5.138  49.148  1.00  0.00     0.020 A 
HETATM    6  C5  UNL     1      26.267   3.905  49.539  1.00  0.00     0.003 A 
HETATM    7  C6  UNL     1      24.860   3.700  49.464  1.00  0.00     0.020 A 
HETATM    8  C7  UNL     1      24.030   2.738  49.682  1.00  0.00     0.015 C 
HETATM    9  C8  UNL     1      22.622   2.874  49.487  1.00  0.00     0.045 C 
HETATM   10  C9  UNL     1      21.878   1.599  49.064  1.00  0.00     0.026 C 
HETATM   11  C17 UNL     1      22.316   3.831  48.324  1.00  0.00     0.149 C 
ENDROOT
BRANCH   9  12
HETATM   12  C10 UNL     1      21.784   3.330  50.687  1.00  0.00     0.166 C 
HETATM   13  O1  UNL     1      21.012   4.165  51.327  1.00  0.00    -0.176 OA
HETATM   14  N2  UNL     1      22.019   2.146  51.623  1.00  0.00    -0.332 N 
HETATM   15  H11 UNL     1      22.883   1.519  51.487  1.00  0.00     0.168 HD
BRANCH  14  16
HETATM   16  C11 UNL     1      21.849   1.304  52.845  1.00  0.00     0.075 C 
HETATM   17  C12 UNL     1      23.128   0.863  52.784  1.00  0.00     0.037 C 
HETATM   18  C13 UNL     1      23.742  -0.116  53.803  1.00  0.00     0.003 C 
HETATM   19  C14 UNL     1      23.147  -1.219  54.350  1.00  0.00     0.001 C 
HETATM   20  C15 UNL     1      21.809  -1.627  54.021  1.00  0.00     0.007 C 
HETATM   21  C16 UNL     1      20.522  -1.091  53.810  1.00  0.00     0.052 C 
HETATM   22  S1  UNL     1      20.610   0.762  54.013  1.00  0.00    -0.084 SA
ENDBRANCH  14  16
ENDBRANCH   9  12
TORSDOF 2
ENDMDL
