MODEL 1
REMARK VINA RESULT:      -8.2      0.000      0.000
REMARK  6 active torsions:
REMARK  status: ('A' for Active; 'I' for Inactive)
REMARK    1  A    between atoms: C2_2  and  N1_3 
REMARK    2  A    between atoms: C2_2  and  C9_15 
REMARK    3  A    between atoms: N1_3  and  S1_4 
REMARK    4  A    between atoms: S1_4  and  N2_6 
REMARK    5  A    between atoms: N2_6  and  C3_7 
REMARK    6  A    between atoms: C8_13  and  O2_14 
ROOT
HETATM    1  S1  UNL     1      26.364   2.405  51.678  1.00  0.00     0.196 S 
HETATM    2  O1  UNL     1      26.926   3.188  50.533  1.00  0.00    -0.218 OA
ENDROOT
BRANCH   1   3
HETATM    3  N1  UNL     1      24.688   2.647  51.977  1.00  0.00    -0.216 NA
HETATM    4  H5  UNL     1      24.534   2.533  53.007  1.00  0.00     0.139 HD
BRANCH   3   5
HETATM    5  C2  UNL     1      23.885   1.650  51.301  1.00  0.00     0.099 C 
HETATM    6  C1  UNL     1      22.960   2.368  50.335  1.00  0.00     0.032 C 
BRANCH   5   7
HETATM    7  C9  UNL     1      23.139   0.768  52.219  1.00  0.00    -0.040 A 
HETATM    8  C10 UNL     1      21.782   0.598  52.034  1.00  0.00     0.012 A 
HETATM    9  C11 UNL     1      21.023  -0.212  52.859  1.00  0.00     0.043 A 
HETATM   10  C12 UNL     1      21.607  -0.889  53.914  1.00  0.00     0.116 A 
HETATM   11  F2  UNL     1      20.882  -1.695  54.743  1.00  0.00    -0.206 F 
HETATM   12  C13 UNL     1      22.964  -0.735  54.120  1.00  0.00     0.043 A 
HETATM   13  C14 UNL     1      23.673   0.072  53.283  1.00  0.00     0.012 A 
ENDBRANCH   5   7
ENDBRANCH   3   5
ENDBRANCH   1   3
BRANCH   1  14
HETATM   14  N2  UNL     1      27.357   2.410  53.105  1.00  0.00    -0.290 N 
HETATM   15  H6  UNL     1      27.586   3.171  53.781  1.00  0.00     0.177 HD
BRANCH  14  16
HETATM   16  C3  UNL     1      27.826   1.046  53.161  1.00  0.00     0.074 A 
HETATM   17  C4  UNL     1      27.151  -0.068  52.699  1.00  0.00     0.036 A 
HETATM   18  C5  UNL     1      27.754  -1.306  52.837  1.00  0.00     0.044 A 
HETATM   19  C6  UNL     1      29.001  -1.423  53.423  1.00  0.00     0.119 A 
HETATM   20  F1  UNL     1      29.494  -2.687  53.503  1.00  0.00    -0.206 F 
HETATM   21  C7  UNL     1      29.647  -0.301  53.870  1.00  0.00     0.081 A 
HETATM   22  C8  UNL     1      29.077   0.936  53.749  1.00  0.00     0.095 A 
BRANCH  22  23
HETATM   23  O2  UNL     1      29.821   2.000  54.238  1.00  0.00    -0.358 OA
HETATM   24  H10 UNL     1      30.712   2.256  53.817  1.00  0.00     0.217 HD
ENDBRANCH  22  23
ENDBRANCH  14  16
ENDBRANCH   1  14
TORSDOF 6
ENDMDL
MODEL 2
REMARK VINA RESULT:      -7.6      2.414      3.532
REMARK  6 active torsions:
REMARK  status: ('A' for Active; 'I' for Inactive)
REMARK    1  A    between atoms: C2_2  and  N1_3 
REMARK    2  A    between atoms: C2_2  and  C9_15 
REMARK    3  A    between atoms: N1_3  and  S1_4 
REMARK    4  A    between atoms: S1_4  and  N2_6 
REMARK    5  A    between atoms: N2_6  and  C3_7 
REMARK    6  A    between atoms: C8_13  and  O2_14 
ROOT
HETATM    1  S1  UNL     1      26.056   2.570  52.298  1.00  0.00     0.196 S 
HETATM    2  O1  UNL     1      26.883   2.824  51.075  1.00  0.00    -0.218 OA
ENDROOT
BRANCH   1   3
HETATM    3  N1  UNL     1      24.624   3.514  52.421  1.00  0.00    -0.216 NA
HETATM    4  H5  UNL     1      24.527   3.807  53.421  1.00  0.00     0.139 HD
BRANCH   3   5
HETATM    5  C2  UNL     1      23.452   2.737  52.076  1.00  0.00     0.099 C 
HETATM    6  C1  UNL     1      23.659   1.322  52.584  1.00  0.00     0.032 C 
BRANCH   5   7
HETATM    7  C9  UNL     1      23.130   2.758  50.636  1.00  0.00    -0.040 A 
HETATM    8  C10 UNL     1      22.407   1.716  50.093  1.00  0.00     0.012 A 
HETATM    9  C11 UNL     1      22.073   1.673  48.751  1.00  0.00     0.043 A 
HETATM   10  C12 UNL     1      22.460   2.688  47.895  1.00  0.00     0.116 A 
HETATM   11  F2  UNL     1      22.145   2.671  46.567  1.00  0.00    -0.206 F 
HETATM   12  C13 UNL     1      23.185   3.743  48.415  1.00  0.00     0.043 A 
HETATM   13  C14 UNL     1      23.491   3.745  49.742  1.00  0.00     0.012 A 
ENDBRANCH   5   7
ENDBRANCH   3   5
ENDBRANCH   1   3
BRANCH   1  14
HETATM   14  N2  UNL     1      26.971   2.457  53.771  1.00  0.00    -0.290 N 
HETATM   15  H6  UNL     1      27.061   3.114  54.577  1.00  0.00     0.177 HD
BRANCH  14  16
HETATM   16  C3  UNL     1      27.624   1.177  53.633  1.00  0.00     0.074 A 
HETATM   17  C4  UNL     1      27.054   0.020  53.136  1.00  0.00     0.036 A 
HETATM   18  C5  UNL     1      27.830  -1.123  53.077  1.00  0.00     0.044 A 
HETATM   19  C6  UNL     1      29.144  -1.107  53.507  1.00  0.00     0.119 A 
HETATM   20  F1  UNL     1      29.809  -2.289  53.401  1.00  0.00    -0.206 F 
HETATM   21  C7  UNL     1      29.683   0.053  53.995  1.00  0.00     0.081 A 
HETATM   22  C8  UNL     1      28.941   1.199  54.065  1.00  0.00     0.095 A 
BRANCH  22  23
HETATM   23  O2  UNL     1      29.590   2.314  54.577  1.00  0.00    -0.358 OA
HETATM   24  H10 UNL     1      29.932   2.329  55.535  1.00  0.00     0.217 HD
ENDBRANCH  22  23
ENDBRANCH  14  16
ENDBRANCH   1  14
TORSDOF 6
ENDMDL
MODEL 3
REMARK VINA RESULT:      -7.3      3.546      6.471
REMARK  6 active torsions:
REMARK  status: ('A' for Active; 'I' for Inactive)
REMARK    1  A    between atoms: C2_2  and  N1_3 
REMARK    2  A    between atoms: C2_2  and  C9_15 
REMARK    3  A    between atoms: N1_3  and  S1_4 
REMARK    4  A    between atoms: S1_4  and  N2_6 
REMARK    5  A    between atoms: N2_6  and  C3_7 
REMARK    6  A    between atoms: C8_13  and  O2_14 
ROOT
HETATM    1  S1  UNL     1      24.116   3.181  52.116  1.00  0.00     0.196 S 
HETATM    2  O1  UNL     1      23.781   4.582  52.522  1.00  0.00    -0.218 OA
ENDROOT
BRANCH   1   3
HETATM    3  N1  UNL     1      25.554   2.542  52.810  1.00  0.00    -0.216 NA
HETATM    4  H5  UNL     1      26.362   3.041  52.370  1.00  0.00     0.139 HD
BRANCH   3   5
HETATM    5  C2  UNL     1      25.696   1.131  52.516  1.00  0.00     0.099 C 
HETATM    6  C1  UNL     1      24.555   0.392  53.190  1.00  0.00     0.032 C 
BRANCH   5   7
HETATM    7  C9  UNL     1      27.009   0.576  52.901  1.00  0.00    -0.040 A 
HETATM    8  C10 UNL     1      27.210  -0.787  52.831  1.00  0.00     0.012 A 
HETATM    9  C11 UNL     1      28.413  -1.372  53.179  1.00  0.00     0.043 A 
HETATM   10  C12 UNL     1      29.474  -0.599  53.615  1.00  0.00     0.116 A 
HETATM   11  F2  UNL     1      30.673  -1.150  53.964  1.00  0.00    -0.206 F 
HETATM   12  C13 UNL     1      29.298   0.770  53.692  1.00  0.00     0.043 A 
HETATM   13  C14 UNL     1      28.096   1.303  53.340  1.00  0.00     0.012 A 
ENDBRANCH   5   7
ENDBRANCH   3   5
ENDBRANCH   1   3
BRANCH   1  14
HETATM   14  N2  UNL     1      23.937   2.866  50.416  1.00  0.00    -0.290 N 
HETATM   15  H6  UNL     1      23.266   2.259  49.895  1.00  0.00     0.177 HD
BRANCH  14  16
HETATM   16  C3  UNL     1      24.982   3.678  49.839  1.00  0.00     0.074 A 
HETATM   17  C4  UNL     1      26.304   3.311  49.677  1.00  0.00     0.036 A 
HETATM   18  C5  UNL     1      27.174   4.222  49.103  1.00  0.00     0.044 A 
HETATM   19  C6  UNL     1      26.729   5.468  48.704  1.00  0.00     0.119 A 
HETATM   20  F1  UNL     1      27.672   6.278  48.153  1.00  0.00    -0.206 F 
HETATM   21  C7  UNL     1      25.413   5.805  48.876  1.00  0.00     0.081 A 
HETATM   22  C8  UNL     1      24.529   4.926  49.441  1.00  0.00     0.095 A 
BRANCH  22  23
HETATM   23  O2  UNL     1      23.222   5.375  49.567  1.00  0.00    -0.358 OA
HETATM   24  H10 UNL     1      22.771   5.897  48.819  1.00  0.00     0.217 HD
ENDBRANCH  22  23
ENDBRANCH  14  16
ENDBRANCH   1  14
TORSDOF 6
ENDMDL
MODEL 4
REMARK VINA RESULT:      -7.2      7.302      8.304
REMARK  6 active torsions:
REMARK  status: ('A' for Active; 'I' for Inactive)
REMARK    1  A    between atoms: C2_2  and  N1_3 
REMARK    2  A    between atoms: C2_2  and  C9_15 
REMARK    3  A    between atoms: N1_3  and  S1_4 
REMARK    4  A    between atoms: S1_4  and  N2_6 
REMARK    5  A    between atoms: N2_6  and  C3_7 
REMARK    6  A    between atoms: C8_13  and  O2_14 
ROOT
HETATM    1  S1  UNL     1      29.883   8.983  49.023  1.00  0.00     0.196 S 
HETATM    2  O1  UNL     1      29.995  10.454  49.278  1.00  0.00    -0.218 OA
ENDROOT
BRANCH   1   3
HETATM    3  N1  UNL     1      28.298   8.333  49.171  1.00  0.00    -0.216 NA
HETATM    4  H5  UNL     1      28.256   7.812  50.078  1.00  0.00     0.139 HD
BRANCH   3   5
HETATM    5  C2  UNL     1      28.016   7.390  48.110  1.00  0.00     0.099 C 
HETATM    6  C1  UNL     1      27.420   8.158  46.944  1.00  0.00     0.032 C 
BRANCH   5   7
HETATM    7  C9  UNL     1      27.149   6.271  48.527  1.00  0.00    -0.040 A 
HETATM    8  C10 UNL     1      27.715   5.036  48.769  1.00  0.00     0.012 A 
HETATM    9  C11 UNL     1      26.961   3.945  49.160  1.00  0.00     0.043 A 
HETATM   10  C12 UNL     1      25.592   4.056  49.325  1.00  0.00     0.116 A 
HETATM   11  F2  UNL     1      24.823   2.996  49.710  1.00  0.00    -0.206 F 
HETATM   12  C13 UNL     1      25.002   5.283  49.089  1.00  0.00     0.043 A 
HETATM   13  C14 UNL     1      25.783   6.330  48.705  1.00  0.00     0.012 A 
ENDBRANCH   5   7
ENDBRANCH   3   5
ENDBRANCH   1   3
BRANCH   1  14
HETATM   14  N2  UNL     1      31.123   8.029  49.780  1.00  0.00    -0.290 N 
HETATM   15  H6  UNL     1      31.535   8.070  50.738  1.00  0.00     0.177 HD
BRANCH  14  16
HETATM   16  C3  UNL     1      31.487   7.106  48.731  1.00  0.00     0.074 A 
HETATM   17  C4  UNL     1      31.686   7.420  47.400  1.00  0.00     0.036 A 
HETATM   18  C5  UNL     1      32.030   6.403  46.528  1.00  0.00     0.044 A 
HETATM   19  C6  UNL     1      32.169   5.104  46.979  1.00  0.00     0.119 A 
HETATM   20  F1  UNL     1      32.510   4.188  46.033  1.00  0.00    -0.206 F 
HETATM   21  C7  UNL     1      31.966   4.820  48.304  1.00  0.00     0.081 A 
HETATM   22  C8  UNL     1      31.625   5.805  49.189  1.00  0.00     0.095 A 
BRANCH  22  23
HETATM   23  O2  UNL     1      31.443   5.403  50.505  1.00  0.00    -0.358 OA
HETATM   24  H10 UNL     1      31.564   4.430  50.779  1.00  0.00     0.217 HD
ENDBRANCH  22  23
ENDBRANCH  14  16
ENDBRANCH   1  14
TORSDOF 6
ENDMDL
MODEL 5
REMARK VINA RESULT:      -7.1      4.132      5.763
REMARK  6 active torsions:
REMARK  status: ('A' for Active; 'I' for Inactive)
REMARK    1  A    between atoms: C2_2  and  N1_3 
REMARK    2  A    between atoms: C2_2  and  C9_15 
REMARK    3  A    between atoms: N1_3  and  S1_4 
REMARK    4  A    between atoms: S1_4  and  N2_6 
REMARK    5  A    between atoms: N2_6  and  C3_7 
REMARK    6  A    between atoms: C8_13  and  O2_14 
ROOT
HETATM    1  S1  UNL     1      24.969   2.644  52.598  1.00  0.00     0.196 S 
HETATM    2  O1  UNL     1      23.777   3.446  53.018  1.00  0.00    -0.218 OA
ENDROOT
BRANCH   1   3
HETATM    3  N1  UNL     1      25.203   2.518  50.899  1.00  0.00    -0.216 NA
HETATM    4  H5  UNL     1      26.236   2.509  50.725  1.00  0.00     0.139 HD
BRANCH   3   5
HETATM    5  C2  UNL     1      24.652   3.664  50.206  1.00  0.00     0.099 C 
HETATM    6  C1  UNL     1      23.596   3.165  49.237  1.00  0.00     0.032 C 
BRANCH   5   7
HETATM    7  C9  UNL     1      25.669   4.491  49.528  1.00  0.00    -0.040 A 
HETATM    8  C10 UNL     1      25.344   5.776  49.144  1.00  0.00     0.012 A 
HETATM    9  C11 UNL     1      26.248   6.603  48.503  1.00  0.00     0.043 A 
HETATM   10  C12 UNL     1      27.529   6.164  48.220  1.00  0.00     0.116 A 
HETATM   11  F2  UNL     1      28.441   6.959  47.589  1.00  0.00    -0.206 F 
HETATM   12  C13 UNL     1      27.879   4.881  48.596  1.00  0.00     0.043 A 
HETATM   13  C14 UNL     1      26.957   4.100  49.225  1.00  0.00     0.012 A 
ENDBRANCH   5   7
ENDBRANCH   3   5
ENDBRANCH   1   3
BRANCH   1  14
HETATM   14  N2  UNL     1      25.170   1.151  53.463  1.00  0.00    -0.290 N 
HETATM   15  H6  UNL     1      24.471   0.488  53.865  1.00  0.00     0.177 HD
BRANCH  14  16
HETATM   16  C3  UNL     1      26.606   1.012  53.512  1.00  0.00     0.074 A 
HETATM   17  C4  UNL     1      27.526   2.044  53.520  1.00  0.00     0.036 A 
HETATM   18  C5  UNL     1      28.872   1.725  53.568  1.00  0.00     0.044 A 
HETATM   19  C6  UNL     1      29.284   0.406  53.605  1.00  0.00     0.119 A 
HETATM   20  F1  UNL     1      30.629   0.214  53.651  1.00  0.00    -0.206 F 
HETATM   21  C7  UNL     1      28.350  -0.597  53.597  1.00  0.00     0.081 A 
HETATM   22  C8  UNL     1      27.013  -0.313  53.550  1.00  0.00     0.095 A 
BRANCH  22  23
HETATM   23  O2  UNL     1      26.159  -1.406  53.545  1.00  0.00    -0.358 OA
HETATM   24  H10 UNL     1      25.152  -1.288  53.634  1.00  0.00     0.217 HD
ENDBRANCH  22  23
ENDBRANCH  14  16
ENDBRANCH   1  14
TORSDOF 6
ENDMDL
MODEL 6
REMARK VINA RESULT:      -7.0      1.930      2.686
REMARK  6 active torsions:
REMARK  status: ('A' for Active; 'I' for Inactive)
REMARK    1  A    between atoms: C2_2  and  N1_3 
REMARK    2  A    between atoms: C2_2  and  C9_15 
REMARK    3  A    between atoms: N1_3  and  S1_4 
REMARK    4  A    between atoms: S1_4  and  N2_6 
REMARK    5  A    between atoms: N2_6  and  C3_7 
REMARK    6  A    between atoms: C8_13  and  O2_14 
ROOT
HETATM    1  S1  UNL     1      24.068   3.115  51.693  1.00  0.00     0.196 S 
HETATM    2  O1  UNL     1      24.289   4.371  50.907  1.00  0.00    -0.218 OA
ENDROOT
BRANCH   1   3
HETATM    3  N1  UNL     1      22.425   2.642  51.870  1.00  0.00    -0.216 NA
HETATM    4  H5  UNL     1      22.229   2.566  52.896  1.00  0.00     0.139 HD
BRANCH   3   5
HETATM    5  C2  UNL     1      22.187   1.341  51.281  1.00  0.00     0.099 C 
HETATM    6  C1  UNL     1      22.027   1.524  49.783  1.00  0.00     0.032 C 
BRANCH   5   7
HETATM    7  C9  UNL     1      21.038   0.626  51.869  1.00  0.00    -0.040 A 
HETATM    8  C10 UNL     1      21.191  -0.009  53.085  1.00  0.00     0.012 A 
HETATM    9  C11 UNL     1      20.156  -0.698  53.690  1.00  0.00     0.043 A 
HETATM   10  C12 UNL     1      18.913  -0.777  53.089  1.00  0.00     0.116 A 
HETATM   11  F2  UNL     1      17.875  -1.450  53.664  1.00  0.00    -0.206 F 
HETATM   12  C13 UNL     1      18.735  -0.148  51.871  1.00  0.00     0.043 A 
HETATM   13  C14 UNL     1      19.781   0.519  51.311  1.00  0.00     0.012 A 
ENDBRANCH   5   7
ENDBRANCH   3   5
ENDBRANCH   1   3
BRANCH   1  14
HETATM   14  N2  UNL     1      25.007   3.010  53.152  1.00  0.00    -0.290 N 
HETATM   15  H6  UNL     1      25.176   3.703  53.914  1.00  0.00     0.177 HD
BRANCH  14  16
HETATM   16  C3  UNL     1      25.539   1.670  53.081  1.00  0.00     0.074 A 
HETATM   17  C4  UNL     1      24.892   0.513  53.472  1.00  0.00     0.036 A 
HETATM   18  C5  UNL     1      25.557  -0.692  53.334  1.00  0.00     0.044 A 
HETATM   19  C6  UNL     1      26.839  -0.736  52.820  1.00  0.00     0.119 A 
HETATM   20  F1  UNL     1      27.393  -1.975  52.732  1.00  0.00    -0.206 F 
HETATM   21  C7  UNL     1      27.457   0.426  52.441  1.00  0.00     0.081 A 
HETATM   22  C8  UNL     1      26.825   1.632  52.564  1.00  0.00     0.095 A 
BRANCH  22  23
HETATM   23  O2  UNL     1      27.547   2.743  52.150  1.00  0.00    -0.358 OA
HETATM   24  H10 UNL     1      27.197   3.686  52.305  1.00  0.00     0.217 HD
ENDBRANCH  22  23
ENDBRANCH  14  16
ENDBRANCH   1  14
TORSDOF 6
ENDMDL
MODEL 7
REMARK VINA RESULT:      -7.0      4.447      6.557
REMARK  6 active torsions:
REMARK  status: ('A' for Active; 'I' for Inactive)
REMARK    1  A    between atoms: C2_2  and  N1_3 
REMARK    2  A    between atoms: C2_2  and  C9_15 
REMARK    3  A    between atoms: N1_3  and  S1_4 
REMARK    4  A    between atoms: S1_4  and  N2_6 
REMARK    5  A    between atoms: N2_6  and  C3_7 
REMARK    6  A    between atoms: C8_13  and  O2_14 
ROOT
HETATM    1  S1  UNL     1      23.915   4.602  51.095  1.00  0.00     0.196 S 
HETATM    2  O1  UNL     1      22.428   4.540  50.936  1.00  0.00    -0.218 OA
ENDROOT
BRANCH   1   3
HETATM    3  N1  UNL     1      24.578   3.474  52.211  1.00  0.00    -0.216 NA
HETATM    4  H5  UNL     1      25.484   3.870  52.556  1.00  0.00     0.139 HD
BRANCH   3   5
HETATM    5  C2  UNL     1      24.869   2.209  51.569  1.00  0.00     0.099 C 
HETATM    6  C1  UNL     1      23.608   1.364  51.601  1.00  0.00     0.032 C 
BRANCH   5   7
HETATM    7  C9  UNL     1      26.019   1.496  52.158  1.00  0.00    -0.040 A 
HETATM    8  C10 UNL     1      27.112   2.221  52.587  1.00  0.00     0.012 A 
HETATM    9  C11 UNL     1      28.223   1.616  53.146  1.00  0.00     0.043 A 
HETATM   10  C12 UNL     1      28.277   0.242  53.297  1.00  0.00     0.116 A 
HETATM   11  F2  UNL     1      29.360  -0.381  53.845  1.00  0.00    -0.206 F 
HETATM   12  C13 UNL     1      27.194  -0.506  52.875  1.00  0.00     0.043 A 
HETATM   13  C14 UNL     1      26.121   0.131  52.331  1.00  0.00     0.012 A 
ENDBRANCH   5   7
ENDBRANCH   3   5
ENDBRANCH   1   3
BRANCH   1  14
HETATM   14  N2  UNL     1      24.555   6.211  51.235  1.00  0.00    -0.290 N 
HETATM   15  H6  UNL     1      24.304   6.999  51.873  1.00  0.00     0.177 HD
BRANCH  14  16
HETATM   16  C3  UNL     1      25.575   6.229  50.215  1.00  0.00     0.074 A 
HETATM   17  C4  UNL     1      26.064   5.132  49.531  1.00  0.00     0.036 A 
HETATM   18  C5  UNL     1      27.049   5.334  48.581  1.00  0.00     0.044 A 
HETATM   19  C6  UNL     1      27.533   6.604  48.325  1.00  0.00     0.119 A 
HETATM   20  F1  UNL     1      28.500   6.681  47.371  1.00  0.00    -0.206 F 
HETATM   21  C7  UNL     1      27.031   7.673  49.018  1.00  0.00     0.081 A 
HETATM   22  C8  UNL     1      26.056   7.504  49.962  1.00  0.00     0.095 A 
BRANCH  22  23
HETATM   23  O2  UNL     1      25.623   8.657  50.602  1.00  0.00    -0.358 OA
HETATM   24  H10 UNL     1      25.960   9.575  50.318  1.00  0.00     0.217 HD
ENDBRANCH  22  23
ENDBRANCH  14  16
ENDBRANCH   1  14
TORSDOF 6
ENDMDL
MODEL 8
REMARK VINA RESULT:      -6.9      2.757      6.666
REMARK  6 active torsions:
REMARK  status: ('A' for Active; 'I' for Inactive)
REMARK    1  A    between atoms: C2_2  and  N1_3 
REMARK    2  A    between atoms: C2_2  and  C9_15 
REMARK    3  A    between atoms: N1_3  and  S1_4 
REMARK    4  A    between atoms: S1_4  and  N2_6 
REMARK    5  A    between atoms: N2_6  and  C3_7 
REMARK    6  A    between atoms: C8_13  and  O2_14 
ROOT
HETATM    1  S1  UNL     1      26.389   3.728  50.534  1.00  0.00     0.196 S 
HETATM    2  O1  UNL     1      26.488   2.842  49.331  1.00  0.00    -0.218 OA
ENDROOT
BRANCH   1   3
HETATM    3  N1  UNL     1      25.767   2.973  51.948  1.00  0.00    -0.216 NA
HETATM    4  H5  UNL     1      26.409   3.212  52.739  1.00  0.00     0.139 HD
BRANCH   3   5
HETATM    5  C2  UNL     1      25.755   1.531  51.812  1.00  0.00     0.099 C 
HETATM    6  C1  UNL     1      24.445   1.015  52.378  1.00  0.00     0.032 C 
BRANCH   5   7
HETATM    7  C9  UNL     1      26.918   0.869  52.435  1.00  0.00    -0.040 A 
HETATM    8  C10 UNL     1      26.980  -0.509  52.448  1.00  0.00     0.012 A 
HETATM    9  C11 UNL     1      28.039  -1.193  53.017  1.00  0.00     0.043 A 
HETATM   10  C12 UNL     1      29.088  -0.508  53.602  1.00  0.00     0.116 A 
HETATM   11  F2  UNL     1      30.146  -1.157  54.170  1.00  0.00    -0.206 F 
HETATM   12  C13 UNL     1      29.050   0.873  53.601  1.00  0.00     0.043 A 
HETATM   13  C14 UNL     1      27.988   1.505  53.029  1.00  0.00     0.012 A 
ENDBRANCH   5   7
ENDBRANCH   3   5
ENDBRANCH   1   3
BRANCH   1  14
HETATM   14  N2  UNL     1      25.730   5.303  50.212  1.00  0.00    -0.290 N 
HETATM   15  H6  UNL     1      26.193   6.208  49.976  1.00  0.00     0.177 HD
BRANCH  14  16
HETATM   16  C3  UNL     1      24.310   5.078  50.346  1.00  0.00     0.074 A 
HETATM   17  C4  UNL     1      23.537   4.251  49.554  1.00  0.00     0.036 A 
HETATM   18  C5  UNL     1      22.183   4.156  49.827  1.00  0.00     0.044 A 
HETATM   19  C6  UNL     1      21.621   4.874  50.866  1.00  0.00     0.119 A 
HETATM   20  F1  UNL     1      20.283   4.702  51.040  1.00  0.00    -0.206 F 
HETATM   21  C7  UNL     1      22.411   5.686  51.635  1.00  0.00     0.081 A 
HETATM   22  C8  UNL     1      23.752   5.800  51.390  1.00  0.00     0.095 A 
BRANCH  22  23
HETATM   23  O2  UNL     1      24.454   6.652  52.231  1.00  0.00    -0.358 OA
HETATM   24  H10 UNL     1      24.017   7.485  52.620  1.00  0.00     0.217 HD
ENDBRANCH  22  23
ENDBRANCH  14  16
ENDBRANCH   1  14
TORSDOF 6
ENDMDL
MODEL 9
REMARK VINA RESULT:      -6.9      2.613      6.770
REMARK  6 active torsions:
REMARK  status: ('A' for Active; 'I' for Inactive)
REMARK    1  A    between atoms: C2_2  and  N1_3 
REMARK    2  A    between atoms: C2_2  and  C9_15 
REMARK    3  A    between atoms: N1_3  and  S1_4 
REMARK    4  A    between atoms: S1_4  and  N2_6 
REMARK    5  A    between atoms: N2_6  and  C3_7 
REMARK    6  A    between atoms: C8_13  and  O2_14 
ROOT
HETATM    1  S1  UNL     1      23.558   1.780  51.537  1.00  0.00     0.196 S 
HETATM    2  O1  UNL     1      22.730   1.330  50.374  1.00  0.00    -0.218 OA
ENDROOT
BRANCH   1   3
HETATM    3  N1  UNL     1      24.902   0.775  51.910  1.00  0.00    -0.216 NA
HETATM    4  H5  UNL     1      24.648   0.212  52.755  1.00  0.00     0.139 HD
BRANCH   3   5
HETATM    5  C2  UNL     1      26.070   1.562  52.243  1.00  0.00     0.099 C 
HETATM    6  C1  UNL     1      26.440   2.393  51.027  1.00  0.00     0.032 C 
BRANCH   5   7
HETATM    7  C9  UNL     1      27.210   0.757  52.722  1.00  0.00    -0.040 A 
HETATM    8  C10 UNL     1      28.314   1.398  53.246  1.00  0.00     0.012 A 
HETATM    9  C11 UNL     1      29.416   0.704  53.710  1.00  0.00     0.043 A 
HETATM   10  C12 UNL     1      29.452  -0.677  53.664  1.00  0.00     0.116 A 
HETATM   11  F2  UNL     1      30.526  -1.387  54.115  1.00  0.00    -0.206 F 
HETATM   12  C13 UNL     1      28.358  -1.343  53.144  1.00  0.00     0.043 A 
HETATM   13  C14 UNL     1      27.294  -0.620  52.698  1.00  0.00     0.012 A 
ENDBRANCH   5   7
ENDBRANCH   3   5
ENDBRANCH   1   3
BRANCH   1  14
HETATM   14  N2  UNL     1      22.634   2.286  52.920  1.00  0.00    -0.290 N 
HETATM   15  H6  UNL     1      22.601   3.196  53.430  1.00  0.00     0.177 HD
BRANCH  14  16
HETATM   16  C3  UNL     1      21.870   1.102  53.233  1.00  0.00     0.074 A 
HETATM   17  C4  UNL     1      22.317   0.010  53.952  1.00  0.00     0.036 A 
HETATM   18  C5  UNL     1      21.444  -1.045  54.157  1.00  0.00     0.044 A 
HETATM   19  C6  UNL     1      20.158  -1.005  53.651  1.00  0.00     0.119 A 
HETATM   20  F1  UNL     1      19.392  -2.096  53.915  1.00  0.00    -0.206 F 
HETATM   21  C7  UNL     1      19.742   0.091  52.942  1.00  0.00     0.081 A 
HETATM   22  C8  UNL     1      20.582   1.148  52.724  1.00  0.00     0.095 A 
BRANCH  22  23
HETATM   23  O2  UNL     1      20.054   2.202  51.992  1.00  0.00    -0.358 OA
HETATM   24  H10 UNL     1      19.104   2.167  51.628  1.00  0.00     0.217 HD
ENDBRANCH  22  23
ENDBRANCH  14  16
ENDBRANCH   1  14
TORSDOF 6
ENDMDL
