MODEL 1
REMARK VINA RESULT:      -8.1      0.000      0.000
REMARK  4 active torsions:
REMARK  status: ('A' for Active; 'I' for Inactive)
REMARK    1  A    between atoms: O1_2  and  C2_3 
REMARK    2  A    between atoms: C6_9  and  N3_10 
REMARK    3  A    between atoms: N3_10  and  C8_12 
REMARK    4  A    between atoms: C16_20  and  O2_21 
ROOT
HETATM    1  C2  UNL     1      20.319  -0.403  53.238  1.00  0.00     0.103 A 
HETATM    2  C3  UNL     1      20.882  -0.980  54.351  1.00  0.00     0.072 A 
HETATM    3  C4  UNL     1      22.251  -0.988  54.608  1.00  0.00     0.075 A 
HETATM    4  N1  UNL     1      22.775  -1.559  55.706  1.00  0.00    -0.241 NA
HETATM    5  C5  UNL     1      24.124  -1.541  55.913  1.00  0.00     0.236 A 
HETATM    6  N2  UNL     1      24.969  -0.948  55.021  1.00  0.00    -0.223 NA
HETATM    7  C6  UNL     1      24.436  -0.382  53.932  1.00  0.00     0.144 A 
HETATM    8  C14 UNL     1      23.072  -0.375  53.677  1.00  0.00     0.042 A 
HETATM    9  C15 UNL     1      22.562   0.219  52.542  1.00  0.00     0.057 A 
HETATM   10  C16 UNL     1      21.196   0.190  52.351  1.00  0.00     0.102 A 
ENDROOT
BRANCH   7  11
HETATM   11  N3  UNL     1      25.334   0.240  52.999  1.00  0.00    -0.336 N 
HETATM   12  C7  UNL     1      25.265   1.338  52.039  1.00  0.00     0.158 C 
BRANCH  11  13
HETATM   13  C8  UNL     1      26.606  -0.412  53.056  1.00  0.00     0.032 A 
HETATM   14  C9  UNL     1      26.632  -1.637  52.541  1.00  0.00     0.007 A 
HETATM   15  C10 UNL     1      28.001  -2.208  52.658  1.00  0.00     0.063 A 
HETATM   16  C11 UNL     1      28.716  -1.094  53.321  1.00  0.00    -0.078 A 
HETATM   17  C12 UNL     1      30.169  -1.069  53.714  1.00  0.00     0.044 C 
HETATM   18  C13 UNL     1      27.933  -0.068  53.552  1.00  0.00     0.032 A 
ENDBRANCH  11  13
ENDBRANCH   7  11
BRANCH  10  19
HETATM   19  O2  UNL     1      20.683   0.788  51.208  1.00  0.00    -0.353 OA
HETATM   20  C17 UNL     1      21.305   0.739  49.960  1.00  0.00     0.210 C 
ENDBRANCH  10  19
BRANCH   1  21
HETATM   21  O1  UNL     1      18.978  -0.380  52.957  1.00  0.00    -0.353 OA
HETATM   22  C1  UNL     1      18.067  -1.401  53.221  1.00  0.00     0.210 C 
ENDBRANCH   1  21
TORSDOF 4
ENDMDL
MODEL 2
REMARK VINA RESULT:      -8.0      3.335      6.350
REMARK  4 active torsions:
REMARK  status: ('A' for Active; 'I' for Inactive)
REMARK    1  A    between atoms: O1_2  and  C2_3 
REMARK    2  A    between atoms: C6_9  and  N3_10 
REMARK    3  A    between atoms: N3_10  and  C8_12 
REMARK    4  A    between atoms: C16_20  and  O2_21 
ROOT
HETATM    1  C2  UNL     1      26.974  -0.280  53.579  1.00  0.00     0.103 A 
HETATM    2  C3  UNL     1      25.739  -0.830  53.825  1.00  0.00     0.072 A 
HETATM    3  C4  UNL     1      24.538  -0.161  53.600  1.00  0.00     0.075 A 
HETATM    4  N1  UNL     1      23.342  -0.723  53.848  1.00  0.00    -0.241 NA
HETATM    5  C5  UNL     1      22.193  -0.027  53.611  1.00  0.00     0.236 A 
HETATM    6  N2  UNL     1      22.224   1.245  53.121  1.00  0.00    -0.223 NA
HETATM    7  C6  UNL     1      23.420   1.795  52.877  1.00  0.00     0.144 A 
HETATM    8  C14 UNL     1      24.616   1.128  53.102  1.00  0.00     0.042 A 
HETATM    9  C15 UNL     1      25.828   1.730  52.838  1.00  0.00     0.057 A 
HETATM   10  C16 UNL     1      26.979   1.009  53.084  1.00  0.00     0.102 A 
ENDROOT
BRANCH   7  11
HETATM   11  N3  UNL     1      23.443   3.135  52.361  1.00  0.00    -0.336 N 
HETATM   12  C7  UNL     1      23.534   4.480  52.920  1.00  0.00     0.158 C 
BRANCH  11  13
HETATM   13  C8  UNL     1      23.350   3.097  50.933  1.00  0.00     0.032 A 
HETATM   14  C9  UNL     1      24.004   4.067  50.303  1.00  0.00     0.007 A 
HETATM   15  C10 UNL     1      23.835   3.921  48.832  1.00  0.00     0.063 A 
HETATM   16  C11 UNL     1      22.981   2.714  48.765  1.00  0.00    -0.078 A 
HETATM   17  C12 UNL     1      22.458   2.053  47.517  1.00  0.00     0.044 C 
HETATM   18  C13 UNL     1      22.699   2.237  49.953  1.00  0.00     0.032 A 
ENDBRANCH  11  13
ENDBRANCH   7  11
BRANCH  10  19
HETATM   19  O2  UNL     1      28.199   1.615  52.818  1.00  0.00    -0.353 OA
HETATM   20  C17 UNL     1      28.824   2.515  53.683  1.00  0.00     0.210 C 
ENDBRANCH  10  19
BRANCH   1  21
HETATM   21  O1  UNL     1      28.172  -0.911  53.791  1.00  0.00    -0.353 OA
HETATM   22  C1  UNL     1      28.675  -1.983  53.055  1.00  0.00     0.210 C 
ENDBRANCH   1  21
TORSDOF 4
ENDMDL
MODEL 3
REMARK VINA RESULT:      -7.1      3.215      7.149
REMARK  4 active torsions:
REMARK  status: ('A' for Active; 'I' for Inactive)
REMARK    1  A    between atoms: O1_2  and  C2_3 
REMARK    2  A    between atoms: C6_9  and  N3_10 
REMARK    3  A    between atoms: N3_10  and  C8_12 
REMARK    4  A    between atoms: C16_20  and  O2_21 
ROOT
HETATM    1  C2  UNL     1      26.492   0.274  52.986  1.00  0.00     0.103 A 
HETATM    2  C3  UNL     1      27.074   1.178  52.131  1.00  0.00     0.072 A 
HETATM    3  C4  UNL     1      26.362   2.159  51.443  1.00  0.00     0.075 A 
HETATM    4  N1  UNL     1      26.957   3.033  50.613  1.00  0.00    -0.241 NA
HETATM    5  C5  UNL     1      26.217   3.976  49.961  1.00  0.00     0.236 A 
HETATM    6  N2  UNL     1      24.866   4.058  50.133  1.00  0.00    -0.223 NA
HETATM    7  C6  UNL     1      24.284   3.184  50.963  1.00  0.00     0.144 A 
HETATM    8  C14 UNL     1      24.994   2.207  51.647  1.00  0.00     0.042 A 
HETATM    9  C15 UNL     1      24.357   1.323  52.493  1.00  0.00     0.057 A 
HETATM   10  C16 UNL     1      25.124   0.378  53.142  1.00  0.00     0.102 A 
ENDROOT
BRANCH   7  11
HETATM   11  N3  UNL     1      22.862   3.278  51.137  1.00  0.00    -0.336 N 
HETATM   12  C7  UNL     1      21.951   3.575  52.239  1.00  0.00     0.158 C 
BRANCH  11  13
HETATM   13  C8  UNL     1      22.211   3.003  49.893  1.00  0.00     0.032 A 
HETATM   14  C9  UNL     1      22.095   1.713  49.594  1.00  0.00     0.007 A 
HETATM   15  C10 UNL     1      21.405   1.555  48.286  1.00  0.00     0.063 A 
HETATM   16  C11 UNL     1      21.165   2.970  47.921  1.00  0.00    -0.078 A 
HETATM   17  C12 UNL     1      20.486   3.471  46.674  1.00  0.00     0.044 C 
HETATM   18  C13 UNL     1      21.618   3.801  48.827  1.00  0.00     0.032 A 
ENDBRANCH  11  13
ENDBRANCH   7  11
BRANCH  10  19
HETATM   19  O2  UNL     1      24.482  -0.511  53.993  1.00  0.00    -0.353 OA
HETATM   20  C17 UNL     1      23.104  -0.733  53.990  1.00  0.00     0.210 C 
ENDBRANCH  10  19
BRANCH   1  21
HETATM   21  O1  UNL     1      27.164  -0.702  53.675  1.00  0.00    -0.353 OA
HETATM   22  C1  UNL     1      28.534  -0.733  53.925  1.00  0.00     0.210 C 
ENDBRANCH   1  21
TORSDOF 4
ENDMDL
MODEL 4
REMARK VINA RESULT:      -7.1      3.368      5.538
REMARK  4 active torsions:
REMARK  status: ('A' for Active; 'I' for Inactive)
REMARK    1  A    between atoms: O1_2  and  C2_3 
REMARK    2  A    between atoms: C6_9  and  N3_10 
REMARK    3  A    between atoms: N3_10  and  C8_12 
REMARK    4  A    between atoms: C16_20  and  O2_21 
ROOT
HETATM    1  C2  UNL     1      22.678   0.274  53.584  1.00  0.00     0.103 A 
HETATM    2  C3  UNL     1      24.051   0.261  53.550  1.00  0.00     0.072 A 
HETATM    3  C4  UNL     1      24.809   1.018  52.658  1.00  0.00     0.075 A 
HETATM    4  N1  UNL     1      26.153   0.987  52.648  1.00  0.00    -0.241 NA
HETATM    5  C5  UNL     1      26.851   1.746  51.754  1.00  0.00     0.236 A 
HETATM    6  N2  UNL     1      26.212   2.550  50.857  1.00  0.00    -0.223 NA
HETATM    7  C6  UNL     1      24.874   2.574  50.877  1.00  0.00     0.144 A 
HETATM    8  C14 UNL     1      24.120   1.819  51.765  1.00  0.00     0.042 A 
HETATM    9  C15 UNL     1      22.742   1.871  51.754  1.00  0.00     0.057 A 
HETATM   10  C16 UNL     1      22.055   1.095  52.665  1.00  0.00     0.102 A 
ENDROOT
BRANCH   7  11
HETATM   11  N3  UNL     1      24.209   3.423  49.929  1.00  0.00    -0.336 N 
HETATM   12  C7  UNL     1      23.293   3.239  48.807  1.00  0.00     0.158 C 
BRANCH  11  13
HETATM   13  C8  UNL     1      24.562   4.787  50.183  1.00  0.00     0.032 A 
HETATM   14  C9  UNL     1      23.776   5.416  51.051  1.00  0.00     0.007 A 
HETATM   15  C10 UNL     1      24.241   6.818  51.232  1.00  0.00     0.063 A 
HETATM   16  C11 UNL     1      25.407   6.849  50.320  1.00  0.00    -0.078 A 
HETATM   17  C12 UNL     1      26.312   8.024  50.062  1.00  0.00     0.044 C 
HETATM   18  C13 UNL     1      25.599   5.700  49.718  1.00  0.00     0.032 A 
ENDBRANCH  11  13
ENDBRANCH   7  11
BRANCH  10  19
HETATM   19  O2  UNL     1      20.668   1.148  52.653  1.00  0.00    -0.353 OA
HETATM   20  C17 UNL     1      19.872   0.468  51.730  1.00  0.00     0.210 C 
ENDBRANCH  10  19
BRANCH   1  21
HETATM   21  O1  UNL     1      21.905  -0.458  54.447  1.00  0.00    -0.353 OA
HETATM   22  C1  UNL     1      21.557  -1.799  54.298  1.00  0.00     0.210 C 
ENDBRANCH   1  21
TORSDOF 4
ENDMDL
MODEL 5
REMARK VINA RESULT:      -6.8      3.057      5.205
REMARK  4 active torsions:
REMARK  status: ('A' for Active; 'I' for Inactive)
REMARK    1  A    between atoms: O1_2  and  C2_3 
REMARK    2  A    between atoms: C6_9  and  N3_10 
REMARK    3  A    between atoms: N3_10  and  C8_12 
REMARK    4  A    between atoms: C16_20  and  O2_21 
ROOT
HETATM    1  C2  UNL     1      19.643  -0.115  52.708  1.00  0.00     0.103 A 
HETATM    2  C3  UNL     1      19.492   0.272  51.398  1.00  0.00     0.072 A 
HETATM    3  C4  UNL     1      20.509   0.853  50.643  1.00  0.00     0.075 A 
HETATM    4  N1  UNL     1      20.335   1.222  49.362  1.00  0.00    -0.241 NA
HETATM    5  C5  UNL     1      21.362   1.787  48.664  1.00  0.00     0.236 A 
HETATM    6  N2  UNL     1      22.582   1.991  49.239  1.00  0.00    -0.223 NA
HETATM    7  C6  UNL     1      22.744   1.619  50.514  1.00  0.00     0.144 A 
HETATM    8  C14 UNL     1      21.730   1.041  51.266  1.00  0.00     0.042 A 
HETATM    9  C15 UNL     1      21.937   0.672  52.579  1.00  0.00     0.057 A 
HETATM   10  C16 UNL     1      20.886   0.103  53.267  1.00  0.00     0.102 A 
ENDROOT
BRANCH   7  11
HETATM   11  N3  UNL     1      24.032   1.837  51.112  1.00  0.00    -0.336 N 
HETATM   12  C7  UNL     1      24.891   1.129  52.056  1.00  0.00     0.158 C 
BRANCH  11  13
HETATM   13  C8  UNL     1      24.574   3.073  50.635  1.00  0.00     0.032 A 
HETATM   14  C9  UNL     1      24.024   4.165  51.156  1.00  0.00     0.007 A 
HETATM   15  C10 UNL     1      24.668   5.379  50.587  1.00  0.00     0.063 A 
HETATM   16  C11 UNL     1      25.658   4.769  49.670  1.00  0.00    -0.078 A 
HETATM   17  C12 UNL     1      26.634   5.502  48.788  1.00  0.00     0.044 C 
HETATM   18  C13 UNL     1      25.614   3.459  49.690  1.00  0.00     0.032 A 
ENDBRANCH  11  13
ENDBRANCH   7  11
BRANCH  10  19
HETATM   19  O2  UNL     1      21.095  -0.269  54.588  1.00  0.00    -0.353 OA
HETATM   20  C17 UNL     1      22.154  -1.074  55.010  1.00  0.00     0.210 C 
ENDBRANCH  10  19
BRANCH   1  21
HETATM   21  O1  UNL     1      18.663  -0.687  53.476  1.00  0.00    -0.353 OA
HETATM   22  C1  UNL     1      17.540  -1.363  53.003  1.00  0.00     0.210 C 
ENDBRANCH   1  21
TORSDOF 4
ENDMDL
MODEL 6
REMARK VINA RESULT:      -6.8      1.660      2.454
REMARK  4 active torsions:
REMARK  status: ('A' for Active; 'I' for Inactive)
REMARK    1  A    between atoms: O1_2  and  C2_3 
REMARK    2  A    between atoms: C6_9  and  N3_10 
REMARK    3  A    between atoms: N3_10  and  C8_12 
REMARK    4  A    between atoms: C16_20  and  O2_21 
ROOT
HETATM    1  C2  UNL     1      18.803   0.035  51.508  1.00  0.00     0.103 A 
HETATM    2  C3  UNL     1      19.118  -0.717  52.613  1.00  0.00     0.072 A 
HETATM    3  C4  UNL     1      20.333  -0.625  53.290  1.00  0.00     0.075 A 
HETATM    4  N1  UNL     1      20.615  -1.373  54.370  1.00  0.00    -0.241 NA
HETATM    5  C5  UNL     1      21.820  -1.247  54.998  1.00  0.00     0.236 A 
HETATM    6  N2  UNL     1      22.761  -0.366  54.553  1.00  0.00    -0.223 NA
HETATM    7  C6  UNL     1      22.469   0.375  53.477  1.00  0.00     0.144 A 
HETATM    8  C14 UNL     1      21.259   0.281  52.804  1.00  0.00     0.042 A 
HETATM    9  C15 UNL     1      20.996   1.062  51.698  1.00  0.00     0.057 A 
HETATM   10  C16 UNL     1      19.773   0.918  51.076  1.00  0.00     0.102 A 
ENDROOT
BRANCH   7  11
HETATM   11  N3  UNL     1      23.466   1.299  53.016  1.00  0.00    -0.336 N 
HETATM   12  C7  UNL     1      23.541   2.737  52.773  1.00  0.00     0.158 C 
BRANCH  11  13
HETATM   13  C8  UNL     1      24.677   0.591  52.732  1.00  0.00     0.032 A 
HETATM   14  C9  UNL     1      25.585   1.283  52.052  1.00  0.00     0.007 A 
HETATM   15  C10 UNL     1      26.793   0.446  51.820  1.00  0.00     0.063 A 
HETATM   16  C11 UNL     1      26.393  -0.815  52.484  1.00  0.00    -0.078 A 
HETATM   17  C12 UNL     1      27.215  -2.073  52.589  1.00  0.00     0.044 C 
HETATM   18  C13 UNL     1      25.193  -0.745  53.006  1.00  0.00     0.032 A 
ENDBRANCH  11  13
ENDBRANCH   7  11
BRANCH  10  19
HETATM   19  O2  UNL     1      19.509   1.704  49.964  1.00  0.00    -0.353 OA
HETATM   20  C17 UNL     1      20.410   1.892  48.914  1.00  0.00     0.210 C 
ENDBRANCH  10  19
BRANCH   1  21
HETATM   21  O1  UNL     1      17.619  -0.033  50.821  1.00  0.00    -0.353 OA
HETATM   22  C1  UNL     1      16.463  -0.687  51.243  1.00  0.00     0.210 C 
ENDBRANCH   1  21
TORSDOF 4
ENDMDL
MODEL 7
REMARK VINA RESULT:      -6.7      2.189      3.456
REMARK  4 active torsions:
REMARK  status: ('A' for Active; 'I' for Inactive)
REMARK    1  A    between atoms: O1_2  and  C2_3 
REMARK    2  A    between atoms: C6_9  and  N3_10 
REMARK    3  A    between atoms: N3_10  and  C8_12 
REMARK    4  A    between atoms: C16_20  and  O2_21 
ROOT
HETATM    1  C2  UNL     1      19.491   1.915  51.463  1.00  0.00     0.103 A 
HETATM    2  C3  UNL     1      20.416   2.930  51.503  1.00  0.00     0.072 A 
HETATM    3  C4  UNL     1      21.691   2.792  52.049  1.00  0.00     0.075 A 
HETATM    4  N1  UNL     1      22.578   3.802  52.073  1.00  0.00    -0.241 NA
HETATM    5  C5  UNL     1      23.815   3.618  52.620  1.00  0.00     0.236 A 
HETATM    6  N2  UNL     1      24.183   2.416  53.149  1.00  0.00    -0.223 NA
HETATM    7  C6  UNL     1      23.292   1.417  53.118  1.00  0.00     0.144 A 
HETATM    8  C14 UNL     1      22.023   1.556  52.575  1.00  0.00     0.042 A 
HETATM    9  C15 UNL     1      21.133   0.502  52.563  1.00  0.00     0.057 A 
HETATM   10  C16 UNL     1      19.888   0.708  52.006  1.00  0.00     0.102 A 
ENDROOT
BRANCH   7  11
HETATM   11  N3  UNL     1      23.689   0.155  53.678  1.00  0.00    -0.336 N 
HETATM   12  C7  UNL     1      23.012  -1.003  54.255  1.00  0.00     0.158 C 
BRANCH  11  13
HETATM   13  C8  UNL     1      25.115   0.046  53.643  1.00  0.00     0.032 A 
HETATM   14  C9  UNL     1      25.624  -0.274  52.458  1.00  0.00     0.007 A 
HETATM   15  C10 UNL     1      27.107  -0.356  52.547  1.00  0.00     0.063 A 
HETATM   16  C11 UNL     1      27.322  -0.030  53.975  1.00  0.00    -0.078 A 
HETATM   17  C12 UNL     1      28.646   0.047  54.688  1.00  0.00     0.044 C 
HETATM   18  C13 UNL     1      26.197   0.201  54.608  1.00  0.00     0.032 A 
ENDBRANCH  11  13
ENDBRANCH   7  11
BRANCH  10  19
HETATM   19  O2  UNL     1      18.994  -0.353  51.994  1.00  0.00    -0.353 OA
HETATM   20  C17 UNL     1      18.484  -0.953  53.147  1.00  0.00     0.210 C 
ENDBRANCH  10  19
BRANCH   1  21
HETATM   21  O1  UNL     1      18.231   2.019  50.935  1.00  0.00    -0.353 OA
HETATM   22  C1  UNL     1      17.188   2.787  51.449  1.00  0.00     0.210 C 
ENDBRANCH   1  21
TORSDOF 4
ENDMDL
MODEL 8
REMARK VINA RESULT:      -6.7      3.611      7.451
REMARK  4 active torsions:
REMARK  status: ('A' for Active; 'I' for Inactive)
REMARK    1  A    between atoms: O1_2  and  C2_3 
REMARK    2  A    between atoms: C6_9  and  N3_10 
REMARK    3  A    between atoms: N3_10  and  C8_12 
REMARK    4  A    between atoms: C16_20  and  O2_21 
ROOT
HETATM    1  C2  UNL     1      26.649   2.222  52.035  1.00  0.00     0.103 A 
HETATM    2  C3  UNL     1      25.771   1.441  52.746  1.00  0.00     0.072 A 
HETATM    3  C4  UNL     1      24.456   1.201  52.352  1.00  0.00     0.075 A 
HETATM    4  N1  UNL     1      23.619   0.430  53.067  1.00  0.00    -0.241 NA
HETATM    5  C5  UNL     1      22.339   0.225  52.639  1.00  0.00     0.236 A 
HETATM    6  N2  UNL     1      21.880   0.788  51.484  1.00  0.00    -0.223 NA
HETATM    7  C6  UNL     1      22.723   1.552  50.780  1.00  0.00     0.144 A 
HETATM    8  C14 UNL     1      24.032   1.792  51.175  1.00  0.00     0.042 A 
HETATM    9  C15 UNL     1      24.870   2.586  50.421  1.00  0.00     0.057 A 
HETATM   10  C16 UNL     1      26.160   2.782  50.871  1.00  0.00     0.102 A 
ENDROOT
BRANCH   7  11
HETATM   11  N3  UNL     1      22.231   2.141  49.566  1.00  0.00    -0.336 N 
HETATM   12  C7  UNL     1      22.535   2.035  48.143  1.00  0.00     0.158 C 
BRANCH  11  13
HETATM   13  C8  UNL     1      21.177   3.059  49.876  1.00  0.00     0.032 A 
HETATM   14  C9  UNL     1      21.575   4.294  50.160  1.00  0.00     0.007 A 
HETATM   15  C10 UNL     1      20.396   5.150  50.463  1.00  0.00     0.063 A 
HETATM   16  C11 UNL     1      19.292   4.178  50.298  1.00  0.00    -0.078 A 
HETATM   17  C12 UNL     1      17.822   4.453  50.475  1.00  0.00     0.044 C 
HETATM   18  C13 UNL     1      19.724   2.986  49.965  1.00  0.00     0.032 A 
ENDBRANCH  11  13
ENDBRANCH   7  11
BRANCH  10  19
HETATM   19  O2  UNL     1      27.002   3.581  50.111  1.00  0.00    -0.353 OA
HETATM   20  C17 UNL     1      26.553   4.552  49.215  1.00  0.00     0.210 C 
ENDBRANCH  10  19
BRANCH   1  21
HETATM   21  O1  UNL     1      27.946   2.478  52.396  1.00  0.00    -0.353 OA
HETATM   22  C1  UNL     1      28.579   2.025  53.552  1.00  0.00     0.210 C 
ENDBRANCH   1  21
TORSDOF 4
ENDMDL
MODEL 9
REMARK VINA RESULT:      -6.6      9.281     11.587
REMARK  4 active torsions:
REMARK  status: ('A' for Active; 'I' for Inactive)
REMARK    1  A    between atoms: O1_2  and  C2_3 
REMARK    2  A    between atoms: C6_9  and  N3_10 
REMARK    3  A    between atoms: N3_10  and  C8_12 
REMARK    4  A    between atoms: C16_20  and  O2_21 
ROOT
HETATM    1  C2  UNL     1      27.052   7.556  47.254  1.00  0.00     0.103 A 
HETATM    2  C3  UNL     1      27.899   8.306  46.476  1.00  0.00     0.072 A 
HETATM    3  C4  UNL     1      29.287   8.188  46.510  1.00  0.00     0.075 A 
HETATM    4  N1  UNL     1      30.094   8.935  45.736  1.00  0.00    -0.241 NA
HETATM    5  C5  UNL     1      31.448   8.783  45.807  1.00  0.00     0.236 A 
HETATM    6  N2  UNL     1      32.016   7.877  46.655  1.00  0.00    -0.223 NA
HETATM    7  C6  UNL     1      31.203   7.139  47.419  1.00  0.00     0.144 A 
HETATM    8  C14 UNL     1      29.821   7.258  47.385  1.00  0.00     0.042 A 
HETATM    9  C15 UNL     1      29.017   6.478  48.190  1.00  0.00     0.057 A 
HETATM   10  C16 UNL     1      27.650   6.647  48.104  1.00  0.00     0.102 A 
ENDROOT
BRANCH   7  11
HETATM   11  N3  UNL     1      31.809   6.188  48.309  1.00  0.00    -0.336 N 
HETATM   12  C7  UNL     1      31.897   6.001  49.754  1.00  0.00     0.158 C 
BRANCH  11  13
HETATM   13  C8  UNL     1      32.490   5.188  47.544  1.00  0.00     0.032 A 
HETATM   14  C9  UNL     1      31.750   4.135  47.215  1.00  0.00     0.007 A 
HETATM   15  C10 UNL     1      32.563   3.170  46.426  1.00  0.00     0.063 A 
HETATM   16  C11 UNL     1      33.867   3.871  46.381  1.00  0.00    -0.078 A 
HETATM   17  C12 UNL     1      35.123   3.386  45.707  1.00  0.00     0.044 C 
HETATM   18  C13 UNL     1      33.837   5.019  47.013  1.00  0.00     0.032 A 
ENDBRANCH  11  13
ENDBRANCH   7  11
BRANCH  10  19
HETATM   19  O2  UNL     1      26.843   5.862  48.914  1.00  0.00    -0.353 OA
HETATM   20  C17 UNL     1      26.987   4.480  49.050  1.00  0.00     0.210 C 
ENDBRANCH  10  19
BRANCH   1  21
HETATM   21  O1  UNL     1      25.684   7.649  47.243  1.00  0.00    -0.353 OA
HETATM   22  C1  UNL     1      24.943   8.829  47.242  1.00  0.00     0.210 C 
ENDBRANCH   1  21
TORSDOF 4
ENDMDL
