MODEL 1
REMARK VINA RESULT:      -8.5      0.000      0.000
REMARK  3 active torsions:
REMARK  status: ('A' for Active; 'I' for Inactive)
REMARK    1  A    between atoms: C2_2  and  C3_3 
REMARK       I    between atoms: C3_3  and  N1_5 
REMARK    2  A    between atoms: N1_5  and  C4_6 
REMARK    3  A    between atoms: C9_12  and  C10_13 
ROOT
HETATM    1  C4  UNL     1      21.210   0.010  52.644  1.00  0.00     0.036 A 
HETATM    2  C5  UNL     1      22.506   0.194  52.780  1.00  0.00     0.047 A 
HETATM    3  C6  UNL     1      23.266  -0.416  53.885  1.00  0.00     0.040 A 
HETATM    4  C7  UNL     1      24.541  -0.174  53.935  1.00  0.00     0.139 A 
HETATM    5  N2  UNL     1      25.121   0.654  52.935  1.00  0.00    -0.241 NA
HETATM    6  C8  UNL     1      26.367   0.966  52.874  1.00  0.00     0.133 A 
HETATM    7  C9  UNL     1      27.337   0.493  53.848  1.00  0.00     0.021 A 
HETATM    8  C12 UNL     1      26.891  -0.285  54.819  1.00  0.00     0.104 A 
HETATM    9  N3  UNL     1      25.512  -0.613  54.859  1.00  0.00    -0.349 N 
HETATM   10  C13 UNL     1      22.421  -1.212  54.757  1.00  0.00     0.062 A 
HETATM   11  N4  UNL     1      23.004  -1.782  55.750  1.00  0.00    -0.299 NA
HETATM   12  C14 UNL     1      20.988  -1.374  54.547  1.00  0.00     0.034 A 
HETATM   13  C15 UNL     1      20.383  -0.792  53.530  1.00  0.00     0.032 A 
HETATM   14  H9  UNL     1      25.202  -1.227  55.638  1.00  0.00     0.167 HD
HETATM   15  H10 UNL     1      22.427  -2.357  56.391  1.00  0.00     0.187 HD
ENDROOT
BRANCH   1  16
HETATM   16  N1  UNL     1      20.518   0.621  51.559  1.00  0.00    -0.324 N 
HETATM   17  C3  UNL     1      19.936   1.883  51.948  1.00  0.00     0.244 C 
HETATM   18  O1  UNL     1      20.176   2.157  53.171  1.00  0.00    -0.268 OA
HETATM   19  H4  UNL     1      20.388   0.290  50.575  1.00  0.00     0.169 HD
BRANCH  17  20
HETATM   20  C2  UNL     1      19.171   2.719  51.024  1.00  0.00     0.064 C 
HETATM   21  C1  UNL     1      18.377   3.733  51.343  1.00  0.00     0.017 C 
ENDBRANCH  17  20
ENDBRANCH   1  16
BRANCH   7  22
HETATM   22  C10 UNL     1      28.738   0.867  53.748  1.00  0.00     0.073 C 
HETATM   23 CL1  UNL     1      29.283   2.520  53.903  1.00  0.00    -0.081 Cl
HETATM   24  C11 UNL     1      29.681  -0.034  53.532  1.00  0.00     0.213 C 
HETATM   25  F1  UNL     1      29.892  -1.354  53.339  1.00  0.00    -0.218 F 
ENDBRANCH   7  22
TORSDOF 3
ENDMDL
MODEL 2
REMARK VINA RESULT:      -7.8      3.881      6.911
REMARK  3 active torsions:
REMARK  status: ('A' for Active; 'I' for Inactive)
REMARK    1  A    between atoms: C2_2  and  C3_3 
REMARK       I    between atoms: C3_3  and  N1_5 
REMARK    2  A    between atoms: N1_5  and  C4_6 
REMARK    3  A    between atoms: C9_12  and  C10_13 
ROOT
HETATM    1  C4  UNL     1      25.061  -0.772  54.228  1.00  0.00     0.036 A 
HETATM    2  C5  UNL     1      24.433  -0.094  53.291  1.00  0.00     0.047 A 
HETATM    3  C6  UNL     1      22.978   0.132  53.337  1.00  0.00     0.040 A 
HETATM    4  C7  UNL     1      22.450   0.813  52.366  1.00  0.00     0.139 A 
HETATM    5  N2  UNL     1      23.295   1.294  51.328  1.00  0.00    -0.241 NA
HETATM    6  C8  UNL     1      22.896   1.978  50.315  1.00  0.00     0.133 A 
HETATM    7  C9  UNL     1      21.500   2.340  50.121  1.00  0.00     0.021 A 
HETATM    8  C12 UNL     1      20.637   1.936  51.036  1.00  0.00     0.104 A 
HETATM    9  N3  UNL     1      21.108   1.184  52.143  1.00  0.00    -0.349 N 
HETATM   10  C13 UNL     1      22.367  -0.470  54.509  1.00  0.00     0.062 A 
HETATM   11  N4  UNL     1      21.097  -0.321  54.629  1.00  0.00    -0.299 NA
HETATM   12  C14 UNL     1      23.124  -1.211  55.510  1.00  0.00     0.034 A 
HETATM   13  C15 UNL     1      24.428  -1.367  55.394  1.00  0.00     0.032 A 
HETATM   14  H9  UNL     1      20.397   0.886  52.839  1.00  0.00     0.167 HD
HETATM   15  H10 UNL     1      20.632  -0.740  55.455  1.00  0.00     0.187 HD
ENDROOT
BRANCH   1  16
HETATM   16  N1  UNL     1      26.470  -0.965  54.139  1.00  0.00    -0.324 N 
HETATM   17  C3  UNL     1      27.191   0.174  54.653  1.00  0.00     0.244 C 
HETATM   18  O1  UNL     1      26.402   1.087  55.066  1.00  0.00    -0.268 OA
HETATM   19  H4  UNL     1      27.014  -1.780  53.771  1.00  0.00     0.169 HD
BRANCH  17  20
HETATM   20  C2  UNL     1      28.652   0.237  54.680  1.00  0.00     0.064 C 
HETATM   21  C1  UNL     1      29.488  -0.342  53.829  1.00  0.00     0.017 C 
ENDBRANCH  17  20
ENDBRANCH   1  16
BRANCH   7  22
HETATM   22  C10 UNL     1      21.085   3.114  48.963  1.00  0.00     0.073 C 
HETATM   23 CL1  UNL     1      19.866   4.362  49.055  1.00  0.00    -0.081 Cl
HETATM   24  C11 UNL     1      21.615   2.911  47.769  1.00  0.00     0.213 C 
HETATM   25  F1  UNL     1      22.519   2.162  47.100  1.00  0.00    -0.218 F 
ENDBRANCH   7  22
TORSDOF 3
ENDMDL
MODEL 3
REMARK VINA RESULT:      -7.8      5.062      7.374
REMARK  3 active torsions:
REMARK  status: ('A' for Active; 'I' for Inactive)
REMARK    1  A    between atoms: C2_2  and  C3_3 
REMARK       I    between atoms: C3_3  and  N1_5 
REMARK    2  A    between atoms: N1_5  and  C4_6 
REMARK    3  A    between atoms: C9_12  and  C10_13 
ROOT
HETATM    1  C4  UNL     1      25.935   0.470  52.153  1.00  0.00     0.036 A 
HETATM    2  C5  UNL     1      26.219   1.514  51.405  1.00  0.00     0.047 A 
HETATM    3  C6  UNL     1      25.361   2.712  51.385  1.00  0.00     0.040 A 
HETATM    4  C7  UNL     1      25.724   3.691  50.613  1.00  0.00     0.139 A 
HETATM    5  N2  UNL     1      26.911   3.553  49.843  1.00  0.00    -0.241 NA
HETATM    6  C8  UNL     1      27.376   4.447  49.045  1.00  0.00     0.133 A 
HETATM    7  C9  UNL     1      26.716   5.728  48.842  1.00  0.00     0.021 A 
HETATM    8  C12 UNL     1      25.602   5.949  49.516  1.00  0.00     0.104 A 
HETATM    9  N3  UNL     1      25.115   4.944  50.390  1.00  0.00    -0.349 N 
HETATM   10  C13 UNL     1      24.215   2.580  52.268  1.00  0.00     0.062 A 
HETATM   11  N4  UNL     1      23.413   3.582  52.312  1.00  0.00    -0.299 NA
HETATM   12  C14 UNL     1      23.961   1.391  53.071  1.00  0.00     0.034 A 
HETATM   13  C15 UNL     1      24.781   0.359  53.030  1.00  0.00     0.032 A 
HETATM   14  H9  UNL     1      24.237   5.157  50.901  1.00  0.00     0.167 HD
HETATM   15  H10 UNL     1      22.585   3.517  52.933  1.00  0.00     0.187 HD
ENDROOT
BRANCH   1  16
HETATM   16  N1  UNL     1      26.795  -0.666  52.138  1.00  0.00    -0.324 N 
HETATM   17  C3  UNL     1      27.877  -0.521  53.081  1.00  0.00     0.244 C 
HETATM   18  O1  UNL     1      27.813   0.589  53.707  1.00  0.00    -0.268 OA
HETATM   19  H4  UNL     1      26.743  -1.540  51.565  1.00  0.00     0.169 HD
BRANCH  17  20
HETATM   20  C2  UNL     1      28.905  -1.544  53.269  1.00  0.00     0.064 C 
HETATM   21  C1  UNL     1      30.123  -1.364  53.763  1.00  0.00     0.017 C 
ENDBRANCH  17  20
ENDBRANCH   1  16
BRANCH   7  22
HETATM   22  C10 UNL     1      27.271   6.715  47.930  1.00  0.00     0.073 C 
HETATM   23 CL1  UNL     1      26.274   7.858  47.063  1.00  0.00    -0.081 Cl
HETATM   24  C11 UNL     1      28.571   6.800  47.710  1.00  0.00     0.213 C 
HETATM   25  F1  UNL     1      29.762   6.255  48.041  1.00  0.00    -0.218 F 
ENDBRANCH   7  22
TORSDOF 3
ENDMDL
MODEL 4
REMARK VINA RESULT:      -7.7      4.507      7.266
REMARK  3 active torsions:
REMARK  status: ('A' for Active; 'I' for Inactive)
REMARK    1  A    between atoms: C2_2  and  C3_3 
REMARK       I    between atoms: C3_3  and  N1_5 
REMARK    2  A    between atoms: N1_5  and  C4_6 
REMARK    3  A    between atoms: C9_12  and  C10_13 
ROOT
HETATM    1  C4  UNL     1      25.467   0.344  53.007  1.00  0.00     0.036 A 
HETATM    2  C5  UNL     1      24.927   1.460  52.567  1.00  0.00     0.047 A 
HETATM    3  C6  UNL     1      23.481   1.721  52.681  1.00  0.00     0.040 A 
HETATM    4  C7  UNL     1      23.042   2.852  52.215  1.00  0.00     0.139 A 
HETATM    5  N2  UNL     1      23.969   3.758  51.631  1.00  0.00    -0.241 NA
HETATM    6  C8  UNL     1      23.661   4.904  51.137  1.00  0.00     0.133 A 
HETATM    7  C9  UNL     1      22.295   5.405  51.124  1.00  0.00     0.021 A 
HETATM    8  C12 UNL     1      21.361   4.631  51.647  1.00  0.00     0.104 A 
HETATM    9  N3  UNL     1      21.732   3.372  52.185  1.00  0.00    -0.349 N 
HETATM   10  C13 UNL     1      22.775   0.625  53.320  1.00  0.00     0.062 A 
HETATM   11  N4  UNL     1      21.507   0.770  53.461  1.00  0.00    -0.299 NA
HETATM   12  C14 UNL     1      23.438  -0.586  53.786  1.00  0.00     0.034 A 
HETATM   13  C15 UNL     1      24.740  -0.741  53.645  1.00  0.00     0.032 A 
HETATM   14  H9  UNL     1      20.968   2.795  52.586  1.00  0.00     0.167 HD
HETATM   15  H10 UNL     1      20.974   0.004  53.913  1.00  0.00     0.187 HD
ENDROOT
BRANCH   1  16
HETATM   16  N1  UNL     1      26.870   0.136  52.874  1.00  0.00    -0.324 N 
HETATM   17  C3  UNL     1      27.578   0.537  54.066  1.00  0.00     0.244 C 
HETATM   18  O1  UNL     1      26.785   0.983  54.960  1.00  0.00    -0.268 OA
HETATM   19  H4  UNL     1      27.418  -0.248  52.070  1.00  0.00     0.169 HD
BRANCH  17  20
HETATM   20  C2  UNL     1      29.031   0.429  54.196  1.00  0.00     0.064 C 
HETATM   21  C1  UNL     1      29.795  -0.566  53.763  1.00  0.00     0.017 C 
ENDBRANCH  17  20
ENDBRANCH   1  16
BRANCH   7  22
HETATM   22  C10 UNL     1      21.984   6.707  50.556  1.00  0.00     0.073 C 
HETATM   23 CL1  UNL     1      20.511   7.017  49.670  1.00  0.00    -0.081 Cl
HETATM   24  C11 UNL     1      22.808   7.732  50.684  1.00  0.00     0.213 C 
HETATM   25  F1  UNL     1      23.996   8.106  51.207  1.00  0.00    -0.218 F 
ENDBRANCH   7  22
TORSDOF 3
ENDMDL
MODEL 5
REMARK VINA RESULT:      -7.5      4.303      6.875
REMARK  3 active torsions:
REMARK  status: ('A' for Active; 'I' for Inactive)
REMARK    1  A    between atoms: C2_2  and  C3_3 
REMARK       I    between atoms: C3_3  and  N1_5 
REMARK    2  A    between atoms: N1_5  and  C4_6 
REMARK    3  A    between atoms: C9_12  and  C10_13 
ROOT
HETATM    1  C4  UNL     1      26.203   1.211  52.015  1.00  0.00     0.036 A 
HETATM    2  C5  UNL     1      24.944   0.858  52.162  1.00  0.00     0.047 A 
HETATM    3  C6  UNL     1      24.491   0.056  53.312  1.00  0.00     0.040 A 
HETATM    4  C7  UNL     1      23.228  -0.243  53.369  1.00  0.00     0.139 A 
HETATM    5  N2  UNL     1      22.369   0.214  52.332  1.00  0.00    -0.241 NA
HETATM    6  C8  UNL     1      21.105  -0.015  52.273  1.00  0.00     0.133 A 
HETATM    7  C9  UNL     1      20.405  -0.785  53.289  1.00  0.00     0.021 A 
HETATM    8  C12 UNL     1      21.122  -1.252  54.296  1.00  0.00     0.104 A 
HETATM    9  N3  UNL     1      22.514  -0.983  54.333  1.00  0.00    -0.349 N 
HETATM   10  C13 UNL     1      25.580  -0.270  54.216  1.00  0.00     0.062 A 
HETATM   11  N4  UNL     1      25.273  -0.968  55.249  1.00  0.00    -0.299 NA
HETATM   12  C14 UNL     1      26.956   0.155  53.992  1.00  0.00     0.034 A 
HETATM   13  C15 UNL     1      27.278   0.873  52.933  1.00  0.00     0.032 A 
HETATM   14  H9  UNL     1      23.041  -1.369  55.141  1.00  0.00     0.167 HD
HETATM   15  H10 UNL     1      26.028  -1.217  55.913  1.00  0.00     0.187 HD
ENDROOT
BRANCH   1  16
HETATM   16  N1  UNL     1      26.594   1.986  50.885  1.00  0.00    -0.324 N 
HETATM   17  C3  UNL     1      25.880   3.239  50.833  1.00  0.00     0.244 C 
HETATM   18  O1  UNL     1      25.066   3.361  51.808  1.00  0.00    -0.268 OA
HETATM   19  H4  UNL     1      27.292   1.774  50.135  1.00  0.00     0.169 HD
BRANCH  17  20
HETATM   20  C2  UNL     1      26.091   4.225  49.774  1.00  0.00     0.064 C 
HETATM   21  C1  UNL     1      27.167   4.351  49.009  1.00  0.00     0.017 C 
ENDBRANCH  17  20
ENDBRANCH   1  16
BRANCH   7  22
HETATM   22  C10 UNL     1      18.975  -1.023  53.190  1.00  0.00     0.073 C 
HETATM   23 CL1  UNL     1      18.207  -2.434  53.877  1.00  0.00    -0.081 Cl
HETATM   24  C11 UNL     1      18.173  -0.175  52.569  1.00  0.00     0.213 C 
HETATM   25  F1  UNL     1      18.151   0.993  51.891  1.00  0.00    -0.218 F 
ENDBRANCH   7  22
TORSDOF 3
ENDMDL
MODEL 6
REMARK VINA RESULT:      -7.5      4.193      7.393
REMARK  3 active torsions:
REMARK  status: ('A' for Active; 'I' for Inactive)
REMARK    1  A    between atoms: C2_2  and  C3_3 
REMARK       I    between atoms: C3_3  and  N1_5 
REMARK    2  A    between atoms: N1_5  and  C4_6 
REMARK    3  A    between atoms: C9_12  and  C10_13 
ROOT
HETATM    1  C4  UNL     1      25.007  -0.303  54.407  1.00  0.00     0.036 A 
HETATM    2  C5  UNL     1      24.151   0.115  53.500  1.00  0.00     0.047 A 
HETATM    3  C6  UNL     1      22.724  -0.251  53.552  1.00  0.00     0.040 A 
HETATM    4  C7  UNL     1      21.958   0.210  52.610  1.00  0.00     0.139 A 
HETATM    5  N2  UNL     1      22.531   1.029  51.599  1.00  0.00    -0.241 NA
HETATM    6  C8  UNL     1      21.881   1.545  50.617  1.00  0.00     0.133 A 
HETATM    7  C9  UNL     1      20.453   1.338  50.434  1.00  0.00     0.021 A 
HETATM    8  C12 UNL     1      19.830   0.589  51.327  1.00  0.00     0.104 A 
HETATM    9  N3  UNL     1      20.574   0.034  52.399  1.00  0.00    -0.349 N 
HETATM   10  C13 UNL     1      22.416  -1.095  54.692  1.00  0.00     0.062 A 
HETATM   11  N4  UNL     1      21.191  -1.461  54.814  1.00  0.00    -0.299 NA
HETATM   12  C14 UNL     1      23.417  -1.522  55.661  1.00  0.00     0.034 A 
HETATM   13  C15 UNL     1      24.676  -1.149  55.542  1.00  0.00     0.032 A 
HETATM   14  H9  UNL     1      20.047  -0.549  53.079  1.00  0.00     0.167 HD
HETATM   15  H10 UNL     1      20.939  -2.065  55.618  1.00  0.00     0.187 HD
ENDROOT
BRANCH   1  16
HETATM   16  N1  UNL     1      26.378   0.076  54.315  1.00  0.00    -0.324 N 
HETATM   17  C3  UNL     1      27.093  -0.753  53.376  1.00  0.00     0.244 C 
HETATM   18  O1  UNL     1      26.334  -1.632  52.847  1.00  0.00    -0.268 OA
HETATM   19  H4  UNL     1      26.898   0.836  54.813  1.00  0.00     0.169 HD
BRANCH  17  20
HETATM   20  C2  UNL     1      28.516  -0.577  53.090  1.00  0.00     0.064 C 
HETATM   21  C1  UNL     1      29.525  -0.789  53.925  1.00  0.00     0.017 C 
ENDBRANCH  17  20
ENDBRANCH   1  16
BRANCH   7  22
HETATM   22  C10 UNL     1      19.750   1.937  49.311  1.00  0.00     0.073 C 
HETATM   23 CL1  UNL     1      20.551   2.352  47.815  1.00  0.00    -0.081 Cl
HETATM   24  C11 UNL     1      18.456   2.200  49.366  1.00  0.00     0.213 C 
HETATM   25  F1  UNL     1      17.370   2.124  50.165  1.00  0.00    -0.218 F 
ENDBRANCH   7  22
TORSDOF 3
ENDMDL
MODEL 7
REMARK VINA RESULT:      -7.4      4.623      8.051
REMARK  3 active torsions:
REMARK  status: ('A' for Active; 'I' for Inactive)
REMARK    1  A    between atoms: C2_2  and  C3_3 
REMARK       I    between atoms: C3_3  and  N1_5 
REMARK    2  A    between atoms: N1_5  and  C4_6 
REMARK    3  A    between atoms: C9_12  and  C10_13 
ROOT
HETATM    1  C4  UNL     1      25.370   0.691  53.538  1.00  0.00     0.036 A 
HETATM    2  C5  UNL     1      24.122   0.275  53.517  1.00  0.00     0.047 A 
HETATM    3  C6  UNL     1      23.025   1.133  53.035  1.00  0.00     0.040 A 
HETATM    4  C7  UNL     1      21.826   0.633  53.054  1.00  0.00     0.139 A 
HETATM    5  N2  UNL     1      21.644  -0.693  53.532  1.00  0.00    -0.241 NA
HETATM    6  C8  UNL     1      20.512  -1.299  53.600  1.00  0.00     0.133 A 
HETATM    7  C9  UNL     1      19.267  -0.673  53.184  1.00  0.00     0.021 A 
HETATM    8  C12 UNL     1      19.336   0.564  52.724  1.00  0.00     0.104 A 
HETATM    9  N3  UNL     1      20.599   1.205  52.660  1.00  0.00    -0.349 N 
HETATM   10  C13 UNL     1      23.498   2.437  52.606  1.00  0.00     0.062 A 
HETATM   11  N4  UNL     1      22.605   3.251  52.168  1.00  0.00    -0.299 NA
HETATM   12  C14 UNL     1      24.899   2.833  52.656  1.00  0.00     0.034 A 
HETATM   13  C15 UNL     1      25.821   2.002  53.103  1.00  0.00     0.032 A 
HETATM   14  H9  UNL     1      20.609   2.177  52.292  1.00  0.00     0.167 HD
HETATM   15  H10 UNL     1      22.912   4.190  51.855  1.00  0.00     0.187 HD
ENDROOT
BRANCH   1  16
HETATM   16  N1  UNL     1      26.396  -0.175  54.014  1.00  0.00    -0.324 N 
HETATM   17  C3  UNL     1      27.117  -0.788  52.925  1.00  0.00     0.244 C 
HETATM   18  O1  UNL     1      26.669  -0.413  51.791  1.00  0.00    -0.268 OA
HETATM   19  H4  UNL     1      26.677  -0.408  54.995  1.00  0.00     0.169 HD
BRANCH  17  20
HETATM   20  C2  UNL     1      28.223  -1.721  53.134  1.00  0.00     0.064 C 
HETATM   21  C1  UNL     1      29.482  -1.410  53.415  1.00  0.00     0.017 C 
ENDBRANCH  17  20
ENDBRANCH   1  16
BRANCH   7  22
HETATM   22  C10 UNL     1      18.006  -1.389  53.276  1.00  0.00     0.073 C 
HETATM   23 CL1  UNL     1      17.891  -3.013  53.910  1.00  0.00    -0.081 Cl
HETATM   24  C11 UNL     1      16.869  -0.841  52.882  1.00  0.00     0.213 C 
HETATM   25  F1  UNL     1      16.337   0.281  52.350  1.00  0.00    -0.218 F 
ENDBRANCH   7  22
TORSDOF 3
ENDMDL
MODEL 8
REMARK VINA RESULT:      -7.4      4.275      7.907
REMARK  3 active torsions:
REMARK  status: ('A' for Active; 'I' for Inactive)
REMARK    1  A    between atoms: C2_2  and  C3_3 
REMARK       I    between atoms: C3_3  and  N1_5 
REMARK    2  A    between atoms: N1_5  and  C4_6 
REMARK    3  A    between atoms: C9_12  and  C10_13 
ROOT
HETATM    1  C4  UNL     1      26.139   1.277  51.891  1.00  0.00     0.036 A 
HETATM    2  C5  UNL     1      24.865   0.972  52.017  1.00  0.00     0.047 A 
HETATM    3  C6  UNL     1      23.801   1.839  51.481  1.00  0.00     0.040 A 
HETATM    4  C7  UNL     1      22.574   1.453  51.656  1.00  0.00     0.139 A 
HETATM    5  N2  UNL     1      22.331   0.233  52.345  1.00  0.00    -0.241 NA
HETATM    6  C8  UNL     1      21.166  -0.257  52.581  1.00  0.00     0.133 A 
HETATM    7  C9  UNL     1      19.942   0.405  52.156  1.00  0.00     0.021 A 
HETATM    8  C12 UNL     1      20.067   1.549  51.506  1.00  0.00     0.104 A 
HETATM    9  N3  UNL     1      21.365   2.063  51.260  1.00  0.00    -0.349 N 
HETATM   10  C13 UNL     1      24.335   3.019  50.825  1.00  0.00     0.062 A 
HETATM   11  N4  UNL     1      23.475   3.832  50.327  1.00  0.00    -0.299 NA
HETATM   12  C14 UNL     1      25.762   3.296  50.721  1.00  0.00     0.034 A 
HETATM   13  C15 UNL     1      26.651   2.466  51.229  1.00  0.00     0.032 A 
HETATM   14  H9  UNL     1      21.419   2.964  50.747  1.00  0.00     0.167 HD
HETATM   15  H10 UNL     1      23.825   4.685  49.853  1.00  0.00     0.187 HD
ENDROOT
BRANCH   1  16
HETATM   16  N1  UNL     1      27.132   0.407  52.426  1.00  0.00    -0.324 N 
HETATM   17  C3  UNL     1      27.552   0.831  53.740  1.00  0.00     0.244 C 
HETATM   18  O1  UNL     1      26.938   1.884  54.116  1.00  0.00    -0.268 OA
HETATM   19  H4  UNL     1      27.567  -0.450  52.012  1.00  0.00     0.169 HD
BRANCH  17  20
HETATM   20  C2  UNL     1      28.562   0.113  54.517  1.00  0.00     0.064 C 
HETATM   21  C1  UNL     1      29.595  -0.568  54.038  1.00  0.00     0.017 C 
ENDBRANCH  17  20
ENDBRANCH   1  16
BRANCH   7  22
HETATM   22  C10 UNL     1      18.642  -0.178  52.441  1.00  0.00     0.073 C 
HETATM   23 CL1  UNL     1      17.158   0.469  51.784  1.00  0.00    -0.081 Cl
HETATM   24  C11 UNL     1      18.515  -1.239  53.219  1.00  0.00     0.213 C 
HETATM   25  F1  UNL     1      19.213  -2.124  53.964  1.00  0.00    -0.218 F 
ENDBRANCH   7  22
TORSDOF 3
ENDMDL
MODEL 9
REMARK VINA RESULT:      -7.3      2.750      3.024
REMARK  3 active torsions:
REMARK  status: ('A' for Active; 'I' for Inactive)
REMARK    1  A    between atoms: C2_2  and  C3_3 
REMARK       I    between atoms: C3_3  and  N1_5 
REMARK    2  A    between atoms: N1_5  and  C4_6 
REMARK    3  A    between atoms: C9_12  and  C10_13 
ROOT
HETATM    1  C4  UNL     1      21.974   2.865  51.623  1.00  0.00     0.036 A 
HETATM    2  C5  UNL     1      23.125   2.292  51.900  1.00  0.00     0.047 A 
HETATM    3  C6  UNL     1      23.213   1.100  52.762  1.00  0.00     0.040 A 
HETATM    4  C7  UNL     1      24.395   0.608  52.979  1.00  0.00     0.139 A 
HETATM    5  N2  UNL     1      25.520   1.239  52.381  1.00  0.00    -0.241 NA
HETATM    6  C8  UNL     1      26.738   0.850  52.518  1.00  0.00     0.133 A 
HETATM    7  C9  UNL     1      27.100  -0.308  53.320  1.00  0.00     0.021 A 
HETATM    8  C12 UNL     1      26.119  -0.962  53.917  1.00  0.00     0.104 A 
HETATM    9  N3  UNL     1      24.786  -0.508  53.747  1.00  0.00    -0.349 N 
HETATM   10  C13 UNL     1      21.909   0.669  53.235  1.00  0.00     0.062 A 
HETATM   11  N4  UNL     1      21.893  -0.367  53.994  1.00  0.00    -0.299 NA
HETATM   12  C14 UNL     1      20.670   1.351  52.887  1.00  0.00     0.034 A 
HETATM   13  C15 UNL     1      20.679   2.415  52.107  1.00  0.00     0.032 A 
HETATM   14  H9  UNL     1      24.045  -1.050  54.233  1.00  0.00     0.167 HD
HETATM   15  H10 UNL     1      20.977  -0.699  54.348  1.00  0.00     0.187 HD
ENDROOT
BRANCH   1  16
HETATM   16  N1  UNL     1      21.939   4.016  50.784  1.00  0.00    -0.324 N 
HETATM   17  C3  UNL     1      22.190   5.223  51.536  1.00  0.00     0.244 C 
HETATM   18  O1  UNL     1      22.383   4.979  52.773  1.00  0.00    -0.268 OA
HETATM   19  H4  UNL     1      21.767   4.092  49.755  1.00  0.00     0.169 HD
BRANCH  17  20
HETATM   20  C2  UNL     1      22.212   6.548  50.918  1.00  0.00     0.064 C 
HETATM   21  C1  UNL     1      23.280   7.205  50.486  1.00  0.00     0.017 C 
ENDBRANCH  17  20
ENDBRANCH   1  16
BRANCH   7  22
HETATM   22  C10 UNL     1      28.488  -0.719  53.453  1.00  0.00     0.073 C 
HETATM   23 CL1  UNL     1      29.028  -2.338  53.083  1.00  0.00    -0.081 Cl
HETATM   24  C11 UNL     1      29.422   0.122  53.863  1.00  0.00     0.213 C 
HETATM   25  F1  UNL     1      29.630   1.394  54.268  1.00  0.00    -0.218 F 
ENDBRANCH   7  22
TORSDOF 3
ENDMDL
