MODEL 1
REMARK VINA RESULT:      -8.6      0.000      0.000
REMARK  5 active torsions:
REMARK  status: ('A' for Active; 'I' for Inactive)
REMARK    1  A    between atoms: C3_5  and  C4_6 
REMARK    2  A    between atoms: C13_18  and  N3_19 
REMARK    3  A    between atoms: N3_19  and  C14_20 
REMARK    4  A    between atoms: C15_21  and  C16_22 
REMARK    5  A    between atoms: C16_22  and  C17_23 
ROOT
HETATM    1  C1  UNL     1      22.773  -1.193  55.026  1.00  0.00     0.161 C 
HETATM    2  N1  UNL     1      23.586  -0.540  54.021  1.00  0.00    -0.301 N 
HETATM    3  C2  UNL     1      24.950  -0.560  53.998  1.00  0.00     0.260 A 
HETATM    4  O1  UNL     1      25.410  -1.228  54.981  1.00  0.00    -0.267 OA
HETATM    5  C3  UNL     1      25.673   0.090  52.997  1.00  0.00     0.047 A 
HETATM    6  C10 UNL     1      24.991   0.766  52.013  1.00  0.00     0.034 A 
HETATM    7  C11 UNL     1      23.615   0.769  52.062  1.00  0.00     0.030 A 
HETATM    8  C12 UNL     1      22.956   1.459  51.076  1.00  0.00     0.151 A 
HETATM    9  N2  UNL     1      21.608   1.523  51.057  1.00  0.00    -0.074 NA
HETATM   10  C13 UNL     1      20.893   0.896  52.023  1.00  0.00     0.728 A 
HETATM   11  N4  UNL     1      21.556   0.230  52.971  1.00  0.00    -0.044 NA
HETATM   12  C18 UNL     1      22.904   0.126  53.052  1.00  0.00     0.163 A 
ENDROOT
BRANCH   5  13
HETATM   13  C4  UNL     1      27.099  -0.092  53.233  1.00  0.00     0.023 A 
HETATM   14  C5  UNL     1      27.665   1.056  53.786  1.00  0.00     0.046 A 
HETATM   15 CL1  UNL     1      26.809   2.543  54.135  1.00  0.00    -0.083 Cl
HETATM   16  C6  UNL     1      29.011   1.107  54.106  1.00  0.00     0.025 A 
HETATM   17  C7  UNL     1      29.798  -0.015  53.865  1.00  0.00     0.003 A 
HETATM   18  C8  UNL     1      29.238  -1.153  53.317  1.00  0.00     0.025 A 
HETATM   19  C9  UNL     1      27.896  -1.195  53.001  1.00  0.00     0.046 A 
HETATM   20 CL2  UNL     1      27.053  -2.553  52.304  1.00  0.00    -0.083 Cl
ENDBRANCH   5  13
BRANCH  10  21
HETATM   21  N3  UNL     1      19.518   0.757  52.344  1.00  0.00    -0.198 N 
HETATM   22  H9  UNL     1      19.630   0.560  53.366  1.00  0.00     0.183 HD
BRANCH  21  23
HETATM   23  C14 UNL     1      18.286   0.827  51.666  1.00  0.00     0.102 C 
HETATM   24  C15 UNL     1      17.341  -0.093  51.827  1.00  0.00    -0.001 C 
BRANCH  24  25
HETATM   25  C16 UNL     1      18.071  -0.919  52.773  1.00  0.00     0.123 C 
BRANCH  25  26
HETATM   26  C17 UNL     1      17.782  -1.982  53.500  1.00  0.00     0.155 C 
HETATM   27  F1  UNL     1      19.046  -2.347  53.907  1.00  0.00    -0.254 F 
ENDBRANCH  25  26
ENDBRANCH  24  25
ENDBRANCH  21  23
ENDBRANCH  10  21
TORSDOF 5
ENDMDL
MODEL 2
REMARK VINA RESULT:      -8.5      1.269      2.139
REMARK  5 active torsions:
REMARK  status: ('A' for Active; 'I' for Inactive)
REMARK    1  A    between atoms: C3_5  and  C4_6 
REMARK    2  A    between atoms: C13_18  and  N3_19 
REMARK    3  A    between atoms: N3_19  and  C14_20 
REMARK    4  A    between atoms: C15_21  and  C16_22 
REMARK    5  A    between atoms: C16_22  and  C17_23 
ROOT
HETATM    1  C1  UNL     1      23.431   1.450  51.168  1.00  0.00     0.161 C 
HETATM    2  N1  UNL     1      24.003   0.684  52.255  1.00  0.00    -0.301 N 
HETATM    3  C2  UNL     1      25.341   0.519  52.464  1.00  0.00     0.260 A 
HETATM    4  O1  UNL     1      26.017   1.129  51.572  1.00  0.00    -0.267 OA
HETATM    5  C3  UNL     1      25.827  -0.231  53.535  1.00  0.00     0.047 A 
HETATM    6  C10 UNL     1      24.931  -0.819  54.398  1.00  0.00     0.034 A 
HETATM    7  C11 UNL     1      23.587  -0.636  54.161  1.00  0.00     0.030 A 
HETATM    8  C12 UNL     1      22.712  -1.241  55.029  1.00  0.00     0.151 A 
HETATM    9  N2  UNL     1      21.379  -1.123  54.862  1.00  0.00    -0.074 NA
HETATM   10  C13 UNL     1      20.893  -0.397  53.826  1.00  0.00     0.728 A 
HETATM   11  N4  UNL     1      21.763   0.184  52.997  1.00  0.00    -0.044 NA
HETATM   12  C18 UNL     1      23.112   0.106  53.103  1.00  0.00     0.163 A 
ENDROOT
BRANCH   5  13
HETATM   13  C4  UNL     1      27.283  -0.241  53.501  1.00  0.00     0.023 A 
HETATM   14  C5  UNL     1      27.801   0.974  53.950  1.00  0.00     0.046 A 
HETATM   15 CL1  UNL     1      26.855   2.353  54.465  1.00  0.00    -0.083 Cl
HETATM   16  C6  UNL     1      29.167   1.187  54.016  1.00  0.00     0.025 A 
HETATM   17  C7  UNL     1      30.023   0.163  53.623  1.00  0.00     0.003 A 
HETATM   18  C8  UNL     1      29.511  -1.040  53.178  1.00  0.00     0.025 A 
HETATM   19  C9  UNL     1      28.148  -1.245  53.116  1.00  0.00     0.046 A 
HETATM   20 CL2  UNL     1      27.358  -2.701  52.574  1.00  0.00    -0.083 Cl
ENDBRANCH   5  13
BRANCH  10  21
HETATM   21  N3  UNL     1      19.607  -0.071  53.324  1.00  0.00    -0.198 N 
HETATM   22  H9  UNL     1      19.113   0.018  54.243  1.00  0.00     0.183 HD
BRANCH  21  23
HETATM   23  C14 UNL     1      19.007   0.119  52.064  1.00  0.00     0.102 C 
HETATM   24  C15 UNL     1      17.888  -0.507  51.717  1.00  0.00    -0.001 C 
BRANCH  24  25
HETATM   25  C16 UNL     1      17.714  -1.241  52.958  1.00  0.00     0.123 C 
BRANCH  25  26
HETATM   26  C17 UNL     1      17.226  -2.424  53.282  1.00  0.00     0.155 C 
HETATM   27  F1  UNL     1      18.162  -2.826  54.209  1.00  0.00    -0.254 F 
ENDBRANCH  25  26
ENDBRANCH  24  25
ENDBRANCH  21  23
ENDBRANCH  10  21
TORSDOF 5
ENDMDL
MODEL 3
REMARK VINA RESULT:      -8.4      1.324      2.823
REMARK  5 active torsions:
REMARK  status: ('A' for Active; 'I' for Inactive)
REMARK    1  A    between atoms: C3_5  and  C4_6 
REMARK    2  A    between atoms: C13_18  and  N3_19 
REMARK    3  A    between atoms: N3_19  and  C14_20 
REMARK    4  A    between atoms: C15_21  and  C16_22 
REMARK    5  A    between atoms: C16_22  and  C17_23 
ROOT
HETATM    1  C1  UNL     1      23.488   1.447  51.267  1.00  0.00     0.161 C 
HETATM    2  N1  UNL     1      24.110   0.714  52.350  1.00  0.00    -0.301 N 
HETATM    3  C2  UNL     1      25.457   0.624  52.549  1.00  0.00     0.260 A 
HETATM    4  O1  UNL     1      26.091   1.271  51.651  1.00  0.00    -0.267 OA
HETATM    5  C3  UNL     1      25.992  -0.097  53.616  1.00  0.00     0.047 A 
HETATM    6  C10 UNL     1      25.137  -0.733  54.486  1.00  0.00     0.034 A 
HETATM    7  C11 UNL     1      23.783  -0.626  54.259  1.00  0.00     0.030 A 
HETATM    8  C12 UNL     1      22.950  -1.277  55.134  1.00  0.00     0.151 A 
HETATM    9  N2  UNL     1      21.611  -1.234  54.977  1.00  0.00    -0.074 NA
HETATM   10  C13 UNL     1      21.078  -0.537  53.945  1.00  0.00     0.728 A 
HETATM   11  N4  UNL     1      21.907   0.091  53.109  1.00  0.00    -0.044 NA
HETATM   12  C18 UNL     1      23.259   0.088  53.204  1.00  0.00     0.163 A 
ENDROOT
BRANCH   5  13
HETATM   13  C4  UNL     1      27.446  -0.026  53.571  1.00  0.00     0.023 A 
HETATM   14  C5  UNL     1      27.993  -1.232  53.134  1.00  0.00     0.046 A 
HETATM   15 CL1  UNL     1      27.082  -2.667  52.716  1.00  0.00    -0.083 Cl
HETATM   16  C6  UNL     1      29.362  -1.390  53.001  1.00  0.00     0.025 A 
HETATM   17  C7  UNL     1      30.191  -0.317  53.314  1.00  0.00     0.003 A 
HETATM   18  C8  UNL     1      29.651   0.878  53.746  1.00  0.00     0.025 A 
HETATM   19  C9  UNL     1      28.286   1.027  53.876  1.00  0.00     0.046 A 
HETATM   20 CL2  UNL     1      27.462   2.467  54.412  1.00  0.00    -0.083 Cl
ENDBRANCH   5  13
BRANCH  10  21
HETATM   21  N3  UNL     1      19.772  -0.283  53.453  1.00  0.00    -0.198 N 
HETATM   22  H9  UNL     1      19.249  -0.439  54.346  1.00  0.00     0.183 HD
BRANCH  21  23
HETATM   23  C14 UNL     1      19.181   0.074  52.225  1.00  0.00     0.102 C 
HETATM   24  C15 UNL     1      18.029  -0.450  51.820  1.00  0.00    -0.001 C 
BRANCH  24  25
HETATM   25  C16 UNL     1      17.818  -1.304  52.975  1.00  0.00     0.123 C 
BRANCH  25  26
HETATM   26  C17 UNL     1      17.217  -2.461  53.184  1.00  0.00     0.155 C 
HETATM   27  F1  UNL     1      17.941  -2.918  54.263  1.00  0.00    -0.254 F 
ENDBRANCH  25  26
ENDBRANCH  24  25
ENDBRANCH  21  23
ENDBRANCH  10  21
TORSDOF 5
ENDMDL
MODEL 4
REMARK VINA RESULT:      -7.9      4.108      7.911
REMARK  5 active torsions:
REMARK  status: ('A' for Active; 'I' for Inactive)
REMARK    1  A    between atoms: C3_5  and  C4_6 
REMARK    2  A    between atoms: C13_18  and  N3_19 
REMARK    3  A    between atoms: N3_19  and  C14_20 
REMARK    4  A    between atoms: C15_21  and  C16_22 
REMARK    5  A    between atoms: C16_22  and  C17_23 
ROOT
HETATM    1  C1  UNL     1      26.467   2.575  50.821  1.00  0.00     0.161 C 
HETATM    2  N1  UNL     1      25.139   2.151  51.211  1.00  0.00    -0.301 N 
HETATM    3  C2  UNL     1      23.983   2.641  50.675  1.00  0.00     0.260 A 
HETATM    4  O1  UNL     1      24.233   3.522  49.788  1.00  0.00    -0.267 OA
HETATM    5  C3  UNL     1      22.733   2.187  51.096  1.00  0.00     0.047 A 
HETATM    6  C10 UNL     1      22.668   1.223  52.074  1.00  0.00     0.034 A 
HETATM    7  C11 UNL     1      23.851   0.748  52.596  1.00  0.00     0.030 A 
HETATM    8  C12 UNL     1      23.761  -0.206  53.579  1.00  0.00     0.151 A 
HETATM    9  N2  UNL     1      24.871  -0.716  54.153  1.00  0.00    -0.074 NA
HETATM   10  C13 UNL     1      26.092  -0.284  53.754  1.00  0.00     0.728 A 
HETATM   11  N4  UNL     1      26.154   0.643  52.796  1.00  0.00    -0.044 NA
HETATM   12  C18 UNL     1      25.083   1.199  52.178  1.00  0.00     0.163 A 
ENDROOT
BRANCH   5  13
HETATM   13  C4  UNL     1      21.689   2.889  50.362  1.00  0.00     0.023 A 
HETATM   14  C5  UNL     1      21.358   4.090  50.990  1.00  0.00     0.046 A 
HETATM   15 CL1  UNL     1      22.063   4.686  52.477  1.00  0.00    -0.083 Cl
HETATM   16  C6  UNL     1      20.395   4.932  50.460  1.00  0.00     0.025 A 
HETATM   17  C7  UNL     1      19.757   4.558  49.282  1.00  0.00     0.003 A 
HETATM   18  C8  UNL     1      20.084   3.370  48.659  1.00  0.00     0.025 A 
HETATM   19  C9  UNL     1      21.045   2.537  49.193  1.00  0.00     0.046 A 
HETATM   20 CL2  UNL     1      21.559   1.011  48.525  1.00  0.00    -0.083 Cl
ENDBRANCH   5  13
BRANCH  10  21
HETATM   21  N3  UNL     1      27.437  -0.551  54.118  1.00  0.00    -0.198 N 
HETATM   22  H9  UNL     1      27.358  -0.322  55.136  1.00  0.00     0.183 HD
BRANCH  21  23
HETATM   23  C14 UNL     1      28.613  -0.986  53.478  1.00  0.00     0.102 C 
HETATM   24  C15 UNL     1      29.743  -0.290  53.534  1.00  0.00    -0.001 C 
BRANCH  24  25
HETATM   25  C16 UNL     1      29.230   0.797  54.349  1.00  0.00     0.123 C 
BRANCH  25  26
HETATM   26  C17 UNL     1      29.531   2.073  54.499  1.00  0.00     0.155 C 
HETATM   27  F1  UNL     1      28.507   2.650  53.781  1.00  0.00    -0.254 F 
ENDBRANCH  25  26
ENDBRANCH  24  25
ENDBRANCH  21  23
ENDBRANCH  10  21
TORSDOF 5
ENDMDL
MODEL 5
REMARK VINA RESULT:      -7.6      7.262      9.851
REMARK  5 active torsions:
REMARK  status: ('A' for Active; 'I' for Inactive)
REMARK    1  A    between atoms: C3_5  and  C4_6 
REMARK    2  A    between atoms: C13_18  and  N3_19 
REMARK    3  A    between atoms: N3_19  and  C14_20 
REMARK    4  A    between atoms: C15_21  and  C16_22 
REMARK    5  A    between atoms: C16_22  and  C17_23 
ROOT
HETATM    1  C1  UNL     1      24.162   7.356  50.818  1.00  0.00     0.161 C 
HETATM    2  N1  UNL     1      24.656   6.038  50.479  1.00  0.00    -0.301 N 
HETATM    3  C2  UNL     1      24.050   4.870  50.838  1.00  0.00     0.260 A 
HETATM    4  O1  UNL     1      22.993   5.097  51.514  1.00  0.00    -0.267 OA
HETATM    5  C3  UNL     1      24.579   3.631  50.476  1.00  0.00     0.047 A 
HETATM    6  C10 UNL     1      25.740   3.591  49.739  1.00  0.00     0.034 A 
HETATM    7  C11 UNL     1      26.329   4.786  49.392  1.00  0.00     0.030 A 
HETATM    8  C12 UNL     1      27.492   4.721  48.667  1.00  0.00     0.151 A 
HETATM    9  N2  UNL     1      28.141   5.844  48.296  1.00  0.00    -0.074 NA
HETATM   10  C13 UNL     1      27.638   7.055  48.641  1.00  0.00     0.728 A 
HETATM   11  N4  UNL     1      26.505   7.093  49.345  1.00  0.00    -0.044 NA
HETATM   12  C18 UNL     1      25.803   6.007  49.752  1.00  0.00     0.163 A 
ENDROOT
BRANCH   5  13
HETATM   13  C4  UNL     1      23.732   2.569  51.002  1.00  0.00     0.023 A 
HETATM   14  C5  UNL     1      22.824   2.129  50.038  1.00  0.00     0.046 A 
HETATM   15 CL1  UNL     1      22.678   2.767  48.415  1.00  0.00    -0.083 Cl
HETATM   16  C6  UNL     1      21.926   1.112  50.314  1.00  0.00     0.025 A 
HETATM   17  C7  UNL     1      21.942   0.532  51.578  1.00  0.00     0.003 A 
HETATM   18  C8  UNL     1      22.840   0.966  52.533  1.00  0.00     0.025 A 
HETATM   19  C9  UNL     1      23.732   1.979  52.250  1.00  0.00     0.046 A 
HETATM   20 CL2  UNL     1      24.916   2.634  53.350  1.00  0.00    -0.083 Cl
ENDBRANCH   5  13
BRANCH  10  21
HETATM   21  N3  UNL     1      28.026   8.408  48.463  1.00  0.00    -0.198 N 
HETATM   22  H9  UNL     1      28.896   8.236  47.908  1.00  0.00     0.183 HD
BRANCH  21  23
HETATM   23  C14 UNL     1      27.540   9.678  48.827  1.00  0.00     0.102 C 
HETATM   24  C15 UNL     1      28.337  10.738  48.916  1.00  0.00    -0.001 C 
BRANCH  24  25
HETATM   25  C16 UNL     1      29.566  10.054  48.552  1.00  0.00     0.123 C 
BRANCH  25  26
HETATM   26  C17 UNL     1      30.852  10.327  48.660  1.00  0.00     0.155 C 
HETATM   27  F1  UNL     1      30.823  11.217  49.711  1.00  0.00    -0.254 F 
ENDBRANCH  25  26
ENDBRANCH  24  25
ENDBRANCH  21  23
ENDBRANCH  10  21
TORSDOF 5
ENDMDL
MODEL 6
REMARK VINA RESULT:      -7.5      2.304      3.631
REMARK  5 active torsions:
REMARK  status: ('A' for Active; 'I' for Inactive)
REMARK    1  A    between atoms: C3_5  and  C4_6 
REMARK    2  A    between atoms: C13_18  and  N3_19 
REMARK    3  A    between atoms: N3_19  and  C14_20 
REMARK    4  A    between atoms: C15_21  and  C16_22 
REMARK    5  A    between atoms: C16_22  and  C17_23 
ROOT
HETATM    1  C1  UNL     1      24.587   2.629  50.349  1.00  0.00     0.161 C 
HETATM    2  N1  UNL     1      24.766   1.721  51.463  1.00  0.00    -0.301 N 
HETATM    3  C2  UNL     1      25.977   1.283  51.915  1.00  0.00     0.260 A 
HETATM    4  O1  UNL     1      26.925   1.779  51.222  1.00  0.00    -0.267 OA
HETATM    5  C3  UNL     1      26.079   0.408  52.997  1.00  0.00     0.047 A 
HETATM    6  C10 UNL     1      24.930  -0.020  53.620  1.00  0.00     0.034 A 
HETATM    7  C11 UNL     1      23.724   0.439  53.141  1.00  0.00     0.030 A 
HETATM    8  C12 UNL     1      22.590  -0.011  53.771  1.00  0.00     0.151 A 
HETATM    9  N2  UNL     1      21.366   0.380  53.358  1.00  0.00    -0.074 NA
HETATM   10  C13 UNL     1      21.252   1.229  52.308  1.00  0.00     0.728 A 
HETATM   11  N4  UNL     1      22.368   1.654  51.712  1.00  0.00    -0.044 NA
HETATM   12  C18 UNL     1      23.626   1.302  52.072  1.00  0.00     0.163 A 
ENDROOT
BRANCH   5  13
HETATM   13  C4  UNL     1      27.482   0.107  53.247  1.00  0.00     0.023 A 
HETATM   14  C5  UNL     1      27.781  -1.209  52.897  1.00  0.00     0.046 A 
HETATM   15 CL1  UNL     1      26.639  -2.377  52.268  1.00  0.00    -0.083 Cl
HETATM   16  C6  UNL     1      29.063  -1.713  53.038  1.00  0.00     0.025 A 
HETATM   17  C7  UNL     1      30.057  -0.878  53.539  1.00  0.00     0.003 A 
HETATM   18  C8  UNL     1      29.763   0.426  53.885  1.00  0.00     0.025 A 
HETATM   19  C9  UNL     1      28.483   0.920  53.741  1.00  0.00     0.046 A 
HETATM   20 CL2  UNL     1      27.961   2.535  54.138  1.00  0.00    -0.083 Cl
ENDBRANCH   5  13
BRANCH  10  21
HETATM   21  N3  UNL     1      20.183   1.827  51.592  1.00  0.00    -0.198 N 
HETATM   22  H9  UNL     1      20.619   2.766  51.442  1.00  0.00     0.183 HD
BRANCH  21  23
HETATM   23  C14 UNL     1      18.903   1.450  51.140  1.00  0.00     0.102 C 
HETATM   24  C15 UNL     1      18.552   1.545  49.862  1.00  0.00    -0.001 C 
BRANCH  24  25
HETATM   25  C16 UNL     1      19.814   2.080  49.381  1.00  0.00     0.123 C 
BRANCH  25  26
HETATM   26  C17 UNL     1      20.318   2.355  48.193  1.00  0.00     0.155 C 
HETATM   27  F1  UNL     1      21.657   2.145  48.444  1.00  0.00    -0.254 F 
ENDBRANCH  25  26
ENDBRANCH  24  25
ENDBRANCH  21  23
ENDBRANCH  10  21
TORSDOF 5
ENDMDL
MODEL 7
REMARK VINA RESULT:      -7.5      1.793      2.586
REMARK  5 active torsions:
REMARK  status: ('A' for Active; 'I' for Inactive)
REMARK    1  A    between atoms: C3_5  and  C4_6 
REMARK    2  A    between atoms: C13_18  and  N3_19 
REMARK    3  A    between atoms: N3_19  and  C14_20 
REMARK    4  A    between atoms: C15_21  and  C16_22 
REMARK    5  A    between atoms: C16_22  and  C17_23 
ROOT
HETATM    1  C1  UNL     1      24.443   2.589  50.324  1.00  0.00     0.161 C 
HETATM    2  N1  UNL     1      24.573   1.692  51.454  1.00  0.00    -0.301 N 
HETATM    3  C2  UNL     1      25.750   1.143  51.874  1.00  0.00     0.260 A 
HETATM    4  O1  UNL     1      26.716   1.526  51.136  1.00  0.00    -0.267 OA
HETATM    5  C3  UNL     1      25.805   0.287  52.974  1.00  0.00     0.047 A 
HETATM    6  C10 UNL     1      24.643  -0.010  53.648  1.00  0.00     0.034 A 
HETATM    7  C11 UNL     1      23.471   0.558  53.200  1.00  0.00     0.030 A 
HETATM    8  C12 UNL     1      22.323   0.239  53.880  1.00  0.00     0.151 A 
HETATM    9  N2  UNL     1      21.130   0.742  53.501  1.00  0.00    -0.074 NA
HETATM   10  C13 UNL     1      21.061   1.575  52.434  1.00  0.00     0.728 A 
HETATM   11  N4  UNL     1      22.191   1.872  51.789  1.00  0.00    -0.044 NA
HETATM   12  C18 UNL     1      23.421   1.403  52.114  1.00  0.00     0.163 A 
ENDROOT
BRANCH   5  13
HETATM   13  C4  UNL     1      27.179  -0.149  53.182  1.00  0.00     0.023 A 
HETATM   14  C5  UNL     1      27.934   0.853  53.792  1.00  0.00     0.046 A 
HETATM   15 CL1  UNL     1      27.346   2.440  54.235  1.00  0.00    -0.083 Cl
HETATM   16  C6  UNL     1      29.270   0.655  54.098  1.00  0.00     0.025 A 
HETATM   17  C7  UNL     1      29.853  -0.569  53.784  1.00  0.00     0.003 A 
HETATM   18  C8  UNL     1      29.106  -1.561  53.179  1.00  0.00     0.025 A 
HETATM   19  C9  UNL     1      27.776  -1.356  52.878  1.00  0.00     0.046 A 
HETATM   20 CL2  UNL     1      26.712  -2.507  52.115  1.00  0.00    -0.083 Cl
ENDBRANCH   5  13
BRANCH  10  21
HETATM   21  N3  UNL     1      20.031   2.262  51.742  1.00  0.00    -0.198 N 
HETATM   22  H9  UNL     1      19.491   2.588  52.577  1.00  0.00     0.183 HD
BRANCH  21  23
HETATM   23  C14 UNL     1      19.686   2.528  50.403  1.00  0.00     0.102 C 
HETATM   24  C15 UNL     1      18.702   1.880  49.788  1.00  0.00    -0.001 C 
BRANCH  24  25
HETATM   25  C16 UNL     1      18.330   1.036  50.910  1.00  0.00     0.123 C 
BRANCH  25  26
HETATM   26  C17 UNL     1      17.932  -0.215  51.045  1.00  0.00     0.155 C 
HETATM   27  F1  UNL     1      17.285  -0.394  49.842  1.00  0.00    -0.254 F 
ENDBRANCH  25  26
ENDBRANCH  24  25
ENDBRANCH  21  23
ENDBRANCH  10  21
TORSDOF 5
ENDMDL
MODEL 8
REMARK VINA RESULT:      -7.3      4.028      8.089
REMARK  5 active torsions:
REMARK  status: ('A' for Active; 'I' for Inactive)
REMARK    1  A    between atoms: C3_5  and  C4_6 
REMARK    2  A    between atoms: C13_18  and  N3_19 
REMARK    3  A    between atoms: N3_19  and  C14_20 
REMARK    4  A    between atoms: C15_21  and  C16_22 
REMARK    5  A    between atoms: C16_22  and  C17_23 
ROOT
HETATM    1  C1  UNL     1      26.289   3.161  50.607  1.00  0.00     0.161 C 
HETATM    2  N1  UNL     1      24.970   2.677  50.957  1.00  0.00    -0.301 N 
HETATM    3  C2  UNL     1      23.812   3.099  50.372  1.00  0.00     0.260 A 
HETATM    4  O1  UNL     1      24.049   3.978  49.480  1.00  0.00    -0.267 OA
HETATM    5  C3  UNL     1      22.571   2.589  50.756  1.00  0.00     0.047 A 
HETATM    6  C10 UNL     1      22.519   1.638  51.749  1.00  0.00     0.034 A 
HETATM    7  C11 UNL     1      23.704   1.232  52.321  1.00  0.00     0.030 A 
HETATM    8  C12 UNL     1      23.627   0.291  53.316  1.00  0.00     0.151 A 
HETATM    9  N2  UNL     1      24.739  -0.153  53.938  1.00  0.00    -0.074 NA
HETATM   10  C13 UNL     1      25.951   0.334  53.575  1.00  0.00     0.728 A 
HETATM   11  N4  UNL     1      26.001   1.247  52.603  1.00  0.00    -0.044 NA
HETATM   12  C18 UNL     1      24.927   1.738  51.939  1.00  0.00     0.163 A 
ENDROOT
BRANCH   5  13
HETATM   13  C4  UNL     1      21.521   3.226  49.974  1.00  0.00     0.023 A 
HETATM   14  C5  UNL     1      21.081   2.387  48.950  1.00  0.00     0.046 A 
HETATM   15 CL1  UNL     1      21.708   0.789  48.607  1.00  0.00    -0.083 Cl
HETATM   16  C6  UNL     1      20.075   2.782  48.085  1.00  0.00     0.025 A 
HETATM   17  C7  UNL     1      19.504   4.040  48.254  1.00  0.00     0.003 A 
HETATM   18  C8  UNL     1      19.938   4.871  49.268  1.00  0.00     0.025 A 
HETATM   19  C9  UNL     1      20.941   4.470  50.125  1.00  0.00     0.046 A 
HETATM   20 CL2  UNL     1      21.595   5.407  51.443  1.00  0.00    -0.083 Cl
ENDBRANCH   5  13
BRANCH  10  21
HETATM   21  N3  UNL     1      27.293   0.140  53.991  1.00  0.00    -0.198 N 
HETATM   22  H9  UNL     1      27.119  -0.620  54.688  1.00  0.00     0.183 HD
BRANCH  21  23
HETATM   23  C14 UNL     1      28.558   0.680  53.685  1.00  0.00     0.102 C 
HETATM   24  C15 UNL     1      29.606  -0.091  53.419  1.00  0.00    -0.001 C 
BRANCH  24  25
HETATM   25  C16 UNL     1      28.924  -1.363  53.576  1.00  0.00     0.123 C 
BRANCH  25  26
HETATM   26  C17 UNL     1      29.114  -2.587  53.120  1.00  0.00     0.155 C 
HETATM   27  F1  UNL     1      27.855  -2.863  52.635  1.00  0.00    -0.254 F 
ENDBRANCH  25  26
ENDBRANCH  24  25
ENDBRANCH  21  23
ENDBRANCH  10  21
TORSDOF 5
ENDMDL
MODEL 9
REMARK VINA RESULT:      -7.1      4.988      7.158
REMARK  5 active torsions:
REMARK  status: ('A' for Active; 'I' for Inactive)
REMARK    1  A    between atoms: C3_5  and  C4_6 
REMARK    2  A    between atoms: C13_18  and  N3_19 
REMARK    3  A    between atoms: N3_19  and  C14_20 
REMARK    4  A    between atoms: C15_21  and  C16_22 
REMARK    5  A    between atoms: C16_22  and  C17_23 
ROOT
HETATM    1  C1  UNL     1      23.792   5.229  51.530  1.00  0.00     0.161 C 
HETATM    2  N1  UNL     1      23.356   3.889  51.198  1.00  0.00    -0.301 N 
HETATM    3  C2  UNL     1      23.351   2.839  52.069  1.00  0.00     0.260 A 
HETATM    4  O1  UNL     1      23.785   3.198  53.213  1.00  0.00    -0.267 OA
HETATM    5  C3  UNL     1      22.914   1.571  51.684  1.00  0.00     0.047 A 
HETATM    6  C10 UNL     1      22.480   1.379  50.393  1.00  0.00     0.034 A 
HETATM    7  C11 UNL     1      22.497   2.457  49.536  1.00  0.00     0.030 A 
HETATM    8  C12 UNL     1      22.069   2.239  48.250  1.00  0.00     0.151 A 
HETATM    9  N2  UNL     1      22.065   3.238  47.343  1.00  0.00    -0.074 NA
HETATM   10  C13 UNL     1      22.486   4.474  47.704  1.00  0.00     0.728 A 
HETATM   11  N4  UNL     1      22.896   4.663  48.960  1.00  0.00    -0.044 NA
HETATM   12  C18 UNL     1      22.929   3.707  49.921  1.00  0.00     0.163 A 
ENDROOT
BRANCH   5  13
HETATM   13  C4  UNL     1      23.030   0.655  52.810  1.00  0.00     0.023 A 
HETATM   14  C5  UNL     1      21.804   0.497  53.455  1.00  0.00     0.046 A 
HETATM   15 CL1  UNL     1      20.314   1.302  53.013  1.00  0.00    -0.083 Cl
HETATM   16  C6  UNL     1      21.674  -0.341  54.549  1.00  0.00     0.025 A 
HETATM   17  C7  UNL     1      22.796  -1.030  55.000  1.00  0.00     0.003 A 
HETATM   18  C8  UNL     1      24.011  -0.875  54.362  1.00  0.00     0.025 A 
HETATM   19  C9  UNL     1      24.132  -0.038  53.272  1.00  0.00     0.046 A 
HETATM   20 CL2  UNL     1      25.594   0.262  52.371  1.00  0.00    -0.083 Cl
ENDBRANCH   5  13
BRANCH  10  21
HETATM   21  N3  UNL     1      22.645   5.726  47.056  1.00  0.00    -0.198 N 
HETATM   22  H9  UNL     1      23.121   6.233  47.838  1.00  0.00     0.183 HD
BRANCH  21  23
HETATM   23  C14 UNL     1      22.339   6.286  45.800  1.00  0.00     0.102 C 
HETATM   24  C15 UNL     1      22.972   7.358  45.335  1.00  0.00    -0.001 C 
BRANCH  24  25
HETATM   25  C16 UNL     1      23.848   7.545  46.478  1.00  0.00     0.123 C 
BRANCH  25  26
HETATM   26  C17 UNL     1      24.982   8.186  46.690  1.00  0.00     0.155 C 
HETATM   27  F1  UNL     1      25.663   7.237  47.421  1.00  0.00    -0.254 F 
ENDBRANCH  25  26
ENDBRANCH  24  25
ENDBRANCH  21  23
ENDBRANCH  10  21
TORSDOF 5
ENDMDL
