MODEL 1
REMARK VINA RESULT:      -7.5      0.000      0.000
REMARK  4 active torsions:
REMARK  status: ('A' for Active; 'I' for Inactive)
REMARK    1  A    between atoms: C6_7  and  N2_8 
REMARK    2  A    between atoms: N2_8  and  C7_9 
REMARK    3  A    between atoms: C8_10  and  C9_11 
REMARK    4  A    between atoms: C10_12  and  C11_13 
ROOT
HETATM    1  C11 UNL     1      25.098   4.139  49.317  1.00  0.00     0.021 C 
HETATM    2 BR1  UNL     1      24.884   5.984  48.806  1.00  0.00    -0.050 Br
HETATM    3  C12 UNL     1      26.350   3.653  49.284  1.00  0.00     0.112 C 
HETATM    4  C13 UNL     1      27.488   4.455  48.891  1.00  0.00     0.089 C 
HETATM    5  N3  UNL     1      28.397   5.077  48.568  1.00  0.00    -0.192 NA
ENDROOT
BRANCH   1   6
HETATM    6  C10 UNL     1      23.951   3.354  49.706  1.00  0.00     0.020 C 
HETATM    7  C9  UNL     1      23.898   2.644  50.799  1.00  0.00     0.003 C 
BRANCH   7   8
HETATM    8  C8  UNL     1      22.702   1.879  51.117  1.00  0.00     0.017 C 
HETATM    9  C7  UNL     1      22.723   1.033  52.129  1.00  0.00     0.084 C 
BRANCH   9  10
HETATM   10  N2  UNL     1      23.801   0.743  53.001  1.00  0.00    -0.387 N 
HETATM   11  H9  UNL     1      23.842   1.557  53.683  1.00  0.00     0.159 HD
BRANCH  10  12
HETATM   12  C6  UNL     1      24.733  -0.330  53.105  1.00  0.00     0.136 C 
HETATM   13  C4  UNL     1      26.125   0.044  52.651  1.00  0.00    -0.035 C 
HETATM   14  C3  UNL     1      27.217  -1.013  52.696  1.00  0.00     0.091 C 
HETATM   15  C5  UNL     1      26.764   1.143  52.216  1.00  0.00     0.090 C 
HETATM   16  C2  UNL     1      28.087  -0.191  53.685  1.00  0.00     0.102 C 
HETATM   17  C1  UNL     1      29.421  -0.799  53.798  1.00  0.00     0.063 C 
HETATM   18  N1  UNL     1      28.043   1.058  52.906  1.00  0.00    -0.373 N 
HETATM   19  N4  UNL     1      27.343  -0.077  54.921  1.00  0.00    -0.373 N 
HETATM   20  H7  UNL     1      28.624   1.923  52.672  1.00  0.00     0.161 HD
HETATM   21  C15 UNL     1      26.050  -0.526  55.336  1.00  0.00     0.083 C 
HETATM   22  H17 UNL     1      27.866   0.445  55.664  1.00  0.00     0.161 HD
HETATM   23  C14 UNL     1      24.969  -0.650  54.569  1.00  0.00     0.019 C 
ENDBRANCH  10  12
ENDBRANCH   9  10
ENDBRANCH   7   8
ENDBRANCH   1   6
TORSDOF 4
ENDMDL
MODEL 2
REMARK VINA RESULT:      -7.3      2.773      6.970
REMARK  4 active torsions:
REMARK  status: ('A' for Active; 'I' for Inactive)
REMARK    1  A    between atoms: C6_7  and  N2_8 
REMARK    2  A    between atoms: N2_8  and  C7_9 
REMARK    3  A    between atoms: C8_10  and  C9_11 
REMARK    4  A    between atoms: C10_12  and  C11_13 
ROOT
HETATM    1  C11 UNL     1      24.890   1.574  52.527  1.00  0.00     0.021 C 
HETATM    2 BR1  UNL     1      26.665   1.620  51.779  1.00  0.00    -0.050 Br
HETATM    3  C12 UNL     1      24.611   0.537  53.333  1.00  0.00     0.112 C 
HETATM    4  C13 UNL     1      25.576  -0.498  53.637  1.00  0.00     0.089 C 
HETATM    5  N3  UNL     1      26.328  -1.332  53.875  1.00  0.00    -0.192 NA
ENDROOT
BRANCH   1   6
HETATM    6  C10 UNL     1      23.940   2.615  52.212  1.00  0.00     0.020 C 
HETATM    7  C9  UNL     1      23.919   3.777  52.804  1.00  0.00     0.003 C 
BRANCH   7   8
HETATM    8  C8  UNL     1      22.926   4.770  52.428  1.00  0.00     0.017 C 
HETATM    9  C7  UNL     1      23.256   5.732  51.587  1.00  0.00     0.084 C 
BRANCH   9  10
HETATM   10  N2  UNL     1      24.509   5.952  50.962  1.00  0.00    -0.387 N 
HETATM   11  H9  UNL     1      25.190   6.148  51.753  1.00  0.00     0.159 HD
BRANCH  10  12
HETATM   12  C6  UNL     1      24.957   5.956  49.609  1.00  0.00     0.136 C 
HETATM   13  C4  UNL     1      25.953   7.053  49.314  1.00  0.00    -0.035 C 
HETATM   14  C3  UNL     1      26.504   7.181  47.903  1.00  0.00     0.091 C 
HETATM   15  C5  UNL     1      26.595   8.018  49.995  1.00  0.00     0.090 C 
HETATM   16  C2  UNL     1      27.968   6.949  48.364  1.00  0.00     0.102 C 
HETATM   17  C1  UNL     1      28.891   7.253  47.260  1.00  0.00     0.063 C 
HETATM   18  N1  UNL     1      27.939   7.956  49.439  1.00  0.00    -0.373 N 
HETATM   19  N4  UNL     1      28.045   5.604  48.894  1.00  0.00    -0.373 N 
HETATM   20  H7  UNL     1      28.561   8.656  49.951  1.00  0.00     0.161 HD
HETATM   21  C15 UNL     1      27.083   4.562  49.074  1.00  0.00     0.083 C 
HETATM   22  H17 UNL     1      29.009   5.345  49.209  1.00  0.00     0.161 HD
HETATM   23  C14 UNL     1      25.790   4.715  49.352  1.00  0.00     0.019 C 
ENDBRANCH  10  12
ENDBRANCH   9  10
ENDBRANCH   7   8
ENDBRANCH   1   6
TORSDOF 4
ENDMDL
MODEL 3
REMARK VINA RESULT:      -7.3      2.532      6.490
REMARK  4 active torsions:
REMARK  status: ('A' for Active; 'I' for Inactive)
REMARK    1  A    between atoms: C6_7  and  N2_8 
REMARK    2  A    between atoms: N2_8  and  C7_9 
REMARK    3  A    between atoms: C8_10  and  C9_11 
REMARK    4  A    between atoms: C10_12  and  C11_13 
ROOT
HETATM    1  C11 UNL     1      26.645   0.441  52.833  1.00  0.00     0.021 C 
HETATM    2 BR1  UNL     1      28.001   1.772  53.148  1.00  0.00    -0.050 Br
HETATM    3  C12 UNL     1      27.046  -0.840  52.882  1.00  0.00     0.112 C 
HETATM    4  C13 UNL     1      28.415  -1.220  53.155  1.00  0.00     0.089 C 
HETATM    5  N3  UNL     1      29.500  -1.534  53.356  1.00  0.00    -0.192 NA
ENDROOT
BRANCH   1   6
HETATM    6  C10 UNL     1      25.283   0.838  52.563  1.00  0.00     0.020 C 
HETATM    7  C9  UNL     1      24.752   1.945  53.002  1.00  0.00     0.003 C 
BRANCH   7   8
HETATM    8  C8  UNL     1      23.371   2.270  52.684  1.00  0.00     0.017 C 
HETATM    9  C7  UNL     1      23.109   3.306  51.912  1.00  0.00     0.084 C 
BRANCH   9  10
HETATM   10  N2  UNL     1      24.029   4.203  51.313  1.00  0.00    -0.387 N 
HETATM   11  H9  UNL     1      24.448   4.758  52.116  1.00  0.00     0.159 HD
BRANCH  10  12
HETATM   12  C6  UNL     1      24.440   4.457  49.972  1.00  0.00     0.136 C 
HETATM   13  C4  UNL     1      25.005   5.844  49.774  1.00  0.00    -0.035 C 
HETATM   14  C3  UNL     1      25.469   6.253  48.386  1.00  0.00     0.091 C 
HETATM   15  C5  UNL     1      25.288   6.916  50.534  1.00  0.00     0.090 C 
HETATM   16  C2  UNL     1      26.929   6.496  48.855  1.00  0.00     0.102 C 
HETATM   17  C1  UNL     1      27.687   7.173  47.793  1.00  0.00     0.063 C 
HETATM   18  N1  UNL     1      26.569   7.352  49.998  1.00  0.00    -0.373 N 
HETATM   19  N4  UNL     1      27.459   5.221  49.289  1.00  0.00    -0.373 N 
HETATM   20  H7  UNL     1      26.922   8.182  50.570  1.00  0.00     0.161 HD
HETATM   21  C15 UNL     1      26.908   3.905  49.378  1.00  0.00     0.083 C 
HETATM   22  H17 UNL     1      28.457   5.281  49.602  1.00  0.00     0.161 HD
HETATM   23  C14 UNL     1      25.641   3.592  49.643  1.00  0.00     0.019 C 
ENDBRANCH  10  12
ENDBRANCH   9  10
ENDBRANCH   7   8
ENDBRANCH   1   6
TORSDOF 4
ENDMDL
MODEL 4
REMARK VINA RESULT:      -7.0      2.697      3.217
REMARK  4 active torsions:
REMARK  status: ('A' for Active; 'I' for Inactive)
REMARK    1  A    between atoms: C6_7  and  N2_8 
REMARK    2  A    between atoms: N2_8  and  C7_9 
REMARK    3  A    between atoms: C8_10  and  C9_11 
REMARK    4  A    between atoms: C10_12  and  C11_13 
ROOT
HETATM    1  C11 UNL     1      21.951   1.875  50.073  1.00  0.00     0.021 C 
HETATM    2 BR1  UNL     1      21.936   1.702  48.155  1.00  0.00    -0.050 Br
HETATM    3  C12 UNL     1      22.294   3.079  50.560  1.00  0.00     0.112 C 
HETATM    4  C13 UNL     1      22.637   4.196  49.707  1.00  0.00     0.089 C 
HETATM    5  N3  UNL     1      22.924   5.086  49.042  1.00  0.00    -0.192 NA
ENDROOT
BRANCH   1   6
HETATM    6  C10 UNL     1      21.606   0.749  50.908  1.00  0.00     0.020 C 
HETATM    7  C9  UNL     1      21.068   0.864  52.091  1.00  0.00     0.003 C 
BRANCH   7   8
HETATM    8  C8  UNL     1      20.753  -0.324  52.869  1.00  0.00     0.017 C 
HETATM    9  C7  UNL     1      21.624  -0.771  53.753  1.00  0.00     0.084 C 
BRANCH   9  10
HETATM   10  N2  UNL     1      22.896  -0.233  54.073  1.00  0.00    -0.387 N 
HETATM   11  H9  UNL     1      22.734   0.402  54.909  1.00  0.00     0.159 HD
BRANCH  10  12
HETATM   12  C6  UNL     1      24.204  -0.382  53.525  1.00  0.00     0.136 C 
HETATM   13  C4  UNL     1      24.822   0.927  53.094  1.00  0.00    -0.035 C 
HETATM   14  C3  UNL     1      26.212   0.912  52.478  1.00  0.00     0.091 C 
HETATM   15  C5  UNL     1      24.504   2.233  53.129  1.00  0.00     0.090 C 
HETATM   16  C2  UNL     1      26.806   1.815  53.593  1.00  0.00     0.102 C 
HETATM   17  C1  UNL     1      28.155   2.257  53.209  1.00  0.00     0.063 C 
HETATM   18  N1  UNL     1      25.766   2.855  53.500  1.00  0.00    -0.373 N 
HETATM   19  N4  UNL     1      26.717   1.080  54.836  1.00  0.00    -0.373 N 
HETATM   20  H7  UNL     1      25.618   3.906  53.611  1.00  0.00     0.161 HD
HETATM   21  C15 UNL     1      26.196  -0.206  55.183  1.00  0.00     0.083 C 
HETATM   22  H17 UNL     1      27.120   1.603  55.648  1.00  0.00     0.161 HD
HETATM   23  C14 UNL     1      25.159  -0.821  54.619  1.00  0.00     0.019 C 
ENDBRANCH  10  12
ENDBRANCH   9  10
ENDBRANCH   7   8
ENDBRANCH   1   6
TORSDOF 4
ENDMDL
MODEL 5
REMARK VINA RESULT:      -6.9      2.969      5.847
REMARK  4 active torsions:
REMARK  status: ('A' for Active; 'I' for Inactive)
REMARK    1  A    between atoms: C6_7  and  N2_8 
REMARK    2  A    between atoms: N2_8  and  C7_9 
REMARK    3  A    between atoms: C8_10  and  C9_11 
REMARK    4  A    between atoms: C10_12  and  C11_13 
ROOT
HETATM    1  C11 UNL     1      26.588   0.438  53.146  1.00  0.00     0.021 C 
HETATM    2 BR1  UNL     1      28.054  -0.810  53.225  1.00  0.00    -0.050 Br
HETATM    3  C12 UNL     1      26.864   1.703  53.504  1.00  0.00     0.112 C 
HETATM    4  C13 UNL     1      28.182   2.125  53.926  1.00  0.00     0.089 C 
HETATM    5  N3  UNL     1      29.220   2.469  54.276  1.00  0.00    -0.192 NA
ENDROOT
BRANCH   1   6
HETATM    6  C10 UNL     1      25.280  -0.001  52.722  1.00  0.00     0.020 C 
HETATM    7  C9  UNL     1      24.197   0.164  53.431  1.00  0.00     0.003 C 
BRANCH   7   8
HETATM    8  C8  UNL     1      22.917  -0.310  52.930  1.00  0.00     0.017 C 
HETATM    9  C7  UNL     1      22.069   0.551  52.399  1.00  0.00     0.084 C 
BRANCH   9  10
HETATM   10  N2  UNL     1      22.232   1.949  52.238  1.00  0.00    -0.387 N 
HETATM   11  H9  UNL     1      22.120   2.362  53.210  1.00  0.00     0.159 HD
BRANCH  10  12
HETATM   12  C6  UNL     1      22.489   2.797  51.122  1.00  0.00     0.136 C 
HETATM   13  C4  UNL     1      22.711   4.241  51.508  1.00  0.00    -0.035 C 
HETATM   14  C3  UNL     1      22.983   5.258  50.412  1.00  0.00     0.091 C 
HETATM   15  C5  UNL     1      22.790   4.963  52.639  1.00  0.00     0.090 C 
HETATM   16  C2  UNL     1      24.376   5.630  50.987  1.00  0.00     0.102 C 
HETATM   17  C1  UNL     1      24.892   6.827  50.306  1.00  0.00     0.063 C 
HETATM   18  N1  UNL     1      23.903   5.860  52.363  1.00  0.00    -0.373 N 
HETATM   19  N4  UNL     1      25.208   4.450  50.899  1.00  0.00    -0.373 N 
HETATM   20  H7  UNL     1      24.093   6.456  53.228  1.00  0.00     0.161 HD
HETATM   21  C15 UNL     1      24.976   3.115  50.440  1.00  0.00     0.083 C 
HETATM   22  H17 UNL     1      26.183   4.612  51.243  1.00  0.00     0.161 HD
HETATM   23  C14 UNL     1      23.833   2.437  50.517  1.00  0.00     0.019 C 
ENDBRANCH  10  12
ENDBRANCH   9  10
ENDBRANCH   7   8
ENDBRANCH   1   6
TORSDOF 4
ENDMDL
MODEL 6
REMARK VINA RESULT:      -6.9      3.838      5.966
REMARK  4 active torsions:
REMARK  status: ('A' for Active; 'I' for Inactive)
REMARK    1  A    between atoms: C6_7  and  N2_8 
REMARK    2  A    between atoms: N2_8  and  C7_9 
REMARK    3  A    between atoms: C8_10  and  C9_11 
REMARK    4  A    between atoms: C10_12  and  C11_13 
ROOT
HETATM    1  C11 UNL     1      18.548  -0.199  52.057  1.00  0.00     0.021 C 
HETATM    2 BR1  UNL     1      19.271   0.812  50.585  1.00  0.00    -0.050 Br
HETATM    3  C12 UNL     1      17.289  -0.645  51.911  1.00  0.00     0.112 C 
HETATM    4  C13 UNL     1      16.504  -0.392  50.722  1.00  0.00     0.089 C 
HETATM    5  N3  UNL     1      15.866  -0.187  49.791  1.00  0.00    -0.192 NA
ENDROOT
BRANCH   1   6
HETATM    6  C10 UNL     1      19.346  -0.441  53.235  1.00  0.00     0.020 C 
HETATM    7  C9  UNL     1      20.472   0.168  53.484  1.00  0.00     0.003 C 
BRANCH   7   8
HETATM    8  C8  UNL     1      21.215  -0.137  54.696  1.00  0.00     0.017 C 
HETATM    9  C7  UNL     1      22.491  -0.463  54.611  1.00  0.00     0.084 C 
BRANCH   9  10
HETATM   10  N2  UNL     1      23.288  -0.566  53.444  1.00  0.00    -0.387 N 
HETATM   11  H9  UNL     1      22.602  -0.614  52.634  1.00  0.00     0.159 HD
BRANCH  10  12
HETATM   12  C6  UNL     1      24.691  -0.612  53.200  1.00  0.00     0.136 C 
HETATM   13  C4  UNL     1      25.260   0.711  52.740  1.00  0.00    -0.035 C 
HETATM   14  C3  UNL     1      26.746   0.800  52.430  1.00  0.00     0.091 C 
HETATM   15  C5  UNL     1      24.818   1.964  52.541  1.00  0.00     0.090 C 
HETATM   16  C2  UNL     1      26.992   1.881  53.518  1.00  0.00     0.102 C 
HETATM   17  C1  UNL     1      28.344   2.440  53.366  1.00  0.00     0.063 C 
HETATM   18  N1  UNL     1      25.903   2.770  53.081  1.00  0.00    -0.373 N 
HETATM   19  N4  UNL     1      26.705   1.275  54.800  1.00  0.00    -0.373 N 
HETATM   20  H7  UNL     1      25.634   3.802  53.022  1.00  0.00     0.161 HD
HETATM   21  C15 UNL     1      26.247  -0.021  55.195  1.00  0.00     0.083 C 
HETATM   22  H17 UNL     1      26.869   1.926  55.604  1.00  0.00     0.161 HD
HETATM   23  C14 UNL     1      25.422  -0.814  54.513  1.00  0.00     0.019 C 
ENDBRANCH  10  12
ENDBRANCH   9  10
ENDBRANCH   7   8
ENDBRANCH   1   6
TORSDOF 4
ENDMDL
MODEL 7
REMARK VINA RESULT:      -6.8      3.032      6.864
REMARK  4 active torsions:
REMARK  status: ('A' for Active; 'I' for Inactive)
REMARK    1  A    between atoms: C6_7  and  N2_8 
REMARK    2  A    between atoms: N2_8  and  C7_9 
REMARK    3  A    between atoms: C8_10  and  C9_11 
REMARK    4  A    between atoms: C10_12  and  C11_13 
ROOT
HETATM    1  C11 UNL     1      23.104  -0.013  53.111  1.00  0.00     0.021 C 
HETATM    2 BR1  UNL     1      22.180  -0.869  54.569  1.00  0.00    -0.050 Br
HETATM    3  C12 UNL     1      22.334   0.476  52.125  1.00  0.00     0.112 C 
HETATM    4  C13 UNL     1      20.891   0.376  52.138  1.00  0.00     0.089 C 
HETATM    5  N3  UNL     1      19.746   0.291  52.130  1.00  0.00    -0.192 NA
ENDROOT
BRANCH   1   6
HETATM    6  C10 UNL     1      24.544   0.078  53.115  1.00  0.00     0.020 C 
HETATM    7  C9  UNL     1      25.200   1.151  53.461  1.00  0.00     0.003 C 
BRANCH   7   8
HETATM    8  C8  UNL     1      26.654   1.158  53.435  1.00  0.00     0.017 C 
HETATM    9  C7  UNL     1      27.285   2.003  52.641  1.00  0.00     0.084 C 
BRANCH   9  10
HETATM   10  N2  UNL     1      26.720   2.957  51.758  1.00  0.00    -0.387 N 
HETATM   11  H9  UNL     1      26.781   3.887  52.268  1.00  0.00     0.159 HD
BRANCH  10  12
HETATM   12  C6  UNL     1      26.148   2.887  50.454  1.00  0.00     0.136 C 
HETATM   13  C4  UNL     1      24.705   3.332  50.412  1.00  0.00    -0.035 C 
HETATM   14  C3  UNL     1      23.967   3.295  49.083  1.00  0.00     0.091 C 
HETATM   15  C5  UNL     1      23.798   3.839  51.266  1.00  0.00     0.090 C 
HETATM   16  C2  UNL     1      23.697   4.824  49.096  1.00  0.00     0.102 C 
HETATM   17  C1  UNL     1      22.741   5.170  48.033  1.00  0.00     0.063 C 
HETATM   18  N1  UNL     1      23.142   4.858  50.460  1.00  0.00    -0.373 N 
HETATM   19  N4  UNL     1      24.981   5.488  49.025  1.00  0.00    -0.373 N 
HETATM   20  H7  UNL     1      22.425   5.371  51.062  1.00  0.00     0.161 HD
HETATM   21  C15 UNL     1      26.331   5.018  48.980  1.00  0.00     0.083 C 
HETATM   22  H17 UNL     1      24.898   6.532  49.002  1.00  0.00     0.161 HD
HETATM   23  C14 UNL     1      26.808   3.920  49.561  1.00  0.00     0.019 C 
ENDBRANCH  10  12
ENDBRANCH   9  10
ENDBRANCH   7   8
ENDBRANCH   1   6
TORSDOF 4
ENDMDL
MODEL 8
REMARK VINA RESULT:      -6.7      3.288      5.687
REMARK  4 active torsions:
REMARK  status: ('A' for Active; 'I' for Inactive)
REMARK    1  A    between atoms: C6_7  and  N2_8 
REMARK    2  A    between atoms: N2_8  and  C7_9 
REMARK    3  A    between atoms: C8_10  and  C9_11 
REMARK    4  A    between atoms: C10_12  and  C11_13 
ROOT
HETATM    1  C11 UNL     1      20.625  -0.096  53.042  1.00  0.00     0.021 C 
HETATM    2 BR1  UNL     1      21.267  -1.378  54.329  1.00  0.00    -0.050 Br
HETATM    3  C12 UNL     1      19.336  -0.208  52.684  1.00  0.00     0.112 C 
HETATM    4  C13 UNL     1      18.461  -1.226  53.223  1.00  0.00     0.089 C 
HETATM    5  N3  UNL     1      17.760  -2.038  53.633  1.00  0.00    -0.192 NA
ENDROOT
BRANCH   1   6
HETATM    6  C10 UNL     1      21.512   0.913  52.515  1.00  0.00     0.020 C 
HETATM    7  C9  UNL     1      22.577   0.644  51.812  1.00  0.00     0.003 C 
BRANCH   7   8
HETATM    8  C8  UNL     1      23.419   1.722  51.319  1.00  0.00     0.017 C 
HETATM    9  C7  UNL     1      24.337   2.243  52.111  1.00  0.00     0.084 C 
BRANCH   9  10
HETATM   10  N2  UNL     1      24.639   1.886  53.449  1.00  0.00    -0.387 N 
HETATM   11  H9  UNL     1      23.699   1.742  53.923  1.00  0.00     0.159 HD
BRANCH  10  12
HETATM   12  C6  UNL     1      25.849   1.709  54.181  1.00  0.00     0.136 C 
HETATM   13  C4  UNL     1      26.388   0.300  54.108  1.00  0.00    -0.035 C 
HETATM   14  C3  UNL     1      27.669  -0.032  54.857  1.00  0.00     0.091 C 
HETATM   15  C5  UNL     1      26.074  -0.851  53.490  1.00  0.00     0.090 C 
HETATM   16  C2  UNL     1      28.421  -0.436  53.560  1.00  0.00     0.102 C 
HETATM   17  C1  UNL     1      29.695  -1.086  53.905  1.00  0.00     0.063 C 
HETATM   18  N1  UNL     1      27.375  -1.350  53.070  1.00  0.00    -0.373 N 
HETATM   19  N4  UNL     1      28.525   0.749  52.736  1.00  0.00    -0.373 N 
HETATM   20  H7  UNL     1      27.241  -2.251  52.513  1.00  0.00     0.161 HD
HETATM   21  C15 UNL     1      28.068   2.096  52.887  1.00  0.00     0.083 C 
HETATM   22  H17 UNL     1      29.045   0.579  51.843  1.00  0.00     0.161 HD
HETATM   23  C14 UNL     1      26.961   2.493  53.510  1.00  0.00     0.019 C 
ENDBRANCH  10  12
ENDBRANCH   9  10
ENDBRANCH   7   8
ENDBRANCH   1   6
TORSDOF 4
ENDMDL
MODEL 9
REMARK VINA RESULT:      -6.7      3.193      5.980
REMARK  4 active torsions:
REMARK  status: ('A' for Active; 'I' for Inactive)
REMARK    1  A    between atoms: C6_7  and  N2_8 
REMARK    2  A    between atoms: N2_8  and  C7_9 
REMARK    3  A    between atoms: C8_10  and  C9_11 
REMARK    4  A    between atoms: C10_12  and  C11_13 
ROOT
HETATM    1  C11 UNL     1      25.290   0.031  53.294  1.00  0.00     0.021 C 
HETATM    2 BR1  UNL     1      26.812  -0.979  52.680  1.00  0.00    -0.050 Br
HETATM    3  C12 UNL     1      25.542   1.272  53.741  1.00  0.00     0.112 C 
HETATM    4  C13 UNL     1      26.873   1.838  53.768  1.00  0.00     0.089 C 
HETATM    5  N3  UNL     1      27.926   2.293  53.807  1.00  0.00    -0.192 NA
ENDROOT
BRANCH   1   6
HETATM    6  C10 UNL     1      23.969  -0.549  53.260  1.00  0.00     0.020 C 
HETATM    7  C9  UNL     1      23.196  -0.649  54.306  1.00  0.00     0.003 C 
BRANCH   7   8
HETATM    8  C8  UNL     1      21.877  -1.249  54.185  1.00  0.00     0.017 C 
HETATM    9  C7  UNL     1      20.854  -0.500  53.819  1.00  0.00     0.084 C 
BRANCH   9  10
HETATM   10  N2  UNL     1      20.852   0.883  53.511  1.00  0.00    -0.387 N 
HETATM   11  H9  UNL     1      21.168   1.372  54.399  1.00  0.00     0.159 HD
BRANCH  10  12
HETATM   12  C6  UNL     1      20.534   1.640  52.346  1.00  0.00     0.136 C 
HETATM   13  C4  UNL     1      21.603   2.642  51.976  1.00  0.00    -0.035 C 
HETATM   14  C3  UNL     1      21.386   3.528  50.760  1.00  0.00     0.091 C 
HETATM   15  C5  UNL     1      22.825   2.994  52.413  1.00  0.00     0.090 C 
HETATM   16  C2  UNL     1      22.645   2.982  50.034  1.00  0.00     0.102 C 
HETATM   17  C1  UNL     1      22.937   3.811  48.855  1.00  0.00     0.063 C 
HETATM   18  N1  UNL     1      23.560   3.183  51.171  1.00  0.00    -0.373 N 
HETATM   19  N4  UNL     1      22.417   1.578  49.773  1.00  0.00    -0.373 N 
HETATM   20  H7  UNL     1      24.576   3.418  51.399  1.00  0.00     0.161 HD
HETATM   21  C15 UNL     1      21.341   0.684  50.070  1.00  0.00     0.083 C 
HETATM   22  H17 UNL     1      23.209   1.126  49.258  1.00  0.00     0.161 HD
HETATM   23  C14 UNL     1      20.544   0.727  51.135  1.00  0.00     0.019 C 
ENDBRANCH  10  12
ENDBRANCH   9  10
ENDBRANCH   7   8
ENDBRANCH   1   6
TORSDOF 4
ENDMDL
