MODEL 1
REMARK VINA RESULT:      -6.7      0.000      0.000
REMARK  7 active torsions:
REMARK  status: ('A' for Active; 'I' for Inactive)
REMARK    1  A    between atoms: N1_2  and  C2_3 
REMARK    2  A    between atoms: C2_3  and  C3_4 
REMARK    3  A    between atoms: C3_4  and  C5_6 
REMARK    4  A    between atoms: C5_6  and  N2_7 
REMARK    5  A    between atoms: N2_7  and  C6_8 
REMARK    6  A    between atoms: C7_10  and  O1_11 
REMARK    7  A    between atoms: C9_14  and  N5_15 
ROOT
HETATM    1  C6  UNL     1      25.040  -0.195  53.735  1.00  0.00     0.741 A 
HETATM    2  N3  UNL     1      23.785  -0.657  53.863  1.00  0.00    -0.018 NA
HETATM    3  C7  UNL     1      22.834  -0.057  53.122  1.00  0.00     0.302 A 
HETATM    4  N4  UNL     1      23.101   0.974  52.274  1.00  0.00    -0.017 NA
HETATM    5  C9  UNL     1      24.375   1.442  52.147  1.00  0.00     0.744 A 
HETATM    6  N6  UNL     1      25.303   0.824  52.897  1.00  0.00     0.130 NA
ENDROOT
BRANCH   1   7
HETATM    7  N2  UNL     1      26.261  -0.639  54.376  1.00  0.00    -0.221 N 
HETATM    8  H13 UNL     1      26.246  -0.704  55.421  1.00  0.00     0.177 HD
BRANCH   7   9
HETATM    9  C5  UNL     1      27.146  -0.854  53.251  1.00  0.00     0.144 C 
BRANCH   9  10
HETATM   10  C3  UNL     1      28.566  -0.385  53.539  1.00  0.00     0.017 C 
HETATM   11  C4  UNL     1      29.481  -1.554  53.410  1.00  0.00     0.013 C 
BRANCH  10  12
HETATM   12  C2  UNL     1      28.665   0.326  54.842  1.00  0.00     0.119 C 
BRANCH  12  13
HETATM   13  N1  UNL     1      29.135   1.663  54.763  1.00  0.00    -0.425 N 
HETATM   14  C1  UNL     1      28.699   2.466  53.679  1.00  0.00     0.139 C 
HETATM   15  H4  UNL     1      30.138   1.782  54.933  1.00  0.00     0.152 HD
ENDBRANCH  12  13
ENDBRANCH  10  12
ENDBRANCH   9  10
ENDBRANCH   7   9
ENDBRANCH   1   7
BRANCH   3  16
HETATM   16  O1  UNL     1      21.547  -0.556  53.272  1.00  0.00    -0.323 OA
HETATM   17  C8  UNL     1      20.632   0.183  54.047  1.00  0.00     0.213 C 
ENDBRANCH   3  16
BRANCH   5  18
HETATM   18  N5  UNL     1      24.749   2.510  51.285  1.00  0.00    -0.209 N 
HETATM   19  C10 UNL     1      26.167   2.757  51.031  1.00  0.00     0.167 C 
HETATM   20  C11 UNL     1      26.437   3.246  49.643  1.00  0.00     0.188 C 
HETATM   21  O2  UNL     1      25.606   4.322  49.365  1.00  0.00    -0.388 OA
HETATM   22  C12 UNL     1      24.317   3.805  49.250  1.00  0.00     0.188 C 
HETATM   23  C13 UNL     1      23.816   3.390  50.621  1.00  0.00     0.167 C 
ENDBRANCH   5  18
TORSDOF 7
ENDMDL
MODEL 2
REMARK VINA RESULT:      -6.6      2.251      5.802
REMARK  7 active torsions:
REMARK  status: ('A' for Active; 'I' for Inactive)
REMARK    1  A    between atoms: N1_2  and  C2_3 
REMARK    2  A    between atoms: C2_3  and  C3_4 
REMARK    3  A    between atoms: C3_4  and  C5_6 
REMARK    4  A    between atoms: C5_6  and  N2_7 
REMARK    5  A    between atoms: N2_7  and  C6_8 
REMARK    6  A    between atoms: C7_10  and  O1_11 
REMARK    7  A    between atoms: C9_14  and  N5_15 
ROOT
HETATM    1  C6  UNL     1      26.704   1.651  52.414  1.00  0.00     0.741 A 
HETATM    2  N3  UNL     1      27.662   0.779  52.769  1.00  0.00    -0.018 NA
HETATM    3  C7  UNL     1      27.263  -0.356  53.373  1.00  0.00     0.302 A 
HETATM    4  N4  UNL     1      25.955  -0.635  53.629  1.00  0.00    -0.017 NA
HETATM    5  C9  UNL     1      24.985   0.252  53.269  1.00  0.00     0.744 A 
HETATM    6  N6  UNL     1      25.412   1.375  52.668  1.00  0.00     0.130 NA
ENDROOT
BRANCH   1   7
HETATM    7  N2  UNL     1      26.816   2.931  51.744  1.00  0.00    -0.221 N 
HETATM    8  H13 UNL     1      27.074   3.752  52.340  1.00  0.00     0.177 HD
BRANCH   7   9
HETATM    9  C5  UNL     1      26.506   2.594  50.371  1.00  0.00     0.144 C 
BRANCH   9  10
HETATM   10  C3  UNL     1      26.013   3.800  49.581  1.00  0.00     0.017 C 
HETATM   11  C4  UNL     1      27.195   4.489  48.992  1.00  0.00     0.013 C 
BRANCH  10  12
HETATM   12  C2  UNL     1      25.138   4.682  50.399  1.00  0.00     0.119 C 
BRANCH  12  13
HETATM   13  N1  UNL     1      25.548   6.039  50.468  1.00  0.00    -0.425 N 
HETATM   14  C1  UNL     1      24.587   7.014  50.842  1.00  0.00     0.139 C 
HETATM   15  H4  UNL     1      26.117   6.362  49.680  1.00  0.00     0.152 HD
ENDBRANCH  12  13
ENDBRANCH  10  12
ENDBRANCH   9  10
ENDBRANCH   7   9
ENDBRANCH   1   7
BRANCH   3  16
HETATM   16  O1  UNL     1      28.273  -1.240  53.726  1.00  0.00    -0.323 OA
HETATM   17  C8  UNL     1      29.599  -0.765  53.743  1.00  0.00     0.213 C 
ENDBRANCH   3  16
BRANCH   5  18
HETATM   18  N5  UNL     1      23.595   0.046  53.491  1.00  0.00    -0.209 N 
HETATM   19  C10 UNL     1      22.627   0.800  52.697  1.00  0.00     0.167 C 
HETATM   20  C11 UNL     1      21.385   0.023  52.394  1.00  0.00     0.188 C 
HETATM   21  O2  UNL     1      20.876  -0.508  53.572  1.00  0.00    -0.388 OA
HETATM   22  C12 UNL     1      21.761  -1.509  53.968  1.00  0.00     0.188 C 
HETATM   23  C13 UNL     1      23.050  -0.877  54.460  1.00  0.00     0.167 C 
ENDBRANCH   5  18
TORSDOF 7
ENDMDL
MODEL 3
REMARK VINA RESULT:      -6.2      2.162      5.171
REMARK  7 active torsions:
REMARK  status: ('A' for Active; 'I' for Inactive)
REMARK    1  A    between atoms: N1_2  and  C2_3 
REMARK    2  A    between atoms: C2_3  and  C3_4 
REMARK    3  A    between atoms: C3_4  and  C5_6 
REMARK    4  A    between atoms: C5_6  and  N2_7 
REMARK    5  A    between atoms: N2_7  and  C6_8 
REMARK    6  A    between atoms: C7_10  and  O1_11 
REMARK    7  A    between atoms: C9_14  and  N5_15 
ROOT
HETATM    1  C6  UNL     1      23.697   1.800  51.581  1.00  0.00     0.741 A 
HETATM    2  N3  UNL     1      22.792   0.953  52.099  1.00  0.00    -0.018 NA
HETATM    3  C7  UNL     1      23.240   0.049  52.990  1.00  0.00     0.302 A 
HETATM    4  N4  UNL     1      24.545  -0.030  53.370  1.00  0.00    -0.017 NA
HETATM    5  C9  UNL     1      25.462   0.831  52.843  1.00  0.00     0.744 A 
HETATM    6  N6  UNL     1      24.987   1.722  51.956  1.00  0.00     0.130 NA
ENDROOT
BRANCH   1   7
HETATM    7  N2  UNL     1      23.522   2.877  50.628  1.00  0.00    -0.221 N 
HETATM    8  H13 UNL     1      22.789   2.738  49.893  1.00  0.00     0.177 HD
BRANCH   7   9
HETATM    9  C5  UNL     1      24.503   3.846  51.065  1.00  0.00     0.144 C 
BRANCH   9  10
HETATM   10  C3  UNL     1      24.988   4.728  49.920  1.00  0.00     0.017 C 
HETATM   11  C4  UNL     1      23.933   4.752  48.868  1.00  0.00     0.013 C 
BRANCH  10  12
HETATM   12  C2  UNL     1      26.331   4.317  49.429  1.00  0.00     0.119 C 
BRANCH  12  13
HETATM   13  N1  UNL     1      27.297   5.356  49.381  1.00  0.00    -0.425 N 
HETATM   14  C1  UNL     1      28.306   5.289  48.386  1.00  0.00     0.139 C 
HETATM   15  H4  UNL     1      27.685   5.630  50.287  1.00  0.00     0.152 HD
ENDBRANCH  12  13
ENDBRANCH  10  12
ENDBRANCH   9  10
ENDBRANCH   7   9
ENDBRANCH   1   7
BRANCH   3  16
HETATM   16  O1  UNL     1      22.283  -0.812  53.510  1.00  0.00    -0.323 OA
HETATM   17  C8  UNL     1      22.342  -1.125  54.882  1.00  0.00     0.213 C 
ENDBRANCH   3  16
BRANCH   5  18
HETATM   18  N5  UNL     1      26.844   0.827  53.180  1.00  0.00    -0.209 N 
HETATM   19  C10 UNL     1      27.680   1.952  52.771  1.00  0.00     0.167 C 
HETATM   20  C11 UNL     1      28.756   2.274  53.759  1.00  0.00     0.188 C 
HETATM   21  O2  UNL     1      29.458   1.116  54.068  1.00  0.00    -0.388 OA
HETATM   22  C12 UNL     1      28.595   0.321  54.819  1.00  0.00     0.188 C 
HETATM   23  C13 UNL     1      27.502  -0.226  53.919  1.00  0.00     0.167 C 
ENDBRANCH   5  18
TORSDOF 7
ENDMDL
MODEL 4
REMARK VINA RESULT:      -6.2      2.359      5.933
REMARK  7 active torsions:
REMARK  status: ('A' for Active; 'I' for Inactive)
REMARK    1  A    between atoms: N1_2  and  C2_3 
REMARK    2  A    between atoms: C2_3  and  C3_4 
REMARK    3  A    between atoms: C3_4  and  C5_6 
REMARK    4  A    between atoms: C5_6  and  N2_7 
REMARK    5  A    between atoms: N2_7  and  C6_8 
REMARK    6  A    between atoms: C7_10  and  O1_11 
REMARK    7  A    between atoms: C9_14  and  N5_15 
ROOT
HETATM    1  C6  UNL     1      26.364   2.111  51.546  1.00  0.00     0.741 A 
HETATM    2  N3  UNL     1      27.271   2.034  52.534  1.00  0.00    -0.018 NA
HETATM    3  C7  UNL     1      26.898   1.397  53.659  1.00  0.00     0.302 A 
HETATM    4  N4  UNL     1      25.663   0.845  53.820  1.00  0.00    -0.017 NA
HETATM    5  C9  UNL     1      24.744   0.925  52.816  1.00  0.00     0.744 A 
HETATM    6  N6  UNL     1      25.144   1.567  51.706  1.00  0.00     0.130 NA
ENDROOT
BRANCH   1   7
HETATM    7  N2  UNL     1      26.473   2.709  50.231  1.00  0.00    -0.221 N 
HETATM    8  H13 UNL     1      27.019   2.172  49.516  1.00  0.00     0.177 HD
BRANCH   7   9
HETATM    9  C5  UNL     1      25.726   3.939  50.382  1.00  0.00     0.144 C 
BRANCH   9  10
HETATM   10  C3  UNL     1      26.021   4.931  49.263  1.00  0.00     0.017 C 
HETATM   11  C4  UNL     1      27.408   4.688  48.776  1.00  0.00     0.013 C 
BRANCH  10  12
HETATM   12  C2  UNL     1      25.758   6.335  49.678  1.00  0.00     0.119 C 
BRANCH  12  13
HETATM   13  N1  UNL     1      25.062   6.478  50.907  1.00  0.00    -0.425 N 
HETATM   14  C1  UNL     1      23.915   7.312  50.938  1.00  0.00     0.139 C 
HETATM   15  H4  UNL     1      25.655   6.631  51.727  1.00  0.00     0.152 HD
ENDBRANCH  12  13
ENDBRANCH  10  12
ENDBRANCH   9  10
ENDBRANCH   7   9
ENDBRANCH   1   7
BRANCH   3  16
HETATM   16  O1  UNL     1      27.855   1.331  54.662  1.00  0.00    -0.323 OA
HETATM   17  C8  UNL     1      28.846   0.333  54.574  1.00  0.00     0.213 C 
ENDBRANCH   3  16
BRANCH   5  18
HETATM   18  N5  UNL     1      23.434   0.377  52.892  1.00  0.00    -0.209 N 
HETATM   19  C10 UNL     1      23.149  -0.655  53.885  1.00  0.00     0.167 C 
HETATM   20  C11 UNL     1      21.759  -0.576  54.433  1.00  0.00     0.188 C 
HETATM   21  O2  UNL     1      20.853  -0.522  53.382  1.00  0.00    -0.388 OA
HETATM   22  C12 UNL     1      21.010   0.730  52.791  1.00  0.00     0.188 C 
HETATM   23  C13 UNL     1      22.331   0.774  52.046  1.00  0.00     0.167 C 
ENDBRANCH   5  18
TORSDOF 7
ENDMDL
MODEL 5
REMARK VINA RESULT:      -6.2      2.260      6.312
REMARK  7 active torsions:
REMARK  status: ('A' for Active; 'I' for Inactive)
REMARK    1  A    between atoms: N1_2  and  C2_3 
REMARK    2  A    between atoms: C2_3  and  C3_4 
REMARK    3  A    between atoms: C3_4  and  C5_6 
REMARK    4  A    between atoms: C5_6  and  N2_7 
REMARK    5  A    between atoms: N2_7  and  C6_8 
REMARK    6  A    between atoms: C7_10  and  O1_11 
REMARK    7  A    between atoms: C9_14  and  N5_15 
ROOT
HETATM    1  C6  UNL     1      24.345   2.477  50.841  1.00  0.00     0.741 A 
HETATM    2  N3  UNL     1      24.885   3.329  49.953  1.00  0.00    -0.018 NA
HETATM    3  C7  UNL     1      26.218   3.508  50.010  1.00  0.00     0.302 A 
HETATM    4  N4  UNL     1      27.011   2.870  50.915  1.00  0.00    -0.017 NA
HETATM    5  C9  UNL     1      26.461   2.006  51.815  1.00  0.00     0.744 A 
HETATM    6  N6  UNL     1      25.129   1.847  51.735  1.00  0.00     0.130 NA
ENDROOT
BRANCH   1   7
HETATM    7  N2  UNL     1      22.966   2.070  51.015  1.00  0.00    -0.221 N 
HETATM    8  H13 UNL     1      22.325   2.224  50.202  1.00  0.00     0.177 HD
BRANCH   7   9
HETATM    9  C5  UNL     1      22.960   1.552  52.366  1.00  0.00     0.144 C 
BRANCH   9  10
HETATM   10  C3  UNL     1      21.891   0.484  52.567  1.00  0.00     0.017 C 
HETATM   11  C4  UNL     1      21.260   0.200  51.248  1.00  0.00     0.013 C 
BRANCH  10  12
HETATM   12  C2  UNL     1      20.927   0.854  53.638  1.00  0.00     0.119 C 
BRANCH  12  13
HETATM   13  N1  UNL     1      20.893  -0.029  54.748  1.00  0.00    -0.425 N 
HETATM   14  C1  UNL     1      21.696  -1.198  54.702  1.00  0.00     0.139 C 
HETATM   15  H4  UNL     1      19.958  -0.235  55.110  1.00  0.00     0.152 HD
ENDBRANCH  12  13
ENDBRANCH  10  12
ENDBRANCH   9  10
ENDBRANCH   7   9
ENDBRANCH   1   7
BRANCH   3  16
HETATM   16  O1  UNL     1      26.749   4.392  49.080  1.00  0.00    -0.323 OA
HETATM   17  C8  UNL     1      26.246   5.707  49.047  1.00  0.00     0.213 C 
ENDBRANCH   3  16
BRANCH   5  18
HETATM   18  N5  UNL     1      27.207   1.293  52.792  1.00  0.00    -0.209 N 
HETATM   19  C10 UNL     1      27.005  -0.148  52.932  1.00  0.00     0.167 C 
HETATM   20  C11 UNL     1      28.254  -0.883  53.302  1.00  0.00     0.188 C 
HETATM   21  O2  UNL     1      28.837  -0.273  54.405  1.00  0.00    -0.388 OA
HETATM   22  C12 UNL     1      29.335   0.951  53.961  1.00  0.00     0.188 C 
HETATM   23  C13 UNL     1      28.179   1.892  53.678  1.00  0.00     0.167 C 
ENDBRANCH   5  18
TORSDOF 7
ENDMDL
MODEL 6
REMARK VINA RESULT:      -6.2      2.798      5.540
REMARK  7 active torsions:
REMARK  status: ('A' for Active; 'I' for Inactive)
REMARK    1  A    between atoms: N1_2  and  C2_3 
REMARK    2  A    between atoms: C2_3  and  C3_4 
REMARK    3  A    between atoms: C3_4  and  C5_6 
REMARK    4  A    between atoms: C5_6  and  N2_7 
REMARK    5  A    between atoms: N2_7  and  C6_8 
REMARK    6  A    between atoms: C7_10  and  O1_11 
REMARK    7  A    between atoms: C9_14  and  N5_15 
ROOT
HETATM    1  C6  UNL     1      24.232   2.893  51.113  1.00  0.00     0.741 A 
HETATM    2  N3  UNL     1      23.199   2.034  51.151  1.00  0.00    -0.018 NA
HETATM    3  C7  UNL     1      23.289   1.007  52.015  1.00  0.00     0.302 A 
HETATM    4  N4  UNL     1      24.365   0.818  52.828  1.00  0.00    -0.017 NA
HETATM    5  C9  UNL     1      25.413   1.690  52.788  1.00  0.00     0.744 A 
HETATM    6  N6  UNL     1      25.296   2.705  51.916  1.00  0.00     0.130 NA
ENDROOT
BRANCH   1   7
HETATM    7  N2  UNL     1      24.418   4.086  50.313  1.00  0.00    -0.221 N 
HETATM    8  H13 UNL     1      23.595   4.728  50.229  1.00  0.00     0.177 HD
BRANCH   7   9
HETATM    9  C5  UNL     1      25.791   3.959  49.874  1.00  0.00     0.144 C 
BRANCH   9  10
HETATM   10  C3  UNL     1      26.226   5.130  49.001  1.00  0.00     0.017 C 
HETATM   11  C4  UNL     1      27.659   4.939  48.641  1.00  0.00     0.013 C 
BRANCH  10  12
HETATM   12  C2  UNL     1      25.925   6.441  49.636  1.00  0.00     0.119 C 
BRANCH  12  13
HETATM   13  N1  UNL     1      27.031   7.323  49.745  1.00  0.00    -0.425 N 
HETATM   14  C1  UNL     1      26.799   8.715  49.598  1.00  0.00     0.139 C 
HETATM   15  H4  UNL     1      27.871   7.032  49.237  1.00  0.00     0.152 HD
ENDBRANCH  12  13
ENDBRANCH  10  12
ENDBRANCH   9  10
ENDBRANCH   7   9
ENDBRANCH   1   7
BRANCH   3  16
HETATM   16  O1  UNL     1      22.208   0.137  52.035  1.00  0.00    -0.323 OA
HETATM   17  C8  UNL     1      21.176   0.335  51.097  1.00  0.00     0.213 C 
ENDBRANCH   3  16
BRANCH   5  18
HETATM   18  N5  UNL     1      26.575   1.576  53.599  1.00  0.00    -0.209 N 
HETATM   19  C10 UNL     1      26.593   0.598  54.685  1.00  0.00     0.167 C 
HETATM   20  C11 UNL     1      27.943  -0.007  54.907  1.00  0.00     0.188 C 
HETATM   21  O2  UNL     1      28.886   1.006  55.027  1.00  0.00    -0.388 OA
HETATM   22  C12 UNL     1      29.021   1.570  53.760  1.00  0.00     0.188 C 
HETATM   23  C13 UNL     1      27.773   2.366  53.428  1.00  0.00     0.167 C 
ENDBRANCH   5  18
TORSDOF 7
ENDMDL
MODEL 7
REMARK VINA RESULT:      -6.1      2.192      5.364
REMARK  7 active torsions:
REMARK  status: ('A' for Active; 'I' for Inactive)
REMARK    1  A    between atoms: N1_2  and  C2_3 
REMARK    2  A    between atoms: C2_3  and  C3_4 
REMARK    3  A    between atoms: C3_4  and  C5_6 
REMARK    4  A    between atoms: C5_6  and  N2_7 
REMARK    5  A    between atoms: N2_7  and  C6_8 
REMARK    6  A    between atoms: C7_10  and  O1_11 
REMARK    7  A    between atoms: C9_14  and  N5_15 
ROOT
HETATM    1  C6  UNL     1      25.670  -0.302  54.181  1.00  0.00     0.741 A 
HETATM    2  N3  UNL     1      26.970  -0.415  54.502  1.00  0.00    -0.018 NA
HETATM    3  C7  UNL     1      27.843   0.309  53.777  1.00  0.00     0.302 A 
HETATM    4  N4  UNL     1      27.458   1.125  52.758  1.00  0.00    -0.017 NA
HETATM    5  C9  UNL     1      26.139   1.237  52.434  1.00  0.00     0.744 A 
HETATM    6  N6  UNL     1      25.290   0.504  53.174  1.00  0.00     0.130 NA
ENDROOT
BRANCH   1   7
HETATM    7  N2  UNL     1      24.509  -0.930  54.779  1.00  0.00    -0.221 N 
HETATM    8  H13 UNL     1      24.678  -1.509  55.636  1.00  0.00     0.177 HD
BRANCH   7   9
HETATM    9  C5  UNL     1      23.436  -0.502  53.908  1.00  0.00     0.144 C 
BRANCH   9  10
HETATM   10  C3  UNL     1      22.072  -0.621  54.576  1.00  0.00     0.017 C 
HETATM   11  C4  UNL     1      21.661  -2.052  54.550  1.00  0.00     0.013 C 
BRANCH  10  12
HETATM   12  C2  UNL     1      21.077   0.311  53.980  1.00  0.00     0.119 C 
BRANCH  12  13
HETATM   13  N1  UNL     1      19.780  -0.234  53.794  1.00  0.00    -0.425 N 
HETATM   14  C1  UNL     1      19.175  -0.111  52.517  1.00  0.00     0.139 C 
HETATM   15  H4  UNL     1      19.111  -0.031  54.542  1.00  0.00     0.152 HD
ENDBRANCH  12  13
ENDBRANCH  10  12
ENDBRANCH   9  10
ENDBRANCH   7   9
ENDBRANCH   1   7
BRANCH   3  16
HETATM   16  O1  UNL     1      29.179   0.175  54.131  1.00  0.00    -0.323 OA
HETATM   17  C8  UNL     1      29.876  -0.964  53.684  1.00  0.00     0.213 C 
ENDBRANCH   3  16
BRANCH   5  18
HETATM   18  N5  UNL     1      25.643   2.066  51.390  1.00  0.00    -0.209 N 
HETATM   19  C10 UNL     1      24.199   2.169  51.187  1.00  0.00     0.167 C 
HETATM   20  C11 UNL     1      23.767   3.525  50.726  1.00  0.00     0.188 C 
HETATM   21  O2  UNL     1      24.531   3.903  49.631  1.00  0.00    -0.388 OA
HETATM   22  C12 UNL     1      25.816   4.151  50.113  1.00  0.00     0.188 C 
HETATM   23  C13 UNL     1      26.472   2.837  50.493  1.00  0.00     0.167 C 
ENDBRANCH   5  18
TORSDOF 7
ENDMDL
MODEL 8
REMARK VINA RESULT:      -6.1      2.244      5.416
REMARK  7 active torsions:
REMARK  status: ('A' for Active; 'I' for Inactive)
REMARK    1  A    between atoms: N1_2  and  C2_3 
REMARK    2  A    between atoms: C2_3  and  C3_4 
REMARK    3  A    between atoms: C3_4  and  C5_6 
REMARK    4  A    between atoms: C5_6  and  N2_7 
REMARK    5  A    between atoms: N2_7  and  C6_8 
REMARK    6  A    between atoms: C7_10  and  O1_11 
REMARK    7  A    between atoms: C9_14  and  N5_15 
ROOT
HETATM    1  C6  UNL     1      23.897   2.386  52.772  1.00  0.00     0.741 A 
HETATM    2  N3  UNL     1      22.717   1.743  52.795  1.00  0.00    -0.018 NA
HETATM    3  C7  UNL     1      22.732   0.453  53.178  1.00  0.00     0.302 A 
HETATM    4  N4  UNL     1      23.874  -0.200  53.530  1.00  0.00    -0.017 NA
HETATM    5  C9  UNL     1      25.069   0.454  53.505  1.00  0.00     0.744 A 
HETATM    6  N6  UNL     1      25.025   1.741  53.120  1.00  0.00     0.130 NA
ENDROOT
BRANCH   1   7
HETATM    7  N2  UNL     1      24.197   3.761  52.427  1.00  0.00    -0.221 N 
HETATM    8  H13 UNL     1      23.894   4.493  53.111  1.00  0.00     0.177 HD
BRANCH   7   9
HETATM    9  C5  UNL     1      24.867   3.626  51.151  1.00  0.00     0.144 C 
BRANCH   9  10
HETATM   10  C3  UNL     1      24.065   4.245  50.014  1.00  0.00     0.017 C 
HETATM   11  C4  UNL     1      23.676   3.160  49.069  1.00  0.00     0.013 C 
BRANCH  10  12
HETATM   12  C2  UNL     1      24.786   5.379  49.376  1.00  0.00     0.119 C 
BRANCH  12  13
HETATM   13  N1  UNL     1      25.775   5.995  50.187  1.00  0.00    -0.425 N 
HETATM   14  C1  UNL     1      25.969   7.395  50.065  1.00  0.00     0.139 C 
HETATM   15  H4  UNL     1      26.669   5.499  50.234  1.00  0.00     0.152 HD
ENDBRANCH  12  13
ENDBRANCH  10  12
ENDBRANCH   9  10
ENDBRANCH   7   9
ENDBRANCH   1   7
BRANCH   3  16
HETATM   16  O1  UNL     1      21.499  -0.186  53.194  1.00  0.00    -0.323 OA
HETATM   17  C8  UNL     1      21.230  -1.088  54.242  1.00  0.00     0.213 C 
ENDBRANCH   3  16
BRANCH   5  18
HETATM   18  N5  UNL     1      26.311  -0.142  53.859  1.00  0.00    -0.209 N 
HETATM   19  C10 UNL     1      26.826  -1.246  53.052  1.00  0.00     0.167 C 
HETATM   20  C11 UNL     1      28.319  -1.250  52.948  1.00  0.00     0.188 C 
HETATM   21  O2  UNL     1      28.868  -1.161  54.220  1.00  0.00    -0.388 OA
HETATM   22  C12 UNL     1      28.607   0.132  54.672  1.00  0.00     0.188 C 
HETATM   23  C13 UNL     1      27.127   0.269  54.978  1.00  0.00     0.167 C 
ENDBRANCH   5  18
TORSDOF 7
ENDMDL
MODEL 9
REMARK VINA RESULT:      -5.8      3.093      6.032
REMARK  7 active torsions:
REMARK  status: ('A' for Active; 'I' for Inactive)
REMARK    1  A    between atoms: N1_2  and  C2_3 
REMARK    2  A    between atoms: C2_3  and  C3_4 
REMARK    3  A    between atoms: C3_4  and  C5_6 
REMARK    4  A    between atoms: C5_6  and  N2_7 
REMARK    5  A    between atoms: N2_7  and  C6_8 
REMARK    6  A    between atoms: C7_10  and  O1_11 
REMARK    7  A    between atoms: C9_14  and  N5_15 
ROOT
HETATM    1  C6  UNL     1      24.811   3.906  50.584  1.00  0.00     0.741 A 
HETATM    2  N3  UNL     1      23.528   3.921  50.187  1.00  0.00    -0.018 NA
HETATM    3  C7  UNL     1      22.783   2.840  50.484  1.00  0.00     0.302 A 
HETATM    4  N4  UNL     1      23.279   1.764  51.154  1.00  0.00    -0.017 NA
HETATM    5  C9  UNL     1      24.582   1.750  51.555  1.00  0.00     0.744 A 
HETATM    6  N6  UNL     1      25.301   2.842  51.245  1.00  0.00     0.130 NA
ENDROOT
BRANCH   1   7
HETATM    7  N2  UNL     1      25.842   4.912  50.429  1.00  0.00    -0.221 N 
HETATM    8  H13 UNL     1      26.535   4.998  51.209  1.00  0.00     0.177 HD
BRANCH   7   9
HETATM    9  C5  UNL     1      25.524   5.494  49.143  1.00  0.00     0.144 C 
BRANCH   9  10
HETATM   10  C3  UNL     1      26.755   6.060  48.447  1.00  0.00     0.017 C 
HETATM   11  C4  UNL     1      27.862   5.071  48.575  1.00  0.00     0.013 C 
BRANCH  10  12
HETATM   12  C2  UNL     1      27.095   7.423  48.938  1.00  0.00     0.119 C 
BRANCH  12  13
HETATM   13  N1  UNL     1      28.470   7.633  49.222  1.00  0.00    -0.425 N 
HETATM   14  C1  UNL     1      29.062   8.855  48.811  1.00  0.00     0.139 C 
HETATM   15  H4  UNL     1      29.082   6.838  49.022  1.00  0.00     0.152 HD
ENDBRANCH  12  13
ENDBRANCH  10  12
ENDBRANCH   9  10
ENDBRANCH   7   9
ENDBRANCH   1   7
BRANCH   3  16
HETATM   16  O1  UNL     1      21.461   2.884  50.064  1.00  0.00    -0.323 OA
HETATM   17  C8  UNL     1      20.998   4.058  49.438  1.00  0.00     0.213 C 
ENDBRANCH   3  16
BRANCH   5  18
HETATM   18  N5  UNL     1      25.186   0.674  52.262  1.00  0.00    -0.209 N 
HETATM   19  C10 UNL     1      26.590   0.357  52.011  1.00  0.00     0.167 C 
HETATM   20  C11 UNL     1      27.309  -0.130  53.230  1.00  0.00     0.188 C 
HETATM   21  O2  UNL     1      26.580  -1.158  53.813  1.00  0.00    -0.388 OA
HETATM   22  C12 UNL     1      25.438  -0.573  54.357  1.00  0.00     0.188 C 
HETATM   23  C13 UNL     1      24.507  -0.148  53.237  1.00  0.00     0.167 C 
ENDBRANCH   5  18
TORSDOF 7
ENDMDL
