MODEL 1
REMARK VINA RESULT:      -8.6      0.000      0.000
REMARK  4 active torsions:
REMARK  status: ('A' for Active; 'I' for Inactive)
REMARK    1  A    between atoms: N4_22  and  C17_23 
REMARK    2  A    between atoms: C17_23  and  C18_24 
REMARK    3  A    between atoms: C18_24  and  C19_25 
REMARK    4  A    between atoms: C19_25  and  N5_26 
ROOT
HETATM    1  C1  UNL     1      17.306   2.592  50.059  1.00  0.00     0.000 A 
HETATM    2  C2  UNL     1      18.400   2.459  49.339  1.00  0.00     0.012 A 
HETATM    3  C3  UNL     1      19.636   1.886  49.839  1.00  0.00    -0.002 A 
HETATM    4  C4  UNL     1      20.482   1.730  48.812  1.00  0.00     0.007 C 
HETATM    5  C5  UNL     1      21.820   1.251  48.419  1.00  0.00     0.149 C 
HETATM    6  N1  UNL     1      22.644   2.310  47.950  1.00  0.00    -0.371 N 
HETATM    7  C6  UNL     1      22.683   2.993  49.222  1.00  0.00     0.136 A 
HETATM    8  N2  UNL     1      22.577   4.296  48.988  1.00  0.00    -0.224 NA
HETATM    9  C7  UNL     1      22.587   5.249  49.931  1.00  0.00     0.234 A 
HETATM   10  N3  UNL     1      22.717   4.860  51.235  1.00  0.00    -0.253 NA
HETATM   11  C8  UNL     1      22.821   3.491  51.387  1.00  0.00     0.133 A 
HETATM   12  C9  UNL     1      22.819   2.413  50.457  1.00  0.00     0.029 A 
HETATM   13  C10 UNL     1      22.960   1.282  51.402  1.00  0.00     0.049 C 
HETATM   14  C11 UNL     1      21.987   0.631  52.111  1.00  0.00     0.068 C 
HETATM   15  C12 UNL     1      20.589   0.937  52.047  1.00  0.00     0.129 C 
HETATM   16  C13 UNL     1      19.730   1.418  51.193  1.00  0.00     0.114 A 
HETATM   17  O1  UNL     1      18.522   1.562  51.842  1.00  0.00    -0.344 OA
HETATM   18  C14 UNL     1      17.342   2.135  51.442  1.00  0.00     0.203 A 
HETATM   19  O2  UNL     1      20.475   0.450  53.312  1.00  0.00    -0.344 OA
HETATM   20  C15 UNL     1      20.644  -0.847  53.806  1.00  0.00     0.195 C 
HETATM   21  C16 UNL     1      22.098  -1.222  53.630  1.00  0.00     0.149 C 
HETATM   22  N4  UNL     1      22.752   0.021  53.143  1.00  0.00    -0.376 N 
HETATM   23  H6  UNL     1      23.130   2.647  47.096  1.00  0.00     0.161 HD
ENDROOT
BRANCH  22  24
HETATM   24  C17 UNL     1      23.981   0.471  53.704  1.00  0.00     0.124 C 
BRANCH  24  25
HETATM   25  C18 UNL     1      25.083  -0.504  53.860  1.00  0.00     0.039 C 
BRANCH  25  26
HETATM   26  C19 UNL     1      26.265  -0.064  54.677  1.00  0.00     0.118 C 
BRANCH  26  27
HETATM   27  N5  UNL     1      27.405   0.116  53.807  1.00  0.00    -0.408 N 
HETATM   28  C20 UNL     1      28.620   0.065  54.536  1.00  0.00     0.143 C 
HETATM   29  C21 UNL     1      29.407   1.357  54.562  1.00  0.00     0.187 C 
HETATM   30  O3  UNL     1      28.588   2.450  54.259  1.00  0.00    -0.388 OA
HETATM   31  C22 UNL     1      28.115   2.336  52.968  1.00  0.00     0.187 C 
HETATM   32  C23 UNL     1      27.283   1.099  52.803  1.00  0.00     0.143 C 
ENDBRANCH  26  27
ENDBRANCH  25  26
ENDBRANCH  24  25
ENDBRANCH  22  24
TORSDOF 4
ENDMDL
MODEL 2
REMARK VINA RESULT:      -8.5      2.323      6.278
REMARK  4 active torsions:
REMARK  status: ('A' for Active; 'I' for Inactive)
REMARK    1  A    between atoms: N4_22  and  C17_23 
REMARK    2  A    between atoms: C17_23  and  C18_24 
REMARK    3  A    between atoms: C18_24  and  C19_25 
REMARK    4  A    between atoms: C19_25  and  N5_26 
ROOT
HETATM    1  C1  UNL     1      26.896   5.917  48.483  1.00  0.00     0.000 A 
HETATM    2  C2  UNL     1      25.741   6.069  49.099  1.00  0.00     0.012 A 
HETATM    3  C3  UNL     1      25.199   5.117  50.051  1.00  0.00    -0.002 A 
HETATM    4  C4  UNL     1      24.114   5.656  50.624  1.00  0.00     0.007 C 
HETATM    5  C5  UNL     1      23.047   5.439  51.617  1.00  0.00     0.149 C 
HETATM    6  N1  UNL     1      21.763   5.377  51.010  1.00  0.00    -0.371 N 
HETATM    7  C6  UNL     1      22.046   4.169  50.272  1.00  0.00     0.136 A 
HETATM    8  N2  UNL     1      21.521   4.300  49.060  1.00  0.00    -0.224 NA
HETATM    9  C7  UNL     1      21.573   3.370  48.095  1.00  0.00     0.234 A 
HETATM   10  N3  UNL     1      22.213   2.194  48.372  1.00  0.00    -0.253 NA
HETATM   11  C8  UNL     1      22.728   2.143  49.652  1.00  0.00     0.133 A 
HETATM   12  C9  UNL     1      22.723   3.069  50.733  1.00  0.00     0.029 A 
HETATM   13  C10 UNL     1      23.477   2.276  51.731  1.00  0.00     0.049 C 
HETATM   14  C11 UNL     1      24.832   2.155  51.882  1.00  0.00     0.068 C 
HETATM   15  C12 UNL     1      25.806   2.820  51.069  1.00  0.00     0.129 C 
HETATM   16  C13 UNL     1      25.921   3.921  50.382  1.00  0.00     0.114 A 
HETATM   17  O1  UNL     1      27.130   3.884  49.719  1.00  0.00    -0.344 OA
HETATM   18  C14 UNL     1      27.672   4.720  48.779  1.00  0.00     0.203 A 
HETATM   19  O2  UNL     1      26.661   1.798  51.346  1.00  0.00    -0.344 OA
HETATM   20  C15 UNL     1      27.252   1.408  52.552  1.00  0.00     0.195 C 
HETATM   21  C16 UNL     1      26.150   0.936  53.474  1.00  0.00     0.149 C 
HETATM   22  N4  UNL     1      24.923   0.951  52.634  1.00  0.00    -0.376 N 
HETATM   23  H6  UNL     1      20.854   5.879  50.974  1.00  0.00     0.161 HD
ENDROOT
BRANCH  22  24
HETATM   24  C17 UNL     1      24.018  -0.149  52.639  1.00  0.00     0.124 C 
BRANCH  24  25
HETATM   25  C18 UNL     1      23.155  -0.346  53.825  1.00  0.00     0.039 C 
BRANCH  25  26
HETATM   26  C19 UNL     1      21.931  -1.196  53.637  1.00  0.00     0.118 C 
BRANCH  26  27
HETATM   27  N5  UNL     1      20.758  -0.422  53.974  1.00  0.00    -0.408 N 
HETATM   28  C20 UNL     1      19.570  -1.120  53.639  1.00  0.00     0.143 C 
HETATM   29  C21 UNL     1      18.735  -0.481  52.550  1.00  0.00     0.187 C 
HETATM   30  O3  UNL     1      19.503   0.404  51.784  1.00  0.00    -0.388 OA
HETATM   31  C22 UNL     1      19.938   1.449  52.573  1.00  0.00     0.187 C 
HETATM   32  C23 UNL     1      20.810   0.958  53.690  1.00  0.00     0.143 C 
ENDBRANCH  26  27
ENDBRANCH  25  26
ENDBRANCH  24  25
ENDBRANCH  22  24
TORSDOF 4
ENDMDL
MODEL 3
REMARK VINA RESULT:      -8.3      2.637      7.698
REMARK  4 active torsions:
REMARK  status: ('A' for Active; 'I' for Inactive)
REMARK    1  A    between atoms: N4_22  and  C17_23 
REMARK    2  A    between atoms: C17_23  and  C18_24 
REMARK    3  A    between atoms: C18_24  and  C19_25 
REMARK    4  A    between atoms: C19_25  and  N5_26 
ROOT
HETATM    1  C1  UNL     1      27.464   0.033  52.613  1.00  0.00     0.000 A 
HETATM    2  C2  UNL     1      26.876   1.207  52.708  1.00  0.00     0.012 A 
HETATM    3  C3  UNL     1      25.451   1.386  52.919  1.00  0.00    -0.002 A 
HETATM    4  C4  UNL     1      25.213   2.684  53.152  1.00  0.00     0.007 C 
HETATM    5  C5  UNL     1      24.167   3.677  53.458  1.00  0.00     0.149 C 
HETATM    6  N1  UNL     1      24.005   4.617  52.404  1.00  0.00    -0.371 N 
HETATM    7  C6  UNL     1      23.535   3.638  51.453  1.00  0.00     0.136 A 
HETATM    8  N2  UNL     1      24.094   3.909  50.279  1.00  0.00    -0.224 NA
HETATM    9  C7  UNL     1      23.882   3.218  49.149  1.00  0.00     0.234 A 
HETATM   10  N3  UNL     1      23.029   2.151  49.200  1.00  0.00    -0.253 NA
HETATM   11  C8  UNL     1      22.495   1.941  50.456  1.00  0.00     0.133 A 
HETATM   12  C9  UNL     1      22.658   2.613  51.700  1.00  0.00     0.029 A 
HETATM   13  C10 UNL     1      21.769   1.779  52.541  1.00  0.00     0.049 C 
HETATM   14  C11 UNL     1      22.049   0.600  53.177  1.00  0.00     0.068 C 
HETATM   15  C12 UNL     1      23.320  -0.059  53.151  1.00  0.00     0.129 C 
HETATM   16  C13 UNL     1      24.581   0.250  53.041  1.00  0.00     0.114 A 
HETATM   17  O1  UNL     1      25.302  -0.923  52.972  1.00  0.00    -0.344 OA
HETATM   18  C14 UNL     1      26.630  -1.157  52.728  1.00  0.00     0.203 A 
HETATM   19  O2  UNL     1      22.661  -1.232  53.348  1.00  0.00    -0.344 OA
HETATM   20  C15 UNL     1      21.924  -1.689  54.446  1.00  0.00     0.195 C 
HETATM   21  C16 UNL     1      20.705  -0.805  54.582  1.00  0.00     0.149 C 
HETATM   22  N4  UNL     1      20.742   0.078  53.387  1.00  0.00    -0.376 N 
HETATM   23  H6  UNL     1      24.114   5.628  52.190  1.00  0.00     0.161 HD
ENDROOT
BRANCH  22  24
HETATM   24  C17 UNL     1      19.573   0.305  52.606  1.00  0.00     0.124 C 
BRANCH  24  25
HETATM   25  C18 UNL     1      18.685  -0.842  52.318  1.00  0.00     0.039 C 
BRANCH  25  26
HETATM   26  C19 UNL     1      17.374  -0.884  53.050  1.00  0.00     0.118 C 
BRANCH  26  27
HETATM   27  N5  UNL     1      16.297  -0.652  52.113  1.00  0.00    -0.408 N 
HETATM   28  C20 UNL     1      16.026   0.733  51.977  1.00  0.00     0.143 C 
HETATM   29  C21 UNL     1      14.664   1.172  52.469  1.00  0.00     0.187 C 
HETATM   30  O3  UNL     1      14.127   0.236  53.360  1.00  0.00    -0.388 OA
HETATM   31  C22 UNL     1      13.912  -0.961  52.708  1.00  0.00     0.187 C 
HETATM   32  C23 UNL     1      15.198  -1.531  52.186  1.00  0.00     0.143 C 
ENDBRANCH  26  27
ENDBRANCH  25  26
ENDBRANCH  24  25
ENDBRANCH  22  24
TORSDOF 4
ENDMDL
MODEL 4
REMARK VINA RESULT:      -8.2      3.940      6.121
REMARK  4 active torsions:
REMARK  status: ('A' for Active; 'I' for Inactive)
REMARK    1  A    between atoms: N4_22  and  C17_23 
REMARK    2  A    between atoms: C17_23  and  C18_24 
REMARK    3  A    between atoms: C18_24  and  C19_25 
REMARK    4  A    between atoms: C19_25  and  N5_26 
ROOT
HETATM    1  C1  UNL     1      21.932  -0.236  53.006  1.00  0.00     0.000 A 
HETATM    2  C2  UNL     1      21.475   0.056  51.806  1.00  0.00     0.012 A 
HETATM    3  C3  UNL     1      22.125   0.979  50.894  1.00  0.00    -0.002 A 
HETATM    4  C4  UNL     1      21.511   0.909  49.705  1.00  0.00     0.007 C 
HETATM    5  C5  UNL     1      21.506   1.422  48.323  1.00  0.00     0.149 C 
HETATM    6  N1  UNL     1      20.326   2.162  48.037  1.00  0.00    -0.371 N 
HETATM    7  C6  UNL     1      20.619   3.210  48.985  1.00  0.00     0.136 A 
HETATM    8  N2  UNL     1      19.486   3.535  49.596  1.00  0.00    -0.224 NA
HETATM    9  C7  UNL     1      19.365   4.483  50.536  1.00  0.00     0.234 A 
HETATM   10  N3  UNL     1      20.488   5.174  50.899  1.00  0.00    -0.253 NA
HETATM   11  C8  UNL     1      21.618   4.773  50.215  1.00  0.00     0.133 A 
HETATM   12  C9  UNL     1      21.842   3.787  49.213  1.00  0.00     0.029 A 
HETATM   13  C10 UNL     1      23.299   3.972  49.017  1.00  0.00     0.049 C 
HETATM   14  C11 UNL     1      24.334   3.435  49.733  1.00  0.00     0.068 C 
HETATM   15  C12 UNL     1      24.183   2.543  50.843  1.00  0.00     0.129 C 
HETATM   16  C13 UNL     1      23.343   1.641  51.267  1.00  0.00     0.114 A 
HETATM   17  O1  UNL     1      23.756   1.231  52.517  1.00  0.00    -0.344 OA
HETATM   18  C14 UNL     1      23.166   0.407  53.440  1.00  0.00     0.203 A 
HETATM   19  O2  UNL     1      25.376   3.001  51.309  1.00  0.00    -0.344 OA
HETATM   20  C15 UNL     1      26.666   2.874  50.786  1.00  0.00     0.195 C 
HETATM   21  C16 UNL     1      26.712   3.637  49.481  1.00  0.00     0.149 C 
HETATM   22  N4  UNL     1      25.395   4.322  49.399  1.00  0.00    -0.376 N 
HETATM   23  H6  UNL     1      19.479   2.143  47.436  1.00  0.00     0.161 HD
ENDROOT
BRANCH  22  24
HETATM   24  C17 UNL     1      25.304   5.696  49.034  1.00  0.00     0.124 C 
BRANCH  24  25
HETATM   25  C18 UNL     1      26.548   6.411  48.670  1.00  0.00     0.039 C 
BRANCH  25  26
HETATM   26  C19 UNL     1      26.774   7.747  49.319  1.00  0.00     0.118 C 
BRANCH  26  27
HETATM   27  N5  UNL     1      27.682   8.524  48.505  1.00  0.00    -0.408 N 
HETATM   28  C20 UNL     1      28.193   7.753  47.430  1.00  0.00     0.143 C 
HETATM   29  C21 UNL     1      29.682   7.489  47.480  1.00  0.00     0.187 C 
HETATM   30  O3  UNL     1      30.179   7.659  48.777  1.00  0.00    -0.388 OA
HETATM   31  C22 UNL     1      30.026   8.973  49.168  1.00  0.00     0.187 C 
HETATM   32  C23 UNL     1      28.579   9.368  49.191  1.00  0.00     0.143 C 
ENDBRANCH  26  27
ENDBRANCH  25  26
ENDBRANCH  24  25
ENDBRANCH  22  24
TORSDOF 4
ENDMDL
MODEL 5
REMARK VINA RESULT:      -8.2      2.886      4.883
REMARK  4 active torsions:
REMARK  status: ('A' for Active; 'I' for Inactive)
REMARK    1  A    between atoms: N4_22  and  C17_23 
REMARK    2  A    between atoms: C17_23  and  C18_24 
REMARK    3  A    between atoms: C18_24  and  C19_25 
REMARK    4  A    between atoms: C19_25  and  N5_26 
ROOT
HETATM    1  C1  UNL     1      20.008  -0.293  53.855  1.00  0.00     0.000 A 
HETATM    2  C2  UNL     1      20.013   0.022  52.576  1.00  0.00     0.012 A 
HETATM    3  C3  UNL     1      21.185   0.489  51.859  1.00  0.00    -0.002 A 
HETATM    4  C4  UNL     1      20.895   0.540  50.552  1.00  0.00     0.007 C 
HETATM    5  C5  UNL     1      21.432   0.849  49.214  1.00  0.00     0.149 C 
HETATM    6  N1  UNL     1      20.779   1.968  48.628  1.00  0.00    -0.371 N 
HETATM    7  C6  UNL     1      21.258   2.907  49.614  1.00  0.00     0.136 A 
HETATM    8  N2  UNL     1      20.261   3.732  49.909  1.00  0.00    -0.224 NA
HETATM    9  C7  UNL     1      20.336   4.748  50.781  1.00  0.00     0.234 A 
HETATM   10  N3  UNL     1      21.526   4.957  51.420  1.00  0.00    -0.253 NA
HETATM   11  C8  UNL     1      22.506   4.056  51.055  1.00  0.00     0.133 A 
HETATM   12  C9  UNL     1      22.519   2.957  50.151  1.00  0.00     0.029 A 
HETATM   13  C10 UNL     1      23.918   2.508  50.339  1.00  0.00     0.049 C 
HETATM   14  C11 UNL     1      24.430   1.681  51.302  1.00  0.00     0.068 C 
HETATM   15  C12 UNL     1      23.660   1.061  52.339  1.00  0.00     0.129 C 
HETATM   16  C13 UNL     1      22.444   0.635  52.534  1.00  0.00     0.114 A 
HETATM   17  O1  UNL     1      22.340   0.238  53.850  1.00  0.00    -0.344 OA
HETATM   18  C14 UNL     1      21.259  -0.163  54.591  1.00  0.00     0.203 A 
HETATM   19  O2  UNL     1      24.789   1.042  53.097  1.00  0.00    -0.344 OA
HETATM   20  C15 UNL     1      25.987   0.342  52.927  1.00  0.00     0.195 C 
HETATM   21  C16 UNL     1      26.655   0.866  51.676  1.00  0.00     0.149 C 
HETATM   22  N4  UNL     1      25.812   2.014  51.251  1.00  0.00    -0.376 N 
HETATM   23  H6  UNL     1      20.169   2.228  47.827  1.00  0.00     0.161 HD
ENDROOT
BRANCH  22  24
HETATM   24  C17 UNL     1      26.400   3.254  50.869  1.00  0.00     0.124 C 
BRANCH  24  25
HETATM   25  C18 UNL     1      26.591   3.528  49.428  1.00  0.00     0.039 C 
BRANCH  25  26
HETATM   26  C19 UNL     1      27.377   4.759  49.072  1.00  0.00     0.118 C 
BRANCH  26  27
HETATM   27  N5  UNL     1      26.470   5.783  48.606  1.00  0.00    -0.408 N 
HETATM   28  C20 UNL     1      27.173   6.949  48.212  1.00  0.00     0.143 C 
HETATM   29  C21 UNL     1      26.906   8.177  49.056  1.00  0.00     0.187 C 
HETATM   30  O3  UNL     1      26.386   7.823  50.306  1.00  0.00    -0.388 OA
HETATM   31  C22 UNL     1      25.158   7.214  50.146  1.00  0.00     0.187 C 
HETATM   32  C23 UNL     1      25.279   5.953  49.341  1.00  0.00     0.143 C 
ENDBRANCH  26  27
ENDBRANCH  25  26
ENDBRANCH  24  25
ENDBRANCH  22  24
TORSDOF 4
ENDMDL
MODEL 6
REMARK VINA RESULT:      -7.7      9.253     13.353
REMARK  4 active torsions:
REMARK  status: ('A' for Active; 'I' for Inactive)
REMARK    1  A    between atoms: N4_22  and  C17_23 
REMARK    2  A    between atoms: C17_23  and  C18_24 
REMARK    3  A    between atoms: C18_24  and  C19_25 
REMARK    4  A    between atoms: C19_25  and  N5_26 
ROOT
HETATM    1  C1  UNL     1      34.585   5.062  43.184  1.00  0.00     0.000 A 
HETATM    2  C2  UNL     1      34.152   4.619  44.346  1.00  0.00     0.012 A 
HETATM    3  C3  UNL     1      33.279   5.373  45.227  1.00  0.00    -0.002 A 
HETATM    4  C4  UNL     1      32.884   4.573  46.226  1.00  0.00     0.007 C 
HETATM    5  C5  UNL     1      32.059   4.490  47.445  1.00  0.00     0.149 C 
HETATM    6  N1  UNL     1      32.851   4.285  48.607  1.00  0.00    -0.371 N 
HETATM    7  C6  UNL     1      33.521   5.560  48.513  1.00  0.00     0.136 A 
HETATM    8  N2  UNL     1      34.801   5.370  48.813  1.00  0.00    -0.224 NA
HETATM    9  C7  UNL     1      35.734   6.333  48.844  1.00  0.00     0.234 A 
HETATM   10  N3  UNL     1      35.348   7.609  48.543  1.00  0.00    -0.253 NA
HETATM   11  C8  UNL     1      34.005   7.716  48.244  1.00  0.00     0.133 A 
HETATM   12  C9  UNL     1      32.949   6.762  48.185  1.00  0.00     0.029 A 
HETATM   13  C10 UNL     1      31.838   7.658  47.789  1.00  0.00     0.049 C 
HETATM   14  C11 UNL     1      31.484   8.080  46.536  1.00  0.00     0.068 C 
HETATM   15  C12 UNL     1      32.150   7.697  45.327  1.00  0.00     0.129 C 
HETATM   16  C13 UNL     1      32.828   6.686  44.860  1.00  0.00     0.114 A 
HETATM   17  O1  UNL     1      33.300   7.032  43.612  1.00  0.00    -0.344 OA
HETATM   18  C14 UNL     1      34.159   6.389  42.760  1.00  0.00     0.203 A 
HETATM   19  O2  UNL     1      31.735   8.873  44.784  1.00  0.00    -0.344 OA
HETATM   20  C15 UNL     1      30.448   9.330  44.480  1.00  0.00     0.195 C 
HETATM   21  C16 UNL     1      29.696   9.491  45.782  1.00  0.00     0.149 C 
HETATM   22  N4  UNL     1      30.711   9.235  46.839  1.00  0.00    -0.376 N 
HETATM   23  H6  UNL     1      33.030   3.589  49.358  1.00  0.00     0.161 HD
ENDROOT
BRANCH  22  24
HETATM   24  C17 UNL     1      30.827  10.095  47.967  1.00  0.00     0.124 C 
BRANCH  24  25
HETATM   25  C18 UNL     1      29.590  10.523  48.657  1.00  0.00     0.039 C 
BRANCH  25  26
HETATM   26  C19 UNL     1      28.863   9.477  49.453  1.00  0.00     0.118 C 
BRANCH  26  27
HETATM   27  N5  UNL     1      27.692   9.050  48.721  1.00  0.00    -0.408 N 
HETATM   28  C20 UNL     1      26.517   9.649  49.239  1.00  0.00     0.143 C 
HETATM   29  C21 UNL     1      25.529   8.689  49.866  1.00  0.00     0.187 C 
HETATM   30  O3  UNL     1      26.152   7.486  50.217  1.00  0.00    -0.388 OA
HETATM   31  C22 UNL     1      26.612   6.850  49.082  1.00  0.00     0.187 C 
HETATM   32  C23 UNL     1      27.632   7.687  48.367  1.00  0.00     0.143 C 
ENDBRANCH  26  27
ENDBRANCH  25  26
ENDBRANCH  24  25
ENDBRANCH  22  24
TORSDOF 4
ENDMDL
MODEL 7
REMARK VINA RESULT:      -7.7      7.359     10.749
REMARK  4 active torsions:
REMARK  status: ('A' for Active; 'I' for Inactive)
REMARK    1  A    between atoms: N4_22  and  C17_23 
REMARK    2  A    between atoms: C17_23  and  C18_24 
REMARK    3  A    between atoms: C18_24  and  C19_25 
REMARK    4  A    between atoms: C19_25  and  N5_26 
ROOT
HETATM    1  C1  UNL     1      31.410  11.656  48.341  1.00  0.00     0.000 A 
HETATM    2  C2  UNL     1      31.679  10.706  47.469  1.00  0.00     0.012 A 
HETATM    3  C3  UNL     1      30.907   9.485  47.335  1.00  0.00    -0.002 A 
HETATM    4  C4  UNL     1      31.329   8.828  46.246  1.00  0.00     0.007 C 
HETATM    5  C5  UNL     1      31.126   7.630  45.411  1.00  0.00     0.149 C 
HETATM    6  N1  UNL     1      32.255   6.767  45.440  1.00  0.00    -0.371 N 
HETATM    7  C6  UNL     1      32.124   6.457  46.843  1.00  0.00     0.136 A 
HETATM    8  N2  UNL     1      33.341   6.443  47.373  1.00  0.00    -0.224 NA
HETATM    9  C7  UNL     1      33.617   6.178  48.659  1.00  0.00     0.234 A 
HETATM   10  N3  UNL     1      32.571   5.901  49.494  1.00  0.00    -0.253 NA
HETATM   11  C8  UNL     1      31.344   5.936  48.862  1.00  0.00     0.133 A 
HETATM   12  C9  UNL     1      30.957   6.205  47.519  1.00  0.00     0.029 A 
HETATM   13  C10 UNL     1      29.490   6.057  47.658  1.00  0.00     0.049 C 
HETATM   14  C11 UNL     1      28.572   6.982  48.076  1.00  0.00     0.068 C 
HETATM   15  C12 UNL     1      28.883   8.328  48.454  1.00  0.00     0.129 C 
HETATM   16  C13 UNL     1      29.768   9.243  48.177  1.00  0.00     0.114 A 
HETATM   17  O1  UNL     1      29.549  10.314  49.017  1.00  0.00    -0.344 OA
HETATM   18  C14 UNL     1      30.266  11.465  49.222  1.00  0.00     0.203 A 
HETATM   19  O2  UNL     1      27.782   8.306  49.252  1.00  0.00    -0.344 OA
HETATM   20  C15 UNL     1      26.425   8.218  48.926  1.00  0.00     0.195 C 
HETATM   21  C16 UNL     1      26.186   6.861  48.303  1.00  0.00     0.149 C 
HETATM   22  N4  UNL     1      27.482   6.147  48.448  1.00  0.00    -0.376 N 
HETATM   23  H6  UNL     1      32.999   6.380  44.827  1.00  0.00     0.161 HD
ENDROOT
BRANCH  22  24
HETATM   24  C17 UNL     1      27.530   4.803  48.916  1.00  0.00     0.124 C 
BRANCH  24  25
HETATM   25  C18 UNL     1      26.254   4.089  49.140  1.00  0.00     0.039 C 
BRANCH  25  26
HETATM   26  C19 UNL     1      25.980   3.616  50.540  1.00  0.00     0.118 C 
BRANCH  26  27
HETATM   27  N5  UNL     1      24.551   3.529  50.741  1.00  0.00    -0.408 N 
HETATM   28  C20 UNL     1      23.852   4.342  49.814  1.00  0.00     0.143 C 
HETATM   29  C21 UNL     1      23.093   5.502  50.421  1.00  0.00     0.187 C 
HETATM   30  O3  UNL     1      23.586   5.813  51.693  1.00  0.00    -0.388 OA
HETATM   31  C22 UNL     1      23.376   4.751  52.548  1.00  0.00     0.187 C 
HETATM   32  C23 UNL     1      24.102   3.525  52.078  1.00  0.00     0.143 C 
ENDBRANCH  26  27
ENDBRANCH  25  26
ENDBRANCH  24  25
ENDBRANCH  22  24
TORSDOF 4
ENDMDL
MODEL 8
REMARK VINA RESULT:      -7.4     11.073     13.596
REMARK  4 active torsions:
REMARK  status: ('A' for Active; 'I' for Inactive)
REMARK    1  A    between atoms: N4_22  and  C17_23 
REMARK    2  A    between atoms: C17_23  and  C18_24 
REMARK    3  A    between atoms: C18_24  and  C19_25 
REMARK    4  A    between atoms: C19_25  and  N5_26 
ROOT
HETATM    1  C1  UNL     1      34.642   5.521  42.952  1.00  0.00     0.000 A 
HETATM    2  C2  UNL     1      34.321   4.730  43.956  1.00  0.00     0.012 A 
HETATM    3  C3  UNL     1      33.325   5.058  44.960  1.00  0.00    -0.002 A 
HETATM    4  C4  UNL     1      33.112   3.975  45.720  1.00  0.00     0.007 C 
HETATM    5  C5  UNL     1      32.335   3.436  46.851  1.00  0.00     0.149 C 
HETATM    6  N1  UNL     1      33.167   3.112  47.958  1.00  0.00    -0.371 N 
HETATM    7  C6  UNL     1      33.566   4.478  48.200  1.00  0.00     0.136 A 
HETATM    8  N2  UNL     1      34.861   4.478  48.493  1.00  0.00    -0.224 NA
HETATM    9  C7  UNL     1      35.582   5.569  48.790  1.00  0.00     0.234 A 
HETATM   10  N3  UNL     1      34.944   6.778  48.794  1.00  0.00    -0.253 NA
HETATM   11  C8  UNL     1      33.602   6.687  48.479  1.00  0.00     0.133 A 
HETATM   12  C9  UNL     1      32.760   5.587  48.152  1.00  0.00     0.029 A 
HETATM   13  C10 UNL     1      31.487   6.314  47.943  1.00  0.00     0.049 C 
HETATM   14  C11 UNL     1      31.039   6.951  46.818  1.00  0.00     0.068 C 
HETATM   15  C12 UNL     1      31.754   7.016  45.578  1.00  0.00     0.129 C 
HETATM   16  C13 UNL     1      32.615   6.304  44.906  1.00  0.00     0.114 A 
HETATM   17  O1  UNL     1      32.992   7.032  43.797  1.00  0.00    -0.344 OA
HETATM   18  C14 UNL     1      33.953   6.800  42.847  1.00  0.00     0.203 A 
HETATM   19  O2  UNL     1      31.103   8.182  45.321  1.00  0.00    -0.344 OA
HETATM   20  C15 UNL     1      29.748   8.436  45.089  1.00  0.00     0.195 C 
HETATM   21  C16 UNL     1      28.995   8.121  46.362  1.00  0.00     0.149 C 
HETATM   22  N4  UNL     1      30.053   7.820  47.362  1.00  0.00    -0.376 N 
HETATM   23  H6  UNL     1      33.492   2.304  48.524  1.00  0.00     0.161 HD
ENDROOT
BRANCH  22  24
HETATM   24  C17 UNL     1      30.008   8.384  48.669  1.00  0.00     0.124 C 
BRANCH  24  25
HETATM   25  C18 UNL     1      31.033   9.385  49.039  1.00  0.00     0.039 C 
BRANCH  25  26
HETATM   26  C19 UNL     1      30.544  10.635  49.715  1.00  0.00     0.118 C 
BRANCH  26  27
HETATM   27  N5  UNL     1      30.869  11.779  48.893  1.00  0.00    -0.408 N 
HETATM   28  C20 UNL     1      29.749  12.632  48.736  1.00  0.00     0.143 C 
HETATM   29  C21 UNL     1      29.213  12.738  47.325  1.00  0.00     0.187 C 
HETATM   30  O3  UNL     1      29.626  11.648  46.549  1.00  0.00    -0.388 OA
HETATM   31  C22 UNL     1      31.000  11.660  46.422  1.00  0.00     0.187 C 
HETATM   32  C23 UNL     1      31.670  11.532  47.759  1.00  0.00     0.143 C 
ENDBRANCH  26  27
ENDBRANCH  25  26
ENDBRANCH  24  25
ENDBRANCH  22  24
TORSDOF 4
ENDMDL
MODEL 9
REMARK VINA RESULT:      -7.3      5.847      8.557
REMARK  4 active torsions:
REMARK  status: ('A' for Active; 'I' for Inactive)
REMARK    1  A    between atoms: N4_22  and  C17_23 
REMARK    2  A    between atoms: C17_23  and  C18_24 
REMARK    3  A    between atoms: C18_24  and  C19_25 
REMARK    4  A    between atoms: C19_25  and  N5_26 
ROOT
HETATM    1  C1  UNL     1      22.294   6.091  45.452  1.00  0.00     0.000 A 
HETATM    2  C2  UNL     1      22.243   5.937  46.759  1.00  0.00     0.012 A 
HETATM    3  C3  UNL     1      23.099   6.645  47.693  1.00  0.00    -0.002 A 
HETATM    4  C4  UNL     1      22.668   6.402  48.938  1.00  0.00     0.007 C 
HETATM    5  C5  UNL     1      22.895   6.689  50.366  1.00  0.00     0.149 C 
HETATM    6  N1  UNL     1      23.281   5.524  51.086  1.00  0.00    -0.371 N 
HETATM    7  C6  UNL     1      24.529   5.364  50.377  1.00  0.00     0.136 A 
HETATM    8  N2  UNL     1      24.698   4.068  50.139  1.00  0.00    -0.224 NA
HETATM    9  C7  UNL     1      25.754   3.535  49.510  1.00  0.00     0.234 A 
HETATM   10  N3  UNL     1      26.737   4.380  49.076  1.00  0.00    -0.253 NA
HETATM   11  C8  UNL     1      26.481   5.706  49.365  1.00  0.00     0.133 A 
HETATM   12  C9  UNL     1      25.400   6.360  50.020  1.00  0.00     0.029 A 
HETATM   13  C10 UNL     1      25.869   7.761  49.916  1.00  0.00     0.049 C 
HETATM   14  C11 UNL     1      25.727   8.637  48.873  1.00  0.00     0.068 C 
HETATM   15  C12 UNL     1      25.050   8.341  47.646  1.00  0.00     0.129 C 
HETATM   16  C13 UNL     1      24.078   7.583  47.221  1.00  0.00     0.114 A 
HETATM   17  O1  UNL     1      24.017   7.701  45.849  1.00  0.00    -0.344 OA
HETATM   18  C14 UNL     1      23.270   7.030  44.916  1.00  0.00     0.203 A 
HETATM   19  O2  UNL     1      25.846   9.264  47.042  1.00  0.00    -0.344 OA
HETATM   20  C15 UNL     1      25.918  10.651  47.209  1.00  0.00     0.195 C 
HETATM   21  C16 UNL     1      26.411  10.922  48.613  1.00  0.00     0.149 C 
HETATM   22  N4  UNL     1      26.752   9.581  49.159  1.00  0.00    -0.376 N 
HETATM   23  H6  UNL     1      22.957   4.890  51.842  1.00  0.00     0.161 HD
ENDROOT
BRANCH  22  24
HETATM   24  C17 UNL     1      27.974   9.362  49.854  1.00  0.00     0.124 C 
BRANCH  24  25
HETATM   25  C18 UNL     1      29.221   9.245  49.067  1.00  0.00     0.039 C 
BRANCH  25  26
HETATM   26  C19 UNL     1      29.328   8.068  48.138  1.00  0.00     0.118 C 
BRANCH  26  27
HETATM   27  N5  UNL     1      30.712   7.665  48.037  1.00  0.00    -0.408 N 
HETATM   28  C20 UNL     1      30.865   6.575  47.145  1.00  0.00     0.143 C 
HETATM   29  C21 UNL     1      31.336   5.285  47.781  1.00  0.00     0.187 C 
HETATM   30  O3  UNL     1      31.096   5.289  49.160  1.00  0.00    -0.388 OA
HETATM   31  C22 UNL     1      31.837   6.286  49.760  1.00  0.00     0.187 C 
HETATM   32  C23 UNL     1      31.450   7.638  49.238  1.00  0.00     0.143 C 
ENDBRANCH  26  27
ENDBRANCH  25  26
ENDBRANCH  24  25
ENDBRANCH  22  24
TORSDOF 4
ENDMDL
