MODEL 1
REMARK VINA RESULT:      -8.9      0.000      0.000
REMARK  4 active torsions:
REMARK  status: ('A' for Active; 'I' for Inactive)
REMARK    1  A    between atoms: C2_2  and  C3_3 
REMARK    2  A    between atoms: C3_3  and  C4_4 
REMARK    3  A    between atoms: C4_4  and  C5_5 
REMARK    4  A    between atoms: C12_14  and  O1_15 
ROOT
HETATM    1  C5  UNL     1      25.027  -0.336  54.300  1.00  0.00    -0.023 A 
HETATM    2  C6  UNL     1      24.202   0.077  53.274  1.00  0.00     0.027 A 
HETATM    3  C7  UNL     1      22.850  -0.188  53.267  1.00  0.00     0.039 A 
HETATM    4  C8  UNL     1      22.047   0.236  52.233  1.00  0.00     0.142 A 
HETATM    5  N1  UNL     1      20.740  -0.064  52.310  1.00  0.00    -0.211 NA
HETATM    6  C9  UNL     1      20.251  -0.751  53.357  1.00  0.00     0.153 A 
HETATM    7  N2  UNL     1      21.069  -1.145  54.343  1.00  0.00    -0.228 NA
HETATM    8  C10 UNL     1      22.392  -0.893  54.359  1.00  0.00     0.076 A 
HETATM    9  C11 UNL     1      23.136  -1.336  55.409  1.00  0.00     0.069 A 
HETATM   10  C12 UNL     1      24.501  -1.036  55.358  1.00  0.00     0.074 A 
HETATM   11  C13 UNL     1      18.817  -0.967  53.259  1.00  0.00     0.076 A 
HETATM   12  C14 UNL     1      18.013  -0.551  52.327  1.00  0.00     0.037 A 
HETATM   13 CL1  UNL     1      16.406  -1.118  52.752  1.00  0.00    -0.084 Cl
HETATM   14  C15 UNL     1      18.353   0.220  51.145  1.00  0.00     0.024 A 
HETATM   15  C16 UNL     1      18.961   0.904  50.187  1.00  0.00     0.003 A 
HETATM   16  C17 UNL     1      20.356   1.280  49.964  1.00  0.00     0.017 A 
HETATM   17  C18 UNL     1      21.640   1.413  50.113  1.00  0.00     0.090 A 
HETATM   18  N3  UNL     1      22.544   0.958  51.119  1.00  0.00    -0.350 N 
HETATM   19  H14 UNL     1      23.537   1.132  51.064  1.00  0.00     0.166 HD
ENDROOT
BRANCH   1  20
HETATM   20  C4  UNL     1      26.495  -0.033  54.279  1.00  0.00     0.059 C 
BRANCH  20  21
HETATM   21  C3  UNL     1      27.165  -0.808  53.224  1.00  0.00     0.071 C 
BRANCH  21  22
HETATM   22  C2  UNL     1      28.474  -1.007  53.283  1.00  0.00    -0.176 C 
HETATM   23  C1  UNL     1      29.773  -1.009  53.538  1.00  0.00     0.091 C 
ENDBRANCH  21  22
ENDBRANCH  20  21
ENDBRANCH   1  20
BRANCH  10  24
HETATM   24  O1  UNL     1      25.314  -1.457  56.394  1.00  0.00    -0.360 OA
HETATM   25  H8  UNL     1      24.926  -1.822  57.252  1.00  0.00     0.217 HD
ENDBRANCH  10  24
TORSDOF 4
ENDMDL
MODEL 2
REMARK VINA RESULT:      -8.7      2.330      3.978
REMARK  4 active torsions:
REMARK  status: ('A' for Active; 'I' for Inactive)
REMARK    1  A    between atoms: C2_2  and  C3_3 
REMARK    2  A    between atoms: C3_3  and  C4_4 
REMARK    3  A    between atoms: C4_4  and  C5_5 
REMARK    4  A    between atoms: C12_14  and  O1_15 
ROOT
HETATM    1  C5  UNL     1      27.588   0.774  54.012  1.00  0.00    -0.023 A 
HETATM    2  C6  UNL     1      26.348   0.216  54.248  1.00  0.00     0.027 A 
HETATM    3  C7  UNL     1      25.220   0.615  53.565  1.00  0.00     0.039 A 
HETATM    4  C8  UNL     1      23.996   0.043  53.817  1.00  0.00     0.142 A 
HETATM    5  N1  UNL     1      22.950   0.492  53.102  1.00  0.00    -0.211 NA
HETATM    6  C9  UNL     1      23.109   1.461  52.184  1.00  0.00     0.153 A 
HETATM    7  N2  UNL     1      24.321   1.991  51.969  1.00  0.00    -0.228 NA
HETATM    8  C10 UNL     1      25.429   1.610  52.633  1.00  0.00     0.076 A 
HETATM    9  C11 UNL     1      26.615   2.211  52.340  1.00  0.00     0.069 A 
HETATM   10  C12 UNL     1      27.721   1.762  53.067  1.00  0.00     0.074 A 
HETATM   11  C13 UNL     1      21.865   1.800  51.513  1.00  0.00     0.076 A 
HETATM   12  C14 UNL     1      20.696   1.260  51.687  1.00  0.00     0.037 A 
HETATM   13 CL1  UNL     1      19.589   2.083  50.599  1.00  0.00    -0.084 Cl
HETATM   14  C15 UNL     1      20.343   0.193  52.607  1.00  0.00     0.024 A 
HETATM   15  C16 UNL     1      20.332  -0.764  53.522  1.00  0.00     0.003 A 
HETATM   16  C17 UNL     1      21.370  -1.331  54.382  1.00  0.00     0.017 A 
HETATM   17  C18 UNL     1      22.516  -1.561  54.949  1.00  0.00     0.090 A 
HETATM   18  N3  UNL     1      23.806  -0.977  54.784  1.00  0.00    -0.350 N 
HETATM   19  H14 UNL     1      24.600  -1.265  55.338  1.00  0.00     0.166 HD
ENDROOT
BRANCH   1  20
HETATM   20  C4  UNL     1      28.797   0.318  54.772  1.00  0.00     0.059 C 
BRANCH  20  21
HETATM   21  C3  UNL     1      29.693  -0.453  53.897  1.00  0.00     0.071 C 
BRANCH  21  22
HETATM   22  C2  UNL     1      29.300  -1.626  53.421  1.00  0.00    -0.176 C 
HETATM   23  C1  UNL     1      28.653  -2.706  53.014  1.00  0.00     0.091 C 
ENDBRANCH  21  22
ENDBRANCH  20  21
ENDBRANCH   1  20
BRANCH  10  24
HETATM   24  O1  UNL     1      28.957   2.331  52.818  1.00  0.00    -0.360 OA
HETATM   25  H8  UNL     1      29.806   1.787  52.868  1.00  0.00     0.217 HD
ENDBRANCH  10  24
TORSDOF 4
ENDMDL
MODEL 3
REMARK VINA RESULT:      -8.2      4.752      6.917
REMARK  4 active torsions:
REMARK  status: ('A' for Active; 'I' for Inactive)
REMARK    1  A    between atoms: C2_2  and  C3_3 
REMARK    2  A    between atoms: C3_3  and  C4_4 
REMARK    3  A    between atoms: C4_4  and  C5_5 
REMARK    4  A    between atoms: C12_14  and  O1_15 
ROOT
HETATM    1  C5  UNL     1      24.398   0.220  53.149  1.00  0.00    -0.023 A 
HETATM    2  C6  UNL     1      23.934   1.339  52.490  1.00  0.00     0.027 A 
HETATM    3  C7  UNL     1      24.754   2.128  51.713  1.00  0.00     0.039 A 
HETATM    4  C8  UNL     1      24.267   3.238  51.064  1.00  0.00     0.142 A 
HETATM    5  N1  UNL     1      25.139   3.948  50.327  1.00  0.00    -0.211 NA
HETATM    6  C9  UNL     1      26.428   3.578  50.239  1.00  0.00     0.153 A 
HETATM    7  N2  UNL     1      26.861   2.488  50.888  1.00  0.00    -0.228 NA
HETATM    8  C10 UNL     1      26.067   1.712  51.651  1.00  0.00     0.076 A 
HETATM    9  C11 UNL     1      26.604   0.624  52.269  1.00  0.00     0.069 A 
HETATM   10  C12 UNL     1      25.721  -0.135  53.041  1.00  0.00     0.074 A 
HETATM   11  C13 UNL     1      27.204   4.467  49.390  1.00  0.00     0.076 A 
HETATM   12  C14 UNL     1      26.781   5.499  48.725  1.00  0.00     0.037 A 
HETATM   13 CL1  UNL     1      28.173   6.169  47.887  1.00  0.00    -0.084 Cl
HETATM   14  C15 UNL     1      25.429   6.028  48.678  1.00  0.00     0.024 A 
HETATM   15  C16 UNL     1      24.136   6.266  48.835  1.00  0.00     0.003 A 
HETATM   16  C17 UNL     1      23.089   5.604  49.611  1.00  0.00     0.017 A 
HETATM   17  C18 UNL     1      22.470   4.778  50.399  1.00  0.00     0.090 A 
HETATM   18  N3  UNL     1      22.912   3.647  51.147  1.00  0.00    -0.350 N 
HETATM   19  H14 UNL     1      22.289   3.121  51.743  1.00  0.00     0.166 HD
ENDROOT
BRANCH   1  20
HETATM   20  C4  UNL     1      23.479  -0.619  53.987  1.00  0.00     0.059 C 
BRANCH  20  21
HETATM   21  C3  UNL     1      22.363  -1.126  53.174  1.00  0.00     0.071 C 
BRANCH  21  22
HETATM   22  C2  UNL     1      21.126  -0.733  53.438  1.00  0.00    -0.176 C 
HETATM   23  C1  UNL     1      19.818  -0.574  53.569  1.00  0.00     0.091 C 
ENDBRANCH  21  22
ENDBRANCH  20  21
ENDBRANCH   1  20
BRANCH  10  24
HETATM   24  O1  UNL     1      26.202  -1.255  53.696  1.00  0.00    -0.360 OA
HETATM   25  H8  UNL     1      25.823  -1.547  54.585  1.00  0.00     0.217 HD
ENDBRANCH  10  24
TORSDOF 4
ENDMDL
MODEL 4
REMARK VINA RESULT:      -8.1      5.009      6.921
REMARK  4 active torsions:
REMARK  status: ('A' for Active; 'I' for Inactive)
REMARK    1  A    between atoms: C2_2  and  C3_3 
REMARK    2  A    between atoms: C3_3  and  C4_4 
REMARK    3  A    between atoms: C4_4  and  C5_5 
REMARK    4  A    between atoms: C12_14  and  O1_15 
ROOT
HETATM    1  C5  UNL     1      25.363   4.821  49.265  1.00  0.00    -0.023 A 
HETATM    2  C6  UNL     1      25.868   4.015  50.264  1.00  0.00     0.027 A 
HETATM    3  C7  UNL     1      25.100   3.064  50.900  1.00  0.00     0.039 A 
HETATM    4  C8  UNL     1      25.628   2.271  51.892  1.00  0.00     0.142 A 
HETATM    5  N1  UNL     1      24.806   1.369  52.457  1.00  0.00    -0.211 NA
HETATM    6  C9  UNL     1      23.527   1.259  52.059  1.00  0.00     0.153 A 
HETATM    7  N2  UNL     1      23.054   2.053  51.088  1.00  0.00    -0.228 NA
HETATM    8  C10 UNL     1      23.796   2.986  50.461  1.00  0.00     0.076 A 
HETATM    9  C11 UNL     1      23.221   3.741  49.485  1.00  0.00     0.069 A 
HETATM   10  C12 UNL     1      24.052   4.687  48.878  1.00  0.00     0.074 A 
HETATM   11  C13 UNL     1      22.807   0.223  52.782  1.00  0.00     0.076 A 
HETATM   12  C14 UNL     1      23.272  -0.577  53.695  1.00  0.00     0.037 A 
HETATM   13 CL1  UNL     1      21.939  -1.605  54.195  1.00  0.00    -0.084 Cl
HETATM   14  C15 UNL     1      24.623  -0.622  54.227  1.00  0.00     0.024 A 
HETATM   15  C16 UNL     1      25.902  -0.422  54.506  1.00  0.00     0.003 A 
HETATM   16  C17 UNL     1      26.896   0.522  53.997  1.00  0.00     0.017 A 
HETATM   17  C18 UNL     1      27.462   1.478  53.324  1.00  0.00     0.090 A 
HETATM   18  N3  UNL     1      26.972   2.374  52.328  1.00  0.00    -0.350 N 
HETATM   19  H14 UNL     1      27.555   3.090  51.919  1.00  0.00     0.166 HD
ENDROOT
BRANCH   1  20
HETATM   20  C4  UNL     1      26.225   5.847  48.591  1.00  0.00     0.059 C 
BRANCH  20  21
HETATM   21  C3  UNL     1      27.616   5.377  48.512  1.00  0.00     0.071 C 
BRANCH  21  22
HETATM   22  C2  UNL     1      28.567   6.200  48.096  1.00  0.00    -0.176 C 
HETATM   23  C1  UNL     1      29.435   6.943  47.427  1.00  0.00     0.091 C 
ENDBRANCH  21  22
ENDBRANCH  20  21
ENDBRANCH   1  20
BRANCH  10  24
HETATM   24  O1  UNL     1      23.530   5.487  47.878  1.00  0.00    -0.360 OA
HETATM   25  H8  UNL     1      24.130   5.983  47.235  1.00  0.00     0.217 HD
ENDBRANCH  10  24
TORSDOF 4
ENDMDL
MODEL 5
REMARK VINA RESULT:      -7.9      3.491      7.396
REMARK  4 active torsions:
REMARK  status: ('A' for Active; 'I' for Inactive)
REMARK    1  A    between atoms: C2_2  and  C3_3 
REMARK    2  A    between atoms: C3_3  and  C4_4 
REMARK    3  A    between atoms: C4_4  and  C5_5 
REMARK    4  A    between atoms: C12_14  and  O1_15 
ROOT
HETATM    1  C5  UNL     1      18.914  -0.517  52.428  1.00  0.00    -0.023 A 
HETATM    2  C6  UNL     1      20.068  -0.739  53.150  1.00  0.00     0.027 A 
HETATM    3  C7  UNL     1      21.266  -0.143  52.822  1.00  0.00     0.039 A 
HETATM    4  C8  UNL     1      22.403  -0.379  53.558  1.00  0.00     0.142 A 
HETATM    5  N1  UNL     1      23.527   0.246  53.167  1.00  0.00    -0.211 NA
HETATM    6  C9  UNL     1      23.525   1.063  52.100  1.00  0.00     0.153 A 
HETATM    7  N2  UNL     1      22.394   1.264  51.410  1.00  0.00    -0.228 NA
HETATM    8  C10 UNL     1      21.218   0.686  51.721  1.00  0.00     0.076 A 
HETATM    9  C11 UNL     1      20.125   0.957  50.957  1.00  0.00     0.069 A 
HETATM   10  C12 UNL     1      18.940   0.323  51.341  1.00  0.00     0.074 A 
HETATM   11  C13 UNL     1      24.831   1.648  51.845  1.00  0.00     0.076 A 
HETATM   12  C14 UNL     1      25.921   1.488  52.535  1.00  0.00     0.037 A 
HETATM   13 CL1  UNL     1      27.166   2.442  51.745  1.00  0.00    -0.084 Cl
HETATM   14  C15 UNL     1      26.104   0.674  53.723  1.00  0.00     0.024 A 
HETATM   15  C16 UNL     1      25.960  -0.136  54.761  1.00  0.00     0.003 A 
HETATM   16  C17 UNL     1      24.823  -0.892  55.284  1.00  0.00     0.017 A 
HETATM   17  C18 UNL     1      23.633  -1.390  55.432  1.00  0.00     0.090 A 
HETATM   18  N3  UNL     1      22.427  -1.240  54.685  1.00  0.00    -0.350 N 
HETATM   19  H14 UNL     1      21.580  -1.731  54.930  1.00  0.00     0.166 HD
ENDROOT
BRANCH   1  20
HETATM   20  C4  UNL     1      17.624  -1.181  52.811  1.00  0.00     0.059 C 
BRANCH  20  21
HETATM   21  C3  UNL     1      17.861  -2.211  53.832  1.00  0.00     0.071 C 
BRANCH  21  22
HETATM   22  C2  UNL     1      17.351  -3.424  53.674  1.00  0.00    -0.176 C 
HETATM   23  C1  UNL     1      17.037  -4.660  53.320  1.00  0.00     0.091 C 
ENDBRANCH  21  22
ENDBRANCH  20  21
ENDBRANCH   1  20
BRANCH  10  24
HETATM   24  O1  UNL     1      17.792   0.556  50.607  1.00  0.00    -0.360 OA
HETATM   25  H8  UNL     1      16.875   0.456  51.018  1.00  0.00     0.217 HD
ENDBRANCH  10  24
TORSDOF 4
ENDMDL
MODEL 6
REMARK VINA RESULT:      -7.8      4.248      5.596
REMARK  4 active torsions:
REMARK  status: ('A' for Active; 'I' for Inactive)
REMARK    1  A    between atoms: C2_2  and  C3_3 
REMARK    2  A    between atoms: C3_3  and  C4_4 
REMARK    3  A    between atoms: C4_4  and  C5_5 
REMARK    4  A    between atoms: C12_14  and  O1_15 
ROOT
HETATM    1  C5  UNL     1      25.535   0.324  52.680  1.00  0.00    -0.023 A 
HETATM    2  C6  UNL     1      25.902   1.333  51.814  1.00  0.00     0.027 A 
HETATM    3  C7  UNL     1      25.028   2.326  51.429  1.00  0.00     0.039 A 
HETATM    4  C8  UNL     1      25.419   3.322  50.565  1.00  0.00     0.142 A 
HETATM    5  N1  UNL     1      24.501   4.251  50.246  1.00  0.00    -0.211 NA
HETATM    6  C9  UNL     1      23.259   4.195  50.756  1.00  0.00     0.153 A 
HETATM    7  N2  UNL     1      22.920   3.206  51.595  1.00  0.00    -0.228 NA
HETATM    8  C10 UNL     1      23.766   2.230  51.976  1.00  0.00     0.076 A 
HETATM    9  C11 UNL     1      23.325   1.270  52.834  1.00  0.00     0.069 A 
HETATM   10  C12 UNL     1      24.258   0.291  53.186  1.00  0.00     0.074 A 
HETATM   11  C13 UNL     1      22.421   5.291  50.298  1.00  0.00     0.076 A 
HETATM   12  C14 UNL     1      22.756   6.275  49.519  1.00  0.00     0.037 A 
HETATM   13 CL1  UNL     1      21.328   7.280  49.326  1.00  0.00    -0.084 Cl
HETATM   14  C15 UNL     1      24.048   6.513  48.901  1.00  0.00     0.024 A 
HETATM   15  C16 UNL     1      25.307   6.459  48.490  1.00  0.00     0.003 A 
HETATM   16  C17 UNL     1      26.393   5.511  48.733  1.00  0.00     0.017 A 
HETATM   17  C18 UNL     1      27.070   4.492  49.169  1.00  0.00     0.090 A 
HETATM   18  N3  UNL     1      26.723   3.396  50.014  1.00  0.00    -0.350 N 
HETATM   19  H14 UNL     1      27.379   2.662  50.235  1.00  0.00     0.166 HD
ENDROOT
BRANCH   1  20
HETATM   20  C4  UNL     1      26.510  -0.743  53.080  1.00  0.00     0.059 C 
BRANCH  20  21
HETATM   21  C3  UNL     1      27.522  -0.196  53.996  1.00  0.00     0.071 C 
BRANCH  21  22
HETATM   22  C2  UNL     1      28.794  -0.541  53.853  1.00  0.00    -0.176 C 
HETATM   23  C1  UNL     1      30.006  -0.871  53.438  1.00  0.00     0.091 C 
ENDBRANCH  21  22
ENDBRANCH  20  21
ENDBRANCH   1  20
BRANCH  10  24
HETATM   24  O1  UNL     1      23.874  -0.713  54.056  1.00  0.00    -0.360 OA
HETATM   25  H8  UNL     1      24.061  -1.684  53.854  1.00  0.00     0.217 HD
ENDBRANCH  10  24
TORSDOF 4
ENDMDL
MODEL 7
REMARK VINA RESULT:      -7.8      4.066      7.702
REMARK  4 active torsions:
REMARK  status: ('A' for Active; 'I' for Inactive)
REMARK    1  A    between atoms: C2_2  and  C3_3 
REMARK    2  A    between atoms: C3_3  and  C4_4 
REMARK    3  A    between atoms: C4_4  and  C5_5 
REMARK    4  A    between atoms: C12_14  and  O1_15 
ROOT
HETATM    1  C5  UNL     1      19.451   0.671  50.778  1.00  0.00    -0.023 A 
HETATM    2  C6  UNL     1      20.702   0.600  51.356  1.00  0.00     0.027 A 
HETATM    3  C7  UNL     1      21.778   1.309  50.868  1.00  0.00     0.039 A 
HETATM    4  C8  UNL     1      23.015   1.222  51.464  1.00  0.00     0.142 A 
HETATM    5  N1  UNL     1      24.008   1.949  50.922  1.00  0.00    -0.211 NA
HETATM    6  C9  UNL     1      23.787   2.723  49.845  1.00  0.00     0.153 A 
HETATM    7  N2  UNL     1      22.564   2.778  49.297  1.00  0.00    -0.228 NA
HETATM    8  C10 UNL     1      21.507   2.088  49.764  1.00  0.00     0.076 A 
HETATM    9  C11 UNL     1      20.306   2.214  49.135  1.00  0.00     0.069 A 
HETATM   10  C12 UNL     1      19.253   1.470  49.677  1.00  0.00     0.074 A 
HETATM   11  C13 UNL     1      24.980   3.435  49.418  1.00  0.00     0.076 A 
HETATM   12  C14 UNL     1      26.155   3.418  49.971  1.00  0.00     0.037 A 
HETATM   13 CL1  UNL     1      27.183   4.471  49.011  1.00  0.00    -0.084 Cl
HETATM   14  C15 UNL     1      26.569   2.670  51.145  1.00  0.00     0.024 A 
HETATM   15  C16 UNL     1      26.643   1.887  52.211  1.00  0.00     0.003 A 
HETATM   16  C17 UNL     1      25.668   1.033  52.887  1.00  0.00     0.017 A 
HETATM   17  C18 UNL     1      24.566   0.417  53.193  1.00  0.00     0.090 A 
HETATM   18  N3  UNL     1      23.270   0.410  52.597  1.00  0.00    -0.350 N 
HETATM   19  H14 UNL     1      22.518  -0.160  52.957  1.00  0.00     0.166 HD
ENDROOT
BRANCH   1  20
HETATM   20  C4  UNL     1      18.299  -0.112  51.332  1.00  0.00     0.059 C 
BRANCH  20  21
HETATM   21  C3  UNL     1      18.567  -0.504  52.724  1.00  0.00     0.071 C 
BRANCH  21  22
HETATM   22  C2  UNL     1      18.060  -1.632  53.199  1.00  0.00    -0.176 C 
HETATM   23  C1  UNL     1      17.812  -2.801  53.768  1.00  0.00     0.091 C 
ENDBRANCH  21  22
ENDBRANCH  20  21
ENDBRANCH   1  20
BRANCH  10  24
HETATM   24  O1  UNL     1      18.006   1.553  49.086  1.00  0.00    -0.360 OA
HETATM   25  H8  UNL     1      17.793   2.269  48.407  1.00  0.00     0.217 HD
ENDBRANCH  10  24
TORSDOF 4
ENDMDL
MODEL 8
REMARK VINA RESULT:      -7.7      5.964      8.003
REMARK  4 active torsions:
REMARK  status: ('A' for Active; 'I' for Inactive)
REMARK    1  A    between atoms: C2_2  and  C3_3 
REMARK    2  A    between atoms: C3_3  and  C4_4 
REMARK    3  A    between atoms: C4_4  and  C5_5 
REMARK    4  A    between atoms: C12_14  and  O1_15 
ROOT
HETATM    1  C5  UNL     1      25.478   6.162  48.838  1.00  0.00    -0.023 A 
HETATM    2  C6  UNL     1      24.699   5.350  49.637  1.00  0.00     0.027 A 
HETATM    3  C7  UNL     1      25.176   4.176  50.178  1.00  0.00     0.039 A 
HETATM    4  C8  UNL     1      24.381   3.384  50.973  1.00  0.00     0.142 A 
HETATM    5  N1  UNL     1      24.930   2.258  51.460  1.00  0.00    -0.211 NA
HETATM    6  C9  UNL     1      26.202   1.932  51.173  1.00  0.00     0.153 A 
HETATM    7  N2  UNL     1      26.942   2.733  50.394  1.00  0.00    -0.228 NA
HETATM    8  C10 UNL     1      26.485   3.881  49.859  1.00  0.00     0.076 A 
HETATM    9  C11 UNL     1      27.318   4.625  49.080  1.00  0.00     0.069 A 
HETATM   10  C12 UNL     1      26.775   5.804  48.561  1.00  0.00     0.074 A 
HETATM   11  C13 UNL     1      26.611   0.685  51.800  1.00  0.00     0.076 A 
HETATM   12  C14 UNL     1      25.911  -0.072  52.590  1.00  0.00     0.037 A 
HETATM   13 CL1  UNL     1      26.935  -1.432  53.027  1.00  0.00    -0.084 Cl
HETATM   14  C15 UNL     1      24.542   0.132  53.029  1.00  0.00     0.024 A 
HETATM   15  C16 UNL     1      23.316   0.582  53.247  1.00  0.00     0.003 A 
HETATM   16  C17 UNL     1      22.588   1.758  52.773  1.00  0.00     0.017 A 
HETATM   17  C18 UNL     1      22.293   2.866  52.162  1.00  0.00     0.090 A 
HETATM   18  N3  UNL     1      23.037   3.709  51.284  1.00  0.00    -0.350 N 
HETATM   19  H14 UNL     1      22.635   4.538  50.870  1.00  0.00     0.166 HD
ENDROOT
BRANCH   1  20
HETATM   20  C4  UNL     1      24.929   7.434  48.263  1.00  0.00     0.059 C 
BRANCH  20  21
HETATM   21  C3  UNL     1      24.825   8.465  49.306  1.00  0.00     0.071 C 
BRANCH  21  22
HETATM   22  C2  UNL     1      25.925   8.951  49.864  1.00  0.00    -0.176 C 
HETATM   23  C1  UNL     1      27.131   9.189  50.355  1.00  0.00     0.091 C 
ENDBRANCH  21  22
ENDBRANCH  20  21
ENDBRANCH   1  20
BRANCH  10  24
HETATM   24  O1  UNL     1      27.569   6.607  47.762  1.00  0.00    -0.360 OA
HETATM   25  H8  UNL     1      27.503   7.614  47.799  1.00  0.00     0.217 HD
ENDBRANCH  10  24
TORSDOF 4
ENDMDL
MODEL 9
REMARK VINA RESULT:      -7.5      3.663      7.542
REMARK  4 active torsions:
REMARK  status: ('A' for Active; 'I' for Inactive)
REMARK    1  A    between atoms: C2_2  and  C3_3 
REMARK    2  A    between atoms: C3_3  and  C4_4 
REMARK    3  A    between atoms: C4_4  and  C5_5 
REMARK    4  A    between atoms: C12_14  and  O1_15 
ROOT
HETATM    1  C5  UNL     1      20.224   0.688  50.778  1.00  0.00    -0.023 A 
HETATM    2  C6  UNL     1      21.027   0.213  51.794  1.00  0.00     0.027 A 
HETATM    3  C7  UNL     1      22.318   0.657  51.980  1.00  0.00     0.039 A 
HETATM    4  C8  UNL     1      23.098   0.169  53.001  1.00  0.00     0.142 A 
HETATM    5  N1  UNL     1      24.345   0.660  53.108  1.00  0.00    -0.211 NA
HETATM    6  C9  UNL     1      24.796   1.588  52.246  1.00  0.00     0.153 A 
HETATM    7  N2  UNL     1      24.001   2.036  51.264  1.00  0.00    -0.228 NA
HETATM    8  C10 UNL     1      22.739   1.607  51.074  1.00  0.00     0.076 A 
HETATM    9  C11 UNL     1      22.012   2.127  50.047  1.00  0.00     0.069 A 
HETATM   10  C12 UNL     1      20.710   1.636  49.912  1.00  0.00     0.074 A 
HETATM   11  C13 UNL     1      26.161   1.997  52.534  1.00  0.00     0.076 A 
HETATM   12  C14 UNL     1      26.920   1.596  53.509  1.00  0.00     0.037 A 
HETATM   13 CL1  UNL     1      28.453   2.439  53.338  1.00  0.00    -0.084 Cl
HETATM   14  C15 UNL     1      26.597   0.629  54.543  1.00  0.00     0.024 A 
HETATM   15  C16 UNL     1      26.021  -0.266  55.331  1.00  0.00     0.003 A 
HETATM   16  C17 UNL     1      24.703  -0.899  55.321  1.00  0.00     0.017 A 
HETATM   17  C18 UNL     1      23.492  -1.227  54.986  1.00  0.00     0.090 A 
HETATM   18  N3  UNL     1      22.642  -0.812  53.918  1.00  0.00    -0.350 N 
HETATM   19  H14 UNL     1      21.718  -1.196  53.789  1.00  0.00     0.166 HD
ENDROOT
BRANCH   1  20
HETATM   20  C4  UNL     1      18.822   0.185  50.603  1.00  0.00     0.059 C 
BRANCH  20  21
HETATM   21  C3  UNL     1      18.082   0.274  51.871  1.00  0.00     0.071 C 
BRANCH  21  22
HETATM   22  C2  UNL     1      17.826  -0.826  52.563  1.00  0.00    -0.176 C 
HETATM   23  C1  UNL     1      17.841  -1.912  53.320  1.00  0.00     0.091 C 
ENDBRANCH  21  22
ENDBRANCH  20  21
ENDBRANCH   1  20
BRANCH  10  24
HETATM   24  O1  UNL     1      19.918   2.124  48.888  1.00  0.00    -0.360 OA
HETATM   25  H8  UNL     1      20.322   2.479  48.034  1.00  0.00     0.217 HD
ENDBRANCH  10  24
TORSDOF 4
ENDMDL
