MODEL 1
REMARK VINA RESULT:      -8.3      0.000      0.000
REMARK  3 active torsions:
REMARK  status: ('A' for Active; 'I' for Inactive)
REMARK    1  A    between atoms: N2_5  and  C4_6 
REMARK    2  A    between atoms: C7_9  and  C8_10 
REMARK    3  A    between atoms: C8_10  and  C9_12 
ROOT
HETATM    1  C8  UNL     1      27.318   2.081  53.094  1.00  0.00     0.173 C 
HETATM    2  O1  UNL     1      28.291   2.476  52.362  1.00  0.00    -0.291 OA
ENDROOT
BRANCH   1   3
HETATM    3  C7  UNL     1      25.953   2.289  52.635  1.00  0.00     0.011 A 
HETATM    4  C6  UNL     1      25.451   1.931  51.402  1.00  0.00     0.017 A 
HETATM    5  C5  UNL     1      24.148   2.140  51.001  1.00  0.00     0.030 A 
HETATM    6  C4  UNL     1      23.296   2.745  51.896  1.00  0.00     0.030 A 
HETATM    7  C18 UNL     1      23.724   3.130  53.148  1.00  0.00     0.030 A 
HETATM    8  C17 UNL     1      25.040   2.889  53.477  1.00  0.00     0.017 A 
BRANCH   6   9
HETATM    9  N2  UNL     1      21.959   2.948  51.459  1.00  0.00    -0.378 N 
HETATM   10  C3  UNL     1      21.475   4.295  51.227  1.00  0.00     0.153 C 
HETATM   11  C2  UNL     1      20.041   4.291  50.806  1.00  0.00     0.291 C 
HETATM   12  N1  UNL     1      19.238   3.570  51.764  1.00  0.00     0.087 N 
HETATM   13  C1  UNL     1      17.883   3.401  51.272  1.00  0.00     0.310 C 
HETATM   14  C20 UNL     1      19.761   2.276  52.098  1.00  0.00     0.291 C 
HETATM   15  C19 UNL     1      20.959   1.933  51.201  1.00  0.00     0.153 C 
ENDBRANCH   6   9
ENDBRANCH   1   3
BRANCH   1  16
HETATM   16  C9  UNL     1      27.723   1.449  54.343  1.00  0.00     0.164 C 
HETATM   17  C10 UNL     1      29.159   1.740  54.604  1.00  0.00     0.234 C 
HETATM   18  O2  UNL     1      29.896   2.422  55.385  1.00  0.00    -0.272 OA
HETATM   19  N3  UNL     1      29.970   1.006  53.661  1.00  0.00    -0.336 N 
HETATM   20  C11 UNL     1      29.476  -0.241  53.120  1.00  0.00     0.096 C 
HETATM   21  H11 UNL     1      30.924   1.239  53.279  1.00  0.00     0.168 HD
HETATM   22  C12 UNL     1      28.278  -0.753  53.457  1.00  0.00    -0.038 C 
HETATM   23  C13 UNL     1      27.831  -2.042  52.862  1.00  0.00     0.155 C 
HETATM   24  C16 UNL     1      27.419  -0.014  54.429  1.00  0.00     0.062 C 
HETATM   25  N4  UNL     1      26.465  -1.838  52.422  1.00  0.00    -0.395 N 
HETATM   26  C14 UNL     1      25.535  -1.188  53.250  1.00  0.00     0.080 C 
HETATM   27  H15 UNL     1      26.148  -2.179  51.465  1.00  0.00     0.159 HD
HETATM   28  C15 UNL     1      26.027  -0.358  54.159  1.00  0.00     0.000 C 
ENDBRANCH   1  16
TORSDOF 3
ENDMDL
MODEL 2
REMARK VINA RESULT:      -8.3      2.943      4.162
REMARK  3 active torsions:
REMARK  status: ('A' for Active; 'I' for Inactive)
REMARK    1  A    between atoms: N2_5  and  C4_6 
REMARK    2  A    between atoms: C7_9  and  C8_10 
REMARK    3  A    between atoms: C8_10  and  C9_12 
ROOT
HETATM    1  C8  UNL     1      25.598  -0.711  53.657  1.00  0.00     0.173 C 
HETATM    2  O1  UNL     1      26.129  -0.716  54.822  1.00  0.00    -0.291 OA
ENDROOT
BRANCH   1   3
HETATM    3  C7  UNL     1      24.150  -0.630  53.536  1.00  0.00     0.011 A 
HETATM    4  C6  UNL     1      23.234  -1.100  54.453  1.00  0.00     0.017 A 
HETATM    5  C5  UNL     1      21.867  -1.003  54.307  1.00  0.00     0.030 A 
HETATM    6  C4  UNL     1      21.390  -0.395  53.169  1.00  0.00     0.030 A 
HETATM    7  C18 UNL     1      22.243   0.100  52.207  1.00  0.00     0.030 A 
HETATM    8  C17 UNL     1      23.597  -0.034  52.423  1.00  0.00     0.017 A 
BRANCH   6   9
HETATM    9  N2  UNL     1      19.976  -0.307  53.042  1.00  0.00    -0.378 N 
HETATM   10  C3  UNL     1      19.139  -1.356  53.589  1.00  0.00     0.153 C 
HETATM   11  C2  UNL     1      17.692  -1.090  53.322  1.00  0.00     0.291 C 
HETATM   12  N1  UNL     1      17.471  -0.881  51.912  1.00  0.00     0.087 N 
HETATM   13  C1  UNL     1      16.111  -0.440  51.666  1.00  0.00     0.310 C 
HETATM   14  C20 UNL     1      18.368   0.071  51.321  1.00  0.00     0.291 C 
HETATM   15  C19 UNL     1      19.219   0.750  52.404  1.00  0.00     0.153 C 
ENDBRANCH   6   9
ENDBRANCH   1   3
BRANCH   1  16
HETATM   16  C9  UNL     1      26.554  -0.791  52.560  1.00  0.00     0.164 C 
HETATM   17  C10 UNL     1      27.479  -1.933  52.789  1.00  0.00     0.234 C 
HETATM   18  O2  UNL     1      27.740  -3.091  52.332  1.00  0.00    -0.272 OA
HETATM   19  N3  UNL     1      28.362  -1.614  53.886  1.00  0.00    -0.336 N 
HETATM   20  C11 UNL     1      28.692  -0.232  54.154  1.00  0.00     0.096 C 
HETATM   21  H11 UNL     1      28.840  -2.262  54.567  1.00  0.00     0.168 HD
HETATM   22  C12 UNL     1      28.205   0.784  53.419  1.00  0.00    -0.038 C 
HETATM   23  C13 UNL     1      28.586   2.185  53.750  1.00  0.00     0.155 C 
HETATM   24  C16 UNL     1      27.288   0.483  52.279  1.00  0.00     0.062 C 
HETATM   25  N4  UNL     1      27.358   2.955  53.747  1.00  0.00    -0.395 N 
HETATM   26  C14 UNL     1      26.417   2.801  52.714  1.00  0.00     0.080 C 
HETATM   27  H15 UNL     1      27.152   3.648  54.528  1.00  0.00     0.159 HD
HETATM   28  C15 UNL     1      26.428   1.644  52.070  1.00  0.00     0.000 C 
ENDBRANCH   1  16
TORSDOF 3
ENDMDL
MODEL 3
REMARK VINA RESULT:      -7.6      5.521      7.727
REMARK  3 active torsions:
REMARK  status: ('A' for Active; 'I' for Inactive)
REMARK    1  A    between atoms: N2_5  and  C4_6 
REMARK    2  A    between atoms: C7_9  and  C8_10 
REMARK    3  A    between atoms: C8_10  and  C9_12 
ROOT
HETATM    1  C8  UNL     1      24.830   3.826  50.641  1.00  0.00     0.173 C 
HETATM    2  O1  UNL     1      24.039   4.393  51.471  1.00  0.00    -0.291 OA
ENDROOT
BRANCH   1   3
HETATM    3  C7  UNL     1      25.786   4.636  49.900  1.00  0.00     0.011 A 
HETATM    4  C6  UNL     1      26.899   4.167  49.236  1.00  0.00     0.017 A 
HETATM    5  C5  UNL     1      27.783   4.964  48.540  1.00  0.00     0.030 A 
HETATM    6  C4  UNL     1      27.532   6.317  48.509  1.00  0.00     0.030 A 
HETATM    7  C18 UNL     1      26.440   6.860  49.149  1.00  0.00     0.030 A 
HETATM    8  C17 UNL     1      25.600   6.000  49.825  1.00  0.00     0.017 A 
BRANCH   6   9
HETATM    9  N2  UNL     1      28.458   7.117  47.785  1.00  0.00    -0.378 N 
HETATM   10  C3  UNL     1      29.780   6.600  47.494  1.00  0.00     0.153 C 
HETATM   11  C2  UNL     1      30.605   7.606  46.755  1.00  0.00     0.291 C 
HETATM   12  N1  UNL     1      30.642   8.853  47.479  1.00  0.00     0.087 N 
HETATM   13  C1  UNL     1      31.281   9.887  46.685  1.00  0.00     0.310 C 
HETATM   14  C20 UNL     1      29.349   9.328  47.881  1.00  0.00     0.291 C 
HETATM   15  C19 UNL     1      28.244   8.453  47.270  1.00  0.00     0.153 C 
ENDBRANCH   6   9
ENDBRANCH   1   3
BRANCH   1  16
HETATM   16  C9  UNL     1      24.662   2.381  50.541  1.00  0.00     0.164 C 
HETATM   17  C10 UNL     1      23.212   2.048  50.539  1.00  0.00     0.234 C 
HETATM   18  O2  UNL     1      22.305   1.624  49.755  1.00  0.00    -0.272 OA
HETATM   19  N3  UNL     1      22.669   2.288  51.855  1.00  0.00    -0.336 N 
HETATM   20  C11 UNL     1      23.530   2.171  53.011  1.00  0.00     0.096 C 
HETATM   21  H11 UNL     1      21.686   2.549  52.134  1.00  0.00     0.168 HD
HETATM   22  C12 UNL     1      24.832   1.845  52.914  1.00  0.00    -0.038 C 
HETATM   23  C13 UNL     1      25.662   1.741  54.145  1.00  0.00     0.155 C 
HETATM   24  C16 UNL     1      25.420   1.594  51.565  1.00  0.00     0.062 C 
HETATM   25  N4  UNL     1      26.886   2.470  53.878  1.00  0.00    -0.395 N 
HETATM   26  C14 UNL     1      27.568   2.304  52.661  1.00  0.00     0.080 C 
HETATM   27  H15 UNL     1      27.284   3.143  54.601  1.00  0.00     0.159 HD
HETATM   28  C15 UNL     1      26.846   1.898  51.627  1.00  0.00     0.000 C 
ENDBRANCH   1  16
TORSDOF 3
ENDMDL
MODEL 4
REMARK VINA RESULT:      -7.5      3.219      8.521
REMARK  3 active torsions:
REMARK  status: ('A' for Active; 'I' for Inactive)
REMARK    1  A    between atoms: N2_5  and  C4_6 
REMARK    2  A    between atoms: C7_9  and  C8_10 
REMARK    3  A    between atoms: C8_10  and  C9_12 
ROOT
HETATM    1  C8  UNL     1      20.773   0.968  50.566  1.00  0.00     0.173 C 
HETATM    2  O1  UNL     1      20.701   0.694  49.317  1.00  0.00    -0.291 OA
ENDROOT
BRANCH   1   3
HETATM    3  C7  UNL     1      22.073   0.969  51.220  1.00  0.00     0.011 A 
HETATM    4  C6  UNL     1      22.409   0.256  52.351  1.00  0.00     0.017 A 
HETATM    5  C5  UNL     1      23.653   0.277  52.944  1.00  0.00     0.030 A 
HETATM    6  C4  UNL     1      24.621   1.064  52.363  1.00  0.00     0.030 A 
HETATM    7  C18 UNL     1      24.362   1.806  51.232  1.00  0.00     0.030 A 
HETATM    8  C17 UNL     1      23.094   1.733  50.696  1.00  0.00     0.017 A 
BRANCH   6   9
HETATM    9  N2  UNL     1      25.896   1.069  52.993  1.00  0.00    -0.378 N 
HETATM   10  C3  UNL     1      26.884   2.057  52.608  1.00  0.00     0.153 C 
HETATM   11  C2  UNL     1      28.161   1.869  53.363  1.00  0.00     0.291 C 
HETATM   12  N1  UNL     1      28.640   0.516  53.211  1.00  0.00     0.087 N 
HETATM   13  C1  UNL     1      29.772   0.273  54.086  1.00  0.00     0.310 C 
HETATM   14  C20 UNL     1      27.643  -0.482  53.475  1.00  0.00     0.291 C 
HETATM   15  C19 UNL     1      26.365   0.167  54.025  1.00  0.00     0.153 C 
ENDBRANCH   6   9
ENDBRANCH   1   3
BRANCH   1  16
HETATM   16  C9  UNL     1      19.489   1.256  51.194  1.00  0.00     0.164 C 
HETATM   17  C10 UNL     1      18.391   0.710  50.352  1.00  0.00     0.234 C 
HETATM   18  O2  UNL     1      17.526  -0.223  50.353  1.00  0.00    -0.272 OA
HETATM   19  N3  UNL     1      18.279   1.498  49.148  1.00  0.00    -0.336 N 
HETATM   20  C11 UNL     1      18.672   2.889  49.172  1.00  0.00     0.096 C 
HETATM   21  H11 UNL     1      17.935   1.213  48.193  1.00  0.00     0.168 HD
HETATM   22  C12 UNL     1      19.145   3.490  50.279  1.00  0.00    -0.038 C 
HETATM   23  C13 UNL     1      19.531   4.927  50.234  1.00  0.00     0.155 C 
HETATM   24  C16 UNL     1      19.273   2.697  51.538  1.00  0.00     0.062 C 
HETATM   25  N4  UNL     1      20.827   5.023  50.877  1.00  0.00    -0.395 N 
HETATM   26  C14 UNL     1      21.078   4.357  52.088  1.00  0.00     0.080 C 
HETATM   27  H15 UNL     1      21.607   5.601  50.439  1.00  0.00     0.159 HD
HETATM   28  C15 UNL     1      20.334   3.292  52.344  1.00  0.00     0.000 C 
ENDBRANCH   1  16
TORSDOF 3
ENDMDL
MODEL 5
REMARK VINA RESULT:      -7.4      3.076      4.475
REMARK  3 active torsions:
REMARK  status: ('A' for Active; 'I' for Inactive)
REMARK    1  A    between atoms: N2_5  and  C4_6 
REMARK    2  A    between atoms: C7_9  and  C8_10 
REMARK    3  A    between atoms: C8_10  and  C9_12 
ROOT
HETATM    1  C8  UNL     1      24.060   0.835  52.819  1.00  0.00     0.173 C 
HETATM    2  O1  UNL     1      24.864  -0.125  52.554  1.00  0.00    -0.291 OA
ENDROOT
BRANCH   1   3
HETATM    3  C7  UNL     1      22.626   0.609  52.721  1.00  0.00     0.011 A 
HETATM    4  C6  UNL     1      21.772   0.364  53.775  1.00  0.00     0.017 A 
HETATM    5  C5  UNL     1      20.415   0.158  53.647  1.00  0.00     0.030 A 
HETATM    6  C4  UNL     1      19.882   0.202  52.378  1.00  0.00     0.030 A 
HETATM    7  C18 UNL     1      20.671   0.441  51.275  1.00  0.00     0.030 A 
HETATM    8  C17 UNL     1      22.020   0.638  51.483  1.00  0.00     0.017 A 
BRANCH   6   9
HETATM    9  N2  UNL     1      18.481  -0.014  52.272  1.00  0.00    -0.378 N 
HETATM   10  C3  UNL     1      17.868  -1.119  52.982  1.00  0.00     0.153 C 
HETATM   11  C2  UNL     1      16.398  -1.188  52.712  1.00  0.00     0.291 C 
HETATM   12  N1  UNL     1      16.150  -1.234  51.291  1.00  0.00     0.087 N 
HETATM   13  C1  UNL     1      14.730  -1.113  51.016  1.00  0.00     0.310 C 
HETATM   14  C20 UNL     1      16.842  -0.217  50.551  1.00  0.00     0.291 C 
HETATM   15  C19 UNL     1      17.531   0.767  51.506  1.00  0.00     0.153 C 
ENDBRANCH   6   9
ENDBRANCH   1   3
BRANCH   1  16
HETATM   16  C9  UNL     1      24.714   2.081  53.200  1.00  0.00     0.164 C 
HETATM   17  C10 UNL     1      24.703   3.021  52.047  1.00  0.00     0.234 C 
HETATM   18  O2  UNL     1      24.151   4.103  51.670  1.00  0.00    -0.272 OA
HETATM   19  N3  UNL     1      25.614   2.541  51.035  1.00  0.00    -0.336 N 
HETATM   20  C11 UNL     1      26.758   1.749  51.428  1.00  0.00     0.096 C 
HETATM   21  H11 UNL     1      25.586   2.683  49.991  1.00  0.00     0.168 HD
HETATM   22  C12 UNL     1      27.013   1.431  52.711  1.00  0.00    -0.038 C 
HETATM   23  C13 UNL     1      28.210   0.612  53.046  1.00  0.00     0.155 C 
HETATM   24  C16 UNL     1      26.086   1.913  53.777  1.00  0.00     0.062 C 
HETATM   25  N4  UNL     1      27.757  -0.419  53.959  1.00  0.00    -0.395 N 
HETATM   26  C14 UNL     1      26.908  -0.103  55.033  1.00  0.00     0.080 C 
HETATM   27  H15 UNL     1      28.063  -1.431  53.828  1.00  0.00     0.159 HD
HETATM   28  C15 UNL     1      26.160   0.982  54.898  1.00  0.00     0.000 C 
ENDBRANCH   1  16
TORSDOF 3
ENDMDL
MODEL 6
REMARK VINA RESULT:      -7.3      3.215      8.191
REMARK  3 active torsions:
REMARK  status: ('A' for Active; 'I' for Inactive)
REMARK    1  A    between atoms: N2_5  and  C4_6 
REMARK    2  A    between atoms: C7_9  and  C8_10 
REMARK    3  A    between atoms: C8_10  and  C9_12 
ROOT
HETATM    1  C8  UNL     1      22.575   3.439  49.339  1.00  0.00     0.173 C 
HETATM    2  O1  UNL     1      22.726   3.382  48.069  1.00  0.00    -0.291 OA
ENDROOT
BRANCH   1   3
HETATM    3  C7  UNL     1      23.579   2.835  50.203  1.00  0.00     0.011 A 
HETATM    4  C6  UNL     1      23.349   1.860  51.150  1.00  0.00     0.017 A 
HETATM    5  C5  UNL     1      24.326   1.307  51.950  1.00  0.00     0.030 A 
HETATM    6  C4  UNL     1      25.614   1.762  51.788  1.00  0.00     0.030 A 
HETATM    7  C18 UNL     1      25.922   2.734  50.863  1.00  0.00     0.030 A 
HETATM    8  C17 UNL     1      24.893   3.240  50.098  1.00  0.00     0.017 A 
BRANCH   6   9
HETATM    9  N2  UNL     1      26.603   1.175  52.625  1.00  0.00    -0.378 N 
HETATM   10  C3  UNL     1      27.847   1.878  52.869  1.00  0.00     0.153 C 
HETATM   11  C2  UNL     1      28.759   1.079  53.745  1.00  0.00     0.291 C 
HETATM   12  N1  UNL     1      28.964  -0.236  53.188  1.00  0.00     0.087 N 
HETATM   13  C1  UNL     1      29.692  -1.078  54.119  1.00  0.00     0.310 C 
HETATM   14  C20 UNL     1      27.747  -0.908  52.829  1.00  0.00     0.291 C 
HETATM   15  C19 UNL     1      26.529  -0.102  53.304  1.00  0.00     0.153 C 
ENDBRANCH   6   9
ENDBRANCH   1   3
BRANCH   1  16
HETATM   16  C9  UNL     1      21.367   4.131  49.771  1.00  0.00     0.164 C 
HETATM   17  C10 UNL     1      20.621   4.619  48.580  1.00  0.00     0.234 C 
HETATM   18  O2  UNL     1      19.556   4.384  47.925  1.00  0.00    -0.272 OA
HETATM   19  N3  UNL     1      21.350   5.710  47.978  1.00  0.00    -0.336 N 
HETATM   20  C11 UNL     1      22.196   6.541  48.806  1.00  0.00     0.096 C 
HETATM   21  H11 UNL     1      21.370   6.025  46.972  1.00  0.00     0.168 HD
HETATM   22  C12 UNL     1      22.337   6.339  50.129  1.00  0.00    -0.038 C 
HETATM   23  C13 UNL     1      23.224   7.233  50.923  1.00  0.00     0.155 C 
HETATM   24  C16 UNL     1      21.596   5.216  50.776  1.00  0.00     0.062 C 
HETATM   25  N4  UNL     1      24.044   6.368  51.749  1.00  0.00    -0.395 N 
HETATM   26  C14 UNL     1      23.472   5.291  52.447  1.00  0.00     0.080 C 
HETATM   27  H15 UNL     1      25.091   6.538  51.837  1.00  0.00     0.159 HD
HETATM   28  C15 UNL     1      22.345   4.798  51.957  1.00  0.00     0.000 C 
ENDBRANCH   1  16
TORSDOF 3
ENDMDL
MODEL 7
REMARK VINA RESULT:      -7.3      6.063      8.765
REMARK  3 active torsions:
REMARK  status: ('A' for Active; 'I' for Inactive)
REMARK    1  A    between atoms: N2_5  and  C4_6 
REMARK    2  A    between atoms: C7_9  and  C8_10 
REMARK    3  A    between atoms: C8_10  and  C9_12 
ROOT
HETATM    1  C8  UNL     1      25.287   4.805  49.792  1.00  0.00     0.173 C 
HETATM    2  O1  UNL     1      24.625   5.463  50.668  1.00  0.00    -0.291 OA
ENDROOT
BRANCH   1   3
HETATM    3  C7  UNL     1      26.473   5.404  49.199  1.00  0.00     0.011 A 
HETATM    4  C6  UNL     1      27.587   4.724  48.755  1.00  0.00     0.017 A 
HETATM    5  C5  UNL     1      28.694   5.324  48.194  1.00  0.00     0.030 A 
HETATM    6  C4  UNL     1      28.680   6.694  48.069  1.00  0.00     0.030 A 
HETATM    7  C18 UNL     1      27.603   7.443  48.489  1.00  0.00     0.030 A 
HETATM    8  C17 UNL     1      26.532   6.772  49.041  1.00  0.00     0.017 A 
BRANCH   6   9
HETATM    9  N2  UNL     1      29.832   7.289  47.487  1.00  0.00    -0.378 N 
HETATM   10  C3  UNL     1      31.042   6.507  47.327  1.00  0.00     0.153 C 
HETATM   11  C2  UNL     1      32.141   7.324  46.727  1.00  0.00     0.291 C 
HETATM   12  N1  UNL     1      32.353   8.524  47.500  1.00  0.00     0.087 N 
HETATM   13  C1  UNL     1      33.284   9.410  46.824  1.00  0.00     0.310 C 
HETATM   14  C20 UNL     1      31.150   9.257  47.771  1.00  0.00     0.291 C 
HETATM   15  C19 UNL     1      29.966   8.648  47.005  1.00  0.00     0.153 C 
ENDBRANCH   6   9
ENDBRANCH   1   3
BRANCH   1  16
HETATM   16  C9  UNL     1      24.743   3.486  49.492  1.00  0.00     0.164 C 
HETATM   17  C10 UNL     1      23.301   3.611  49.146  1.00  0.00     0.234 C 
HETATM   18  O2  UNL     1      22.522   3.521  48.145  1.00  0.00    -0.272 OA
HETATM   19  N3  UNL     1      22.555   3.940  50.337  1.00  0.00    -0.336 N 
HETATM   20  C11 UNL     1      23.048   3.511  51.626  1.00  0.00     0.096 C 
HETATM   21  H11 UNL     1      21.650   4.474  50.430  1.00  0.00     0.168 HD
HETATM   22  C12 UNL     1      24.189   2.810  51.769  1.00  0.00    -0.038 C 
HETATM   23  C13 UNL     1      24.639   2.399  53.126  1.00  0.00     0.155 C 
HETATM   24  C16 UNL     1      24.981   2.457  50.553  1.00  0.00     0.062 C 
HETATM   25  N4  UNL     1      26.048   2.734  53.209  1.00  0.00    -0.395 N 
HETATM   26  C14 UNL     1      26.921   2.427  52.152  1.00  0.00     0.080 C 
HETATM   27  H15 UNL     1      26.439   3.217  54.073  1.00  0.00     0.159 HD
HETATM   28  C15 UNL     1      26.379   2.310  50.949  1.00  0.00     0.000 C 
ENDBRANCH   1  16
TORSDOF 3
ENDMDL
MODEL 8
REMARK VINA RESULT:      -7.2      3.026      8.534
REMARK  3 active torsions:
REMARK  status: ('A' for Active; 'I' for Inactive)
REMARK    1  A    between atoms: N2_5  and  C4_6 
REMARK    2  A    between atoms: C7_9  and  C8_10 
REMARK    3  A    between atoms: C8_10  and  C9_12 
ROOT
HETATM    1  C8  UNL     1      20.648   2.344  51.858  1.00  0.00     0.173 C 
HETATM    2  O1  UNL     1      19.844   2.828  52.728  1.00  0.00    -0.291 OA
ENDROOT
BRANCH   1   3
HETATM    3  C7  UNL     1      21.936   1.822  52.291  1.00  0.00     0.011 A 
HETATM    4  C6  UNL     1      23.114   2.534  52.362  1.00  0.00     0.017 A 
HETATM    5  C5  UNL     1      24.318   2.007  52.781  1.00  0.00     0.030 A 
HETATM    6  C4  UNL     1      24.337   0.682  53.153  1.00  0.00     0.030 A 
HETATM    7  C18 UNL     1      23.200  -0.094  53.109  1.00  0.00     0.030 A 
HETATM    8  C17 UNL     1      22.034   0.503  52.679  1.00  0.00     0.017 A 
BRANCH   6   9
HETATM    9  N2  UNL     1      25.590   0.163  53.582  1.00  0.00    -0.378 N 
HETATM   10  C3  UNL     1      26.438   0.957  54.449  1.00  0.00     0.153 C 
HETATM   11  C2  UNL     1      27.717   0.245  54.755  1.00  0.00     0.291 C 
HETATM   12  N1  UNL     1      28.380  -0.143  53.534  1.00  0.00     0.087 N 
HETATM   13  C1  UNL     1      29.522  -0.992  53.820  1.00  0.00     0.310 C 
HETATM   14  C20 UNL     1      27.527  -0.830  52.607  1.00  0.00     0.291 C 
HETATM   15  C19 UNL     1      26.164  -1.124  53.248  1.00  0.00     0.153 C 
ENDBRANCH   6   9
ENDBRANCH   1   3
BRANCH   1  16
HETATM   16  C9  UNL     1      20.148   2.382  50.489  1.00  0.00     0.164 C 
HETATM   17  C10 UNL     1      20.053   3.796  50.034  1.00  0.00     0.234 C 
HETATM   18  O2  UNL     1      20.616   4.609  49.234  1.00  0.00    -0.272 OA
HETATM   19  N3  UNL     1      18.968   4.445  50.730  1.00  0.00    -0.336 N 
HETATM   20  C11 UNL     1      17.843   3.658  51.185  1.00  0.00     0.096 C 
HETATM   21  H11 UNL     1      18.848   5.463  50.977  1.00  0.00     0.168 HD
HETATM   22  C12 UNL     1      17.762   2.330  50.987  1.00  0.00    -0.038 C 
HETATM   23  C13 UNL     1      16.575   1.580  51.481  1.00  0.00     0.155 C 
HETATM   24  C16 UNL     1      18.871   1.632  50.271  1.00  0.00     0.062 C 
HETATM   25  N4  UNL     1      17.086   0.406  52.162  1.00  0.00    -0.395 N 
HETATM   26  C14 UNL     1      18.107  -0.368  51.587  1.00  0.00     0.080 C 
HETATM   27  H15 UNL     1      16.694   0.116  53.108  1.00  0.00     0.159 HD
HETATM   28  C15 UNL     1      18.901   0.244  50.722  1.00  0.00     0.000 C 
ENDBRANCH   1  16
TORSDOF 3
ENDMDL
MODEL 9
REMARK VINA RESULT:      -7.2      4.852      6.810
REMARK  3 active torsions:
REMARK  status: ('A' for Active; 'I' for Inactive)
REMARK    1  A    between atoms: N2_5  and  C4_6 
REMARK    2  A    between atoms: C7_9  and  C8_10 
REMARK    3  A    between atoms: C8_10  and  C9_12 
ROOT
HETATM    1  C8  UNL     1      24.548   2.729  51.183  1.00  0.00     0.173 C 
HETATM    2  O1  UNL     1      24.017   1.732  50.580  1.00  0.00    -0.291 OA
ENDROOT
BRANCH   1   3
HETATM    3  C7  UNL     1      25.327   3.691  50.418  1.00  0.00     0.011 A 
HETATM    4  C6  UNL     1      26.453   3.410  49.674  1.00  0.00     0.017 A 
HETATM    5  C5  UNL     1      27.167   4.347  48.958  1.00  0.00     0.030 A 
HETATM    6  C4  UNL     1      26.719   5.648  48.990  1.00  0.00     0.030 A 
HETATM    7  C18 UNL     1      25.601   6.006  49.711  1.00  0.00     0.030 A 
HETATM    8  C17 UNL     1      24.940   5.014  50.402  1.00  0.00     0.017 A 
BRANCH   6   9
HETATM    9  N2  UNL     1      27.471   6.596  48.242  1.00  0.00    -0.378 N 
HETATM   10  C3  UNL     1      28.914   6.475  48.174  1.00  0.00     0.153 C 
HETATM   11  C2  UNL     1      29.513   7.583  47.369  1.00  0.00     0.291 C 
HETATM   12  N1  UNL     1      29.087   8.863  47.881  1.00  0.00     0.087 N 
HETATM   13  C1  UNL     1      29.510   9.934  46.998  1.00  0.00     0.310 C 
HETATM   14  C20 UNL     1      27.668   8.966  48.068  1.00  0.00     0.291 C 
HETATM   15  C19 UNL     1      26.960   7.728  47.499  1.00  0.00     0.153 C 
ENDBRANCH   6   9
ENDBRANCH   1   3
BRANCH   1  16
HETATM   16  C9  UNL     1      24.291   2.770  52.618  1.00  0.00     0.164 C 
HETATM   17  C10 UNL     1      25.435   2.156  53.345  1.00  0.00     0.234 C 
HETATM   18  O2  UNL     1      26.407   2.482  54.097  1.00  0.00    -0.272 OA
HETATM   19  N3  UNL     1      25.431   0.731  53.117  1.00  0.00    -0.336 N 
HETATM   20  C11 UNL     1      24.179   0.058  52.850  1.00  0.00     0.096 C 
HETATM   21  H11 UNL     1      26.239   0.053  53.114  1.00  0.00     0.168 HD
HETATM   22  C12 UNL     1      23.002   0.708  52.802  1.00  0.00    -0.038 C 
HETATM   23  C13 UNL     1      21.750  -0.046  52.523  1.00  0.00     0.155 C 
HETATM   24  C16 UNL     1      22.978   2.184  53.033  1.00  0.00     0.062 C 
HETATM   25  N4  UNL     1      21.033   0.708  51.514  1.00  0.00    -0.395 N 
HETATM   26  C14 UNL     1      20.900   2.103  51.622  1.00  0.00     0.080 C 
HETATM   27  H15 UNL     1      20.598   0.215  50.677  1.00  0.00     0.159 HD
HETATM   28  C15 UNL     1      21.822   2.734  52.333  1.00  0.00     0.000 C 
ENDBRANCH   1  16
TORSDOF 3
ENDMDL
