MODEL 1
REMARK VINA RESULT:      -9.2      0.000      0.000
REMARK  7 active torsions:
REMARK  status: ('A' for Active; 'I' for Inactive)
REMARK    1  A    between atoms: N1_1  and  C1_2 
REMARK    2  A    between atoms: C7_11  and  C8_12 
REMARK    3  A    between atoms: C8_12  and  C9_13 
REMARK    4  A    between atoms: C17_22  and  C18_23 
REMARK    5  A    between atoms: C18_23  and  C19_24 
REMARK    6  A    between atoms: C19_24  and  C20_26 
REMARK    7  A    between atoms: C20_26  and  O2_27 
ROOT
HETATM    1  C1  UNL     1      26.605  -0.014  54.795  1.00  0.00     0.147 A 
HETATM    2  N2  UNL     1      27.868  -0.121  55.220  1.00  0.00    -0.240 NA
HETATM    3  C2  UNL     1      28.891   0.347  54.494  1.00  0.00     0.136 A 
HETATM    4  C3  UNL     1      28.738   0.962  53.278  1.00  0.00     0.118 A 
HETATM    5  N3  UNL     1      27.474   1.058  52.872  1.00  0.00    -0.298 N 
HETATM    6  C4  UNL     1      26.826   1.546  51.825  1.00  0.00     0.262 A 
HETATM    7  N4  UNL     1      25.534   1.348  51.981  1.00  0.00     0.205 N 
HETATM    8  C5  UNL     1      25.153   0.753  53.062  1.00  0.00     0.333 A 
HETATM    9  C6  UNL     1      26.408   0.617  53.540  1.00  0.00     0.111 A 
HETATM   10  C7  UNL     1      24.200   1.244  51.961  1.00  0.00     0.427 A 
HETATM   11  N5  UNL     1      24.720   2.077  50.842  1.00  0.00     0.155 N 
HETATM   12  C15 UNL     1      23.606   2.669  50.248  1.00  0.00     0.278 C 
HETATM   13  C16 UNL     1      24.025   4.067  49.815  1.00  0.00     0.035 C 
HETATM   14  C17 UNL     1      25.471   4.174  49.474  1.00  0.00    -0.003 C 
HETATM   15  C21 UNL     1      26.417   3.607  50.457  1.00  0.00     0.049 C 
HETATM   16  C22 UNL     1      26.180   2.142  50.567  1.00  0.00     0.306 C 
ENDROOT
BRANCH  10  17
HETATM   17  C8  UNL     1      22.935   0.894  52.108  1.00  0.00     0.063 C 
BRANCH  17  18
HETATM   18  C9  UNL     1      21.857   0.201  52.709  1.00  0.00    -0.036 A 
HETATM   19  C10 UNL     1      21.808  -0.686  53.797  1.00  0.00     0.011 A 
HETATM   20  C11 UNL     1      20.607  -1.251  54.158  1.00  0.00     0.001 A 
HETATM   21  C12 UNL     1      19.484  -0.940  53.457  1.00  0.00     0.000 A 
HETATM   22  C13 UNL     1      19.429  -0.090  52.384  1.00  0.00     0.001 A 
HETATM   23  C14 UNL     1      20.643   0.454  52.052  1.00  0.00     0.011 A 
ENDBRANCH  17  18
ENDBRANCH  10  17
BRANCH   1  24
HETATM   24  N1  UNL     1      25.667  -0.575  55.716  1.00  0.00    -0.382 N 
HETATM   25  H1  UNL     1      25.788  -0.520  56.745  1.00  0.00     0.157 HD
HETATM   26  H2  UNL     1      24.841  -1.054  55.322  1.00  0.00     0.157 HD
ENDBRANCH   1  24
BRANCH  14  27
HETATM   27  C18 UNL     1      25.772   5.668  49.339  1.00  0.00     0.085 C 
BRANCH  27  28
HETATM   28  C19 UNL     1      27.085   5.938  48.737  1.00  0.00     0.150 C 
HETATM   29  O1  UNL     1      28.087   5.508  48.207  1.00  0.00    -0.296 OA
BRANCH  28  30
HETATM   30  C20 UNL     1      27.330   7.425  48.787  1.00  0.00     0.242 C 
BRANCH  30  31
HETATM   31  O2  UNL     1      27.095   7.864  50.083  1.00  0.00    -0.394 OA
HETATM   32  H20 UNL     1      26.511   8.660  50.143  1.00  0.00     0.209 HD
ENDBRANCH  30  31
ENDBRANCH  28  30
ENDBRANCH  27  28
ENDBRANCH  14  27
TORSDOF 7
ENDMDL
MODEL 2
REMARK VINA RESULT:      -8.9      3.055      6.025
REMARK  7 active torsions:
REMARK  status: ('A' for Active; 'I' for Inactive)
REMARK    1  A    between atoms: N1_1  and  C1_2 
REMARK    2  A    between atoms: C7_11  and  C8_12 
REMARK    3  A    between atoms: C8_12  and  C9_13 
REMARK    4  A    between atoms: C17_22  and  C18_23 
REMARK    5  A    between atoms: C18_23  and  C19_24 
REMARK    6  A    between atoms: C19_24  and  C20_26 
REMARK    7  A    between atoms: C20_26  and  O2_27 
ROOT
HETATM    1  C1  UNL     1      22.457   4.093  49.391  1.00  0.00     0.147 A 
HETATM    2  N2  UNL     1      23.098   5.034  48.691  1.00  0.00    -0.240 NA
HETATM    3  C2  UNL     1      24.391   5.308  48.911  1.00  0.00     0.136 A 
HETATM    4  C3  UNL     1      25.152   4.663  49.851  1.00  0.00     0.118 A 
HETATM    5  N3  UNL     1      24.496   3.730  50.536  1.00  0.00    -0.298 N 
HETATM    6  C4  UNL     1      24.766   2.866  51.504  1.00  0.00     0.262 A 
HETATM    7  N4  UNL     1      23.683   2.174  51.785  1.00  0.00     0.205 N 
HETATM    8  C5  UNL     1      22.616   2.442  51.109  1.00  0.00     0.333 A 
HETATM    9  C6  UNL     1      23.213   3.404  50.373  1.00  0.00     0.111 A 
HETATM   10  C7  UNL     1      22.699   1.371  52.207  1.00  0.00     0.427 A 
HETATM   11  N5  UNL     1      24.016   1.013  52.802  1.00  0.00     0.155 N 
HETATM   12  C15 UNL     1      23.830  -0.205  53.454  1.00  0.00     0.278 C 
HETATM   13  C16 UNL     1      25.112  -1.006  53.273  1.00  0.00     0.035 C 
HETATM   14  C17 UNL     1      26.329  -0.156  53.145  1.00  0.00    -0.003 C 
HETATM   15  C21 UNL     1      26.248   0.959  52.179  1.00  0.00     0.049 C 
HETATM   16  C22 UNL     1      25.191   1.908  52.625  1.00  0.00     0.306 C 
ENDROOT
BRANCH  10  17
HETATM   17  C8  UNL     1      21.551   0.810  52.539  1.00  0.00     0.063 C 
BRANCH  17  18
HETATM   18  C9  UNL     1      20.253   0.299  52.293  1.00  0.00    -0.036 A 
HETATM   19  C10 UNL     1      19.361   0.493  51.226  1.00  0.00     0.011 A 
HETATM   20  C11 UNL     1      18.126  -0.112  51.256  1.00  0.00     0.001 A 
HETATM   21  C12 UNL     1      17.789  -0.890  52.318  1.00  0.00     0.000 A 
HETATM   22  C13 UNL     1      18.585  -1.139  53.404  1.00  0.00     0.001 A 
HETATM   23  C14 UNL     1      19.808  -0.521  53.341  1.00  0.00     0.011 A 
ENDBRANCH  17  18
ENDBRANCH  10  17
BRANCH   1  24
HETATM   24  N1  UNL     1      21.088   3.958  49.002  1.00  0.00    -0.382 N 
HETATM   25  H1  UNL     1      20.773   4.042  48.017  1.00  0.00     0.157 HD
HETATM   26  H2  UNL     1      20.398   3.772  49.746  1.00  0.00     0.157 HD
ENDBRANCH   1  24
BRANCH  14  27
HETATM   27  C18 UNL     1      27.457  -1.086  52.696  1.00  0.00     0.085 C 
BRANCH  27  28
HETATM   28  C19 UNL     1      28.648  -1.002  53.553  1.00  0.00     0.150 C 
HETATM   29  O1  UNL     1      29.294  -0.375  54.365  1.00  0.00    -0.296 OA
BRANCH  28  30
HETATM   30  C20 UNL     1      29.465  -2.253  53.351  1.00  0.00     0.242 C 
BRANCH  30  31
HETATM   31  O2  UNL     1      28.605  -3.343  53.364  1.00  0.00    -0.394 OA
HETATM   32  H20 UNL     1      28.765  -3.978  54.104  1.00  0.00     0.209 HD
ENDBRANCH  30  31
ENDBRANCH  28  30
ENDBRANCH  27  28
ENDBRANCH  14  27
TORSDOF 7
ENDMDL
MODEL 3
REMARK VINA RESULT:      -8.8      3.795      7.739
REMARK  7 active torsions:
REMARK  status: ('A' for Active; 'I' for Inactive)
REMARK    1  A    between atoms: N1_1  and  C1_2 
REMARK    2  A    between atoms: C7_11  and  C8_12 
REMARK    3  A    between atoms: C8_12  and  C9_13 
REMARK    4  A    between atoms: C17_22  and  C18_23 
REMARK    5  A    between atoms: C18_23  and  C19_24 
REMARK    6  A    between atoms: C19_24  and  C20_26 
REMARK    7  A    between atoms: C20_26  and  O2_27 
ROOT
HETATM    1  C1  UNL     1      24.954   5.001  49.634  1.00  0.00     0.147 A 
HETATM    2  N2  UNL     1      24.328   5.675  48.664  1.00  0.00    -0.240 NA
HETATM    3  C2  UNL     1      23.180   5.233  48.136  1.00  0.00     0.136 A 
HETATM    4  C3  UNL     1      22.560   4.077  48.533  1.00  0.00     0.118 A 
HETATM    5  N3  UNL     1      23.197   3.421  49.499  1.00  0.00    -0.298 N 
HETATM    6  C4  UNL     1      23.020   2.310  50.199  1.00  0.00     0.262 A 
HETATM    7  N4  UNL     1      24.015   2.166  51.048  1.00  0.00     0.205 N 
HETATM    8  C5  UNL     1      24.929   3.078  51.049  1.00  0.00     0.333 A 
HETATM    9  C6  UNL     1      24.341   3.799  50.071  1.00  0.00     0.111 A 
HETATM   10  C7  UNL     1      24.929   1.850  51.973  1.00  0.00     0.427 A 
HETATM   11  N5  UNL     1      23.742   0.953  52.021  1.00  0.00     0.155 N 
HETATM   12  C15 UNL     1      23.875   0.194  53.182  1.00  0.00     0.278 C 
HETATM   13  C16 UNL     1      22.475  -0.005  53.747  1.00  0.00     0.035 C 
HETATM   14  C17 UNL     1      21.412  -0.016  52.704  1.00  0.00    -0.003 C 
HETATM   15  C21 UNL     1      21.448   1.089  51.723  1.00  0.00     0.049 C 
HETATM   16  C22 UNL     1      22.715   1.005  50.947  1.00  0.00     0.306 C 
ENDROOT
BRANCH  10  17
HETATM   17  C8  UNL     1      26.018   1.689  52.702  1.00  0.00     0.063 C 
BRANCH  17  18
HETATM   18  C9  UNL     1      27.230   1.059  53.077  1.00  0.00    -0.036 A 
HETATM   19  C10 UNL     1      28.416   1.570  53.629  1.00  0.00     0.011 A 
HETATM   20  C11 UNL     1      29.471   0.723  53.873  1.00  0.00     0.001 A 
HETATM   21  C12 UNL     1      29.350  -0.598  53.577  1.00  0.00     0.000 A 
HETATM   22  C13 UNL     1      28.239  -1.192  53.036  1.00  0.00     0.001 A 
HETATM   23  C14 UNL     1      27.207  -0.318  52.806  1.00  0.00     0.011 A 
ENDBRANCH  17  18
ENDBRANCH  10  17
BRANCH   1  24
HETATM   24  N1  UNL     1      26.160   5.642  50.057  1.00  0.00    -0.382 N 
HETATM   25  H1  UNL     1      26.795   6.132  49.400  1.00  0.00     0.157 HD
HETATM   26  H2  UNL     1      26.392   5.604  51.063  1.00  0.00     0.157 HD
ENDBRANCH   1  24
BRANCH  14  27
HETATM   27  C18 UNL     1      20.078   0.059  53.449  1.00  0.00     0.085 C 
BRANCH  27  28
HETATM   28  C19 UNL     1      18.947  -0.444  52.657  1.00  0.00     0.150 C 
HETATM   29  O1  UNL     1      18.278  -0.371  51.648  1.00  0.00    -0.296 OA
BRANCH  28  30
HETATM   30  C20 UNL     1      18.297  -1.568  53.424  1.00  0.00     0.242 C 
BRANCH  30  31
HETATM   31  O2  UNL     1      17.067  -1.125  53.889  1.00  0.00    -0.394 OA
HETATM   32  H20 UNL     1      16.618  -1.749  54.511  1.00  0.00     0.209 HD
ENDBRANCH  30  31
ENDBRANCH  28  30
ENDBRANCH  27  28
ENDBRANCH  14  27
TORSDOF 7
ENDMDL
MODEL 4
REMARK VINA RESULT:      -8.3      3.993      7.353
REMARK  7 active torsions:
REMARK  status: ('A' for Active; 'I' for Inactive)
REMARK    1  A    between atoms: N1_1  and  C1_2 
REMARK    2  A    between atoms: C7_11  and  C8_12 
REMARK    3  A    between atoms: C8_12  and  C9_13 
REMARK    4  A    between atoms: C17_22  and  C18_23 
REMARK    5  A    between atoms: C18_23  and  C19_24 
REMARK    6  A    between atoms: C19_24  and  C20_26 
REMARK    7  A    between atoms: C20_26  and  O2_27 
ROOT
HETATM    1  C1  UNL     1      25.541  -0.308  53.590  1.00  0.00     0.147 A 
HETATM    2  N2  UNL     1      25.685  -1.080  54.671  1.00  0.00    -0.240 NA
HETATM    3  C2  UNL     1      24.642  -1.391  55.451  1.00  0.00     0.136 A 
HETATM    4  C3  UNL     1      23.364  -0.954  55.216  1.00  0.00     0.118 A 
HETATM    5  N3  UNL     1      23.241  -0.188  54.136  1.00  0.00    -0.298 N 
HETATM    6  C4  UNL     1      22.267   0.451  53.504  1.00  0.00     0.262 A 
HETATM    7  N4  UNL     1      22.760   1.067  52.451  1.00  0.00     0.205 N 
HETATM    8  C5  UNL     1      24.027   0.946  52.234  1.00  0.00     0.333 A 
HETATM    9  C6  UNL     1      24.232   0.163  53.314  1.00  0.00     0.111 A 
HETATM   10  C7  UNL     1      23.069   1.753  51.345  1.00  0.00     0.427 A 
HETATM   11  N5  UNL     1      21.600   1.684  51.576  1.00  0.00     0.155 N 
HETATM   12  C15 UNL     1      21.000   2.185  50.422  1.00  0.00     0.278 C 
HETATM   13  C16 UNL     1      19.731   1.375  50.193  1.00  0.00     0.035 C 
HETATM   14  C17 UNL     1      19.122   0.861  51.452  1.00  0.00    -0.003 C 
HETATM   15  C21 UNL     1      20.037   0.178  52.389  1.00  0.00     0.049 C 
HETATM   16  C22 UNL     1      21.064   1.149  52.856  1.00  0.00     0.306 C 
ENDROOT
BRANCH  10  17
HETATM   17  C8  UNL     1      23.643   2.459  50.388  1.00  0.00     0.063 C 
BRANCH  17  18
HETATM   18  C9  UNL     1      24.431   3.516  49.868  1.00  0.00    -0.036 A 
HETATM   19  C10 UNL     1      24.082   4.778  49.360  1.00  0.00     0.011 A 
HETATM   20  C11 UNL     1      25.066   5.612  48.884  1.00  0.00     0.001 A 
HETATM   21  C12 UNL     1      26.361   5.204  48.914  1.00  0.00     0.000 A 
HETATM   22  C13 UNL     1      26.802   3.996  49.387  1.00  0.00     0.001 A 
HETATM   23  C14 UNL     1      25.796   3.189  49.853  1.00  0.00     0.011 A 
ENDBRANCH  17  18
ENDBRANCH  10  17
BRANCH   1  24
HETATM   24  N1  UNL     1      26.774  -0.098  52.897  1.00  0.00    -0.382 N 
HETATM   25  H1  UNL     1      27.285  -0.862  52.417  1.00  0.00     0.157 HD
HETATM   26  H2  UNL     1      27.157   0.861  52.887  1.00  0.00     0.157 HD
ENDBRANCH   1  24
BRANCH  14  27
HETATM   27  C18 UNL     1      18.046  -0.141  51.030  1.00  0.00     0.085 C 
BRANCH  27  28
HETATM   28  C19 UNL     1      16.860  -0.111  51.897  1.00  0.00     0.150 C 
HETATM   29  O1  UNL     1      15.892   0.496  52.302  1.00  0.00    -0.296 OA
BRANCH  28  30
HETATM   30  C20 UNL     1      16.784  -1.422  52.639  1.00  0.00     0.242 C 
BRANCH  30  31
HETATM   31  O2  UNL     1      17.284  -1.229  53.919  1.00  0.00    -0.394 OA
HETATM   32  H20 UNL     1      16.890  -1.825  54.603  1.00  0.00     0.209 HD
ENDBRANCH  30  31
ENDBRANCH  28  30
ENDBRANCH  27  28
ENDBRANCH  14  27
TORSDOF 7
ENDMDL
MODEL 5
REMARK VINA RESULT:      -8.3      1.405      1.881
REMARK  7 active torsions:
REMARK  status: ('A' for Active; 'I' for Inactive)
REMARK    1  A    between atoms: N1_1  and  C1_2 
REMARK    2  A    between atoms: C7_11  and  C8_12 
REMARK    3  A    between atoms: C8_12  and  C9_13 
REMARK    4  A    between atoms: C17_22  and  C18_23 
REMARK    5  A    between atoms: C18_23  and  C19_24 
REMARK    6  A    between atoms: C19_24  and  C20_26 
REMARK    7  A    between atoms: C20_26  and  O2_27 
ROOT
HETATM    1  C1  UNL     1      25.662  -0.395  54.450  1.00  0.00     0.147 A 
HETATM    2  N2  UNL     1      26.970  -0.579  54.653  1.00  0.00    -0.240 NA
HETATM    3  C2  UNL     1      27.887   0.018  53.881  1.00  0.00     0.136 A 
HETATM    4  C3  UNL     1      27.573   0.850  52.838  1.00  0.00     0.118 A 
HETATM    5  N3  UNL     1      26.266   1.021  52.652  1.00  0.00    -0.298 N 
HETATM    6  C4  UNL     1      25.483   1.697  51.824  1.00  0.00     0.262 A 
HETATM    7  N4  UNL     1      24.224   1.472  52.133  1.00  0.00     0.205 N 
HETATM    8  C5  UNL     1      23.990   0.683  53.129  1.00  0.00     0.333 A 
HETATM    9  C6  UNL     1      25.298   0.461  53.379  1.00  0.00     0.111 A 
HETATM   10  C7  UNL     1      22.899   1.373  52.295  1.00  0.00     0.427 A 
HETATM   11  N5  UNL     1      23.271   2.402  51.286  1.00  0.00     0.155 N 
HETATM   12  C15 UNL     1      22.099   3.095  50.987  1.00  0.00     0.278 C 
HETATM   13  C16 UNL     1      22.487   4.550  50.764  1.00  0.00     0.035 C 
HETATM   14  C17 UNL     1      23.869   4.720  50.235  1.00  0.00    -0.003 C 
HETATM   15  C21 UNL     1      24.935   3.979  50.942  1.00  0.00     0.049 C 
HETATM   16  C22 UNL     1      24.675   2.519  50.811  1.00  0.00     0.306 C 
ENDROOT
BRANCH  10  17
HETATM   17  C8  UNL     1      21.661   1.001  52.563  1.00  0.00     0.063 C 
BRANCH  17  18
HETATM   18  C9  UNL     1      20.391   0.454  52.259  1.00  0.00    -0.036 A 
HETATM   19  C10 UNL     1      19.570   0.573  51.126  1.00  0.00     0.011 A 
HETATM   20  C11 UNL     1      18.346  -0.053  51.106  1.00  0.00     0.001 A 
HETATM   21  C12 UNL     1      17.949  -0.779  52.184  1.00  0.00     0.000 A 
HETATM   22  C13 UNL     1      18.674  -0.954  53.333  1.00  0.00     0.001 A 
HETATM   23  C14 UNL     1      19.888  -0.317  53.319  1.00  0.00     0.011 A 
ENDBRANCH  17  18
ENDBRANCH  10  17
BRANCH   1  24
HETATM   24  N1  UNL     1      24.855  -1.121  55.381  1.00  0.00    -0.382 N 
HETATM   25  H1  UNL     1      23.838  -0.953  55.493  1.00  0.00     0.157 HD
HETATM   26  H2  UNL     1      25.323  -1.838  55.958  1.00  0.00     0.157 HD
ENDBRANCH   1  24
BRANCH  14  27
HETATM   27  C18 UNL     1      24.188   6.213  50.337  1.00  0.00     0.085 C 
BRANCH  27  28
HETATM   28  C19 UNL     1      24.834   6.747  49.131  1.00  0.00     0.150 C 
HETATM   29  O1  UNL     1      24.812   6.900  47.928  1.00  0.00    -0.296 OA
BRANCH  28  30
HETATM   30  C20 UNL     1      26.121   7.417  49.542  1.00  0.00     0.242 C 
BRANCH  30  31
HETATM   31  O2  UNL     1      26.175   7.446  50.928  1.00  0.00    -0.394 OA
HETATM   32  H20 UNL     1      25.868   8.296  51.330  1.00  0.00     0.209 HD
ENDBRANCH  30  31
ENDBRANCH  28  30
ENDBRANCH  27  28
ENDBRANCH  14  27
TORSDOF 7
ENDMDL
MODEL 6
REMARK VINA RESULT:      -8.2      3.180      6.618
REMARK  7 active torsions:
REMARK  status: ('A' for Active; 'I' for Inactive)
REMARK    1  A    between atoms: N1_1  and  C1_2 
REMARK    2  A    between atoms: C7_11  and  C8_12 
REMARK    3  A    between atoms: C8_12  and  C9_13 
REMARK    4  A    between atoms: C17_22  and  C18_23 
REMARK    5  A    between atoms: C18_23  and  C19_24 
REMARK    6  A    between atoms: C19_24  and  C20_26 
REMARK    7  A    between atoms: C20_26  and  O2_27 
ROOT
HETATM    1  C1  UNL     1      27.997   1.222  53.444  1.00  0.00     0.147 A 
HETATM    2  N2  UNL     1      27.932   0.548  54.596  1.00  0.00    -0.240 NA
HETATM    3  C2  UNL     1      26.758   0.274  55.179  1.00  0.00     0.136 A 
HETATM    4  C3  UNL     1      25.547   0.653  54.658  1.00  0.00     0.118 A 
HETATM    5  N3  UNL     1      25.633   1.321  53.511  1.00  0.00    -0.298 N 
HETATM    6  C4  UNL     1      24.798   1.875  52.645  1.00  0.00     0.262 A 
HETATM    7  N4  UNL     1      25.484   2.415  51.660  1.00  0.00     0.205 N 
HETATM    8  C5  UNL     1      26.770   2.313  51.710  1.00  0.00     0.333 A 
HETATM    9  C6  UNL     1      26.764   1.630  52.874  1.00  0.00     0.111 A 
HETATM   10  C7  UNL     1      26.000   3.014  50.580  1.00  0.00     0.427 A 
HETATM   11  N5  UNL     1      24.515   2.922  50.522  1.00  0.00     0.155 N 
HETATM   12  C15 UNL     1      24.152   3.306  49.232  1.00  0.00     0.278 C 
HETATM   13  C16 UNL     1      22.964   2.443  48.829  1.00  0.00     0.035 C 
HETATM   14  C17 UNL     1      22.121   2.020  49.982  1.00  0.00    -0.003 C 
HETATM   15  C21 UNL     1      22.839   1.445  51.139  1.00  0.00     0.049 C 
HETATM   16  C22 UNL     1      23.740   2.482  51.712  1.00  0.00     0.306 C 
ENDROOT
BRANCH  10  17
HETATM   17  C8  UNL     1      26.745   3.653  49.698  1.00  0.00     0.063 C 
BRANCH  17  18
HETATM   18  C9  UNL     1      27.241   4.797  49.024  1.00  0.00    -0.036 A 
HETATM   19  C10 UNL     1      28.500   5.081  48.471  1.00  0.00     0.011 A 
HETATM   20  C11 UNL     1      28.725   6.307  47.890  1.00  0.00     0.001 A 
HETATM   21  C12 UNL     1      27.724   7.225  47.859  1.00  0.00     0.000 A 
HETATM   22  C13 UNL     1      26.465   7.045  48.370  1.00  0.00     0.001 A 
HETATM   23  C14 UNL     1      26.277   5.813  48.942  1.00  0.00     0.011 A 
ENDBRANCH  17  18
ENDBRANCH  10  17
BRANCH   1  24
HETATM   24  N1  UNL     1      29.341   1.409  52.993  1.00  0.00    -0.382 N 
HETATM   25  H1  UNL     1      30.066   0.671  53.068  1.00  0.00     0.157 HD
HETATM   26  H2  UNL     1      29.582   2.324  52.581  1.00  0.00     0.157 HD
ENDBRANCH   1  24
BRANCH  14  27
HETATM   27  C18 UNL     1      21.164   0.955  49.447  1.00  0.00     0.085 C 
BRANCH  27  28
HETATM   28  C19 UNL     1      19.857   0.964  50.120  1.00  0.00     0.150 C 
HETATM   29  O1  UNL     1      19.074   0.413  50.863  1.00  0.00    -0.296 OA
BRANCH  28  30
HETATM   30  C20 UNL     1      19.130   2.224  49.723  1.00  0.00     0.242 C 
BRANCH  30  31
HETATM   31  O2  UNL     1      18.938   2.204  48.348  1.00  0.00    -0.394 OA
HETATM   32  H20 UNL     1      19.044   1.311  47.936  1.00  0.00     0.209 HD
ENDBRANCH  30  31
ENDBRANCH  28  30
ENDBRANCH  27  28
ENDBRANCH  14  27
TORSDOF 7
ENDMDL
MODEL 7
REMARK VINA RESULT:      -8.1      4.543      7.994
REMARK  7 active torsions:
REMARK  status: ('A' for Active; 'I' for Inactive)
REMARK    1  A    between atoms: N1_1  and  C1_2 
REMARK    2  A    between atoms: C7_11  and  C8_12 
REMARK    3  A    between atoms: C8_12  and  C9_13 
REMARK    4  A    between atoms: C17_22  and  C18_23 
REMARK    5  A    between atoms: C18_23  and  C19_24 
REMARK    6  A    between atoms: C19_24  and  C20_26 
REMARK    7  A    between atoms: C20_26  and  O2_27 
ROOT
HETATM    1  C1  UNL     1      23.086   5.940  51.522  1.00  0.00     0.147 A 
HETATM    2  N2  UNL     1      22.471   6.936  50.876  1.00  0.00    -0.240 NA
HETATM    3  C2  UNL     1      21.389   6.714  50.120  1.00  0.00     0.136 A 
HETATM    4  C3  UNL     1      20.829   5.475  49.943  1.00  0.00     0.118 A 
HETATM    5  N3  UNL     1      21.455   4.497  50.594  1.00  0.00    -0.298 N 
HETATM    6  C4  UNL     1      21.315   3.189  50.746  1.00  0.00     0.262 A 
HETATM    7  N4  UNL     1      22.267   2.738  51.535  1.00  0.00     0.205 N 
HETATM    8  C5  UNL     1      23.114   3.599  51.993  1.00  0.00     0.333 A 
HETATM    9  C6  UNL     1      22.534   4.643  51.363  1.00  0.00     0.111 A 
HETATM   10  C7  UNL     1      23.146   2.097  52.315  1.00  0.00     0.427 A 
HETATM   11  N5  UNL     1      22.024   1.218  51.885  1.00  0.00     0.155 N 
HETATM   12  C15 UNL     1      22.143   0.044  52.628  1.00  0.00     0.278 C 
HETATM   13  C16 UNL     1      20.731  -0.429  52.941  1.00  0.00     0.035 C 
HETATM   14  C17 UNL     1      19.733  -0.040  51.906  1.00  0.00    -0.003 C 
HETATM   15  C21 UNL     1      19.747   1.377  51.485  1.00  0.00     0.049 C 
HETATM   16  C22 UNL     1      21.060   1.679  50.852  1.00  0.00     0.306 C 
ENDROOT
BRANCH  10  17
HETATM   17  C8  UNL     1      24.201   1.685  52.995  1.00  0.00     0.063 C 
BRANCH  17  18
HETATM   18  C9  UNL     1      25.560   1.322  53.161  1.00  0.00    -0.036 A 
HETATM   19  C10 UNL     1      26.642   2.000  53.746  1.00  0.00     0.011 A 
HETATM   20  C11 UNL     1      27.887   1.417  53.745  1.00  0.00     0.001 A 
HETATM   21  C12 UNL     1      28.052   0.192  53.180  1.00  0.00     0.000 A 
HETATM   22  C13 UNL     1      27.063  -0.546  52.585  1.00  0.00     0.001 A 
HETATM   23  C14 UNL     1      25.835   0.065  52.603  1.00  0.00     0.011 A 
ENDBRANCH  17  18
ENDBRANCH  10  17
BRANCH   1  24
HETATM   24  N1  UNL     1      24.217   6.388  52.271  1.00  0.00    -0.382 N 
HETATM   25  H1  UNL     1      25.083   5.826  52.372  1.00  0.00     0.157 HD
HETATM   26  H2  UNL     1      24.151   7.313  52.726  1.00  0.00     0.157 HD
ENDBRANCH   1  24
BRANCH  14  27
HETATM   27  C18 UNL     1      18.356  -0.339  52.502  1.00  0.00     0.085 C 
BRANCH  27  28
HETATM   28  C19 UNL     1      17.276  -0.296  51.507  1.00  0.00     0.150 C 
HETATM   29  O1  UNL     1      16.905  -0.518  50.373  1.00  0.00    -0.296 OA
BRANCH  28  30
HETATM   30  C20 UNL     1      16.052   0.291  52.164  1.00  0.00     0.242 C 
BRANCH  30  31
HETATM   31  O2  UNL     1      15.840  -0.372  53.364  1.00  0.00    -0.394 OA
HETATM   32  H20 UNL     1      14.909  -0.324  53.696  1.00  0.00     0.209 HD
ENDBRANCH  30  31
ENDBRANCH  28  30
ENDBRANCH  27  28
ENDBRANCH  14  27
TORSDOF 7
ENDMDL
MODEL 8
REMARK VINA RESULT:      -8.0      2.829      5.640
REMARK  7 active torsions:
REMARK  status: ('A' for Active; 'I' for Inactive)
REMARK    1  A    between atoms: N1_1  and  C1_2 
REMARK    2  A    between atoms: C7_11  and  C8_12 
REMARK    3  A    between atoms: C8_12  and  C9_13 
REMARK    4  A    between atoms: C17_22  and  C18_23 
REMARK    5  A    between atoms: C18_23  and  C19_24 
REMARK    6  A    between atoms: C19_24  and  C20_26 
REMARK    7  A    between atoms: C20_26  and  O2_27 
ROOT
HETATM    1  C1  UNL     1      19.626   4.043  49.342  1.00  0.00     0.147 A 
HETATM    2  N2  UNL     1      18.998   5.020  48.680  1.00  0.00    -0.240 NA
HETATM    3  C2  UNL     1      19.625   6.157  48.354  1.00  0.00     0.136 A 
HETATM    4  C3  UNL     1      20.936   6.415  48.664  1.00  0.00     0.118 A 
HETATM    5  N3  UNL     1      21.543   5.431  49.321  1.00  0.00    -0.298 N 
HETATM    6  C4  UNL     1      22.748   5.196  49.821  1.00  0.00     0.262 A 
HETATM    7  N4  UNL     1      22.762   4.006  50.383  1.00  0.00     0.205 N 
HETATM    8  C5  UNL     1      21.668   3.320  50.347  1.00  0.00     0.333 A 
HETATM    9  C6  UNL     1      20.984   4.274  49.679  1.00  0.00     0.111 A 
HETATM   10  C7  UNL     1      22.974   2.834  50.994  1.00  0.00     0.427 A 
HETATM   11  N5  UNL     1      24.227   3.620  50.825  1.00  0.00     0.155 N 
HETATM   12  C15 UNL     1      25.272   2.764  51.174  1.00  0.00     0.278 C 
HETATM   13  C16 UNL     1      26.436   3.085  50.247  1.00  0.00     0.035 C 
HETATM   14  C17 UNL     1      26.461   4.504  49.796  1.00  0.00    -0.003 C 
HETATM   15  C21 UNL     1      25.190   5.046  49.273  1.00  0.00     0.049 C 
HETATM   16  C22 UNL     1      24.175   5.031  50.361  1.00  0.00     0.306 C 
ENDROOT
BRANCH  10  17
HETATM   17  C8  UNL     1      22.888   1.697  51.659  1.00  0.00     0.063 C 
BRANCH  17  18
HETATM   18  C9  UNL     1      22.483   0.864  52.732  1.00  0.00    -0.036 A 
HETATM   19  C10 UNL     1      21.257   0.739  53.404  1.00  0.00     0.011 A 
HETATM   20  C11 UNL     1      21.146  -0.146  54.452  1.00  0.00     0.001 A 
HETATM   21  C12 UNL     1      22.225  -0.886  54.819  1.00  0.00     0.000 A 
HETATM   22  C13 UNL     1      23.460  -0.835  54.229  1.00  0.00     0.001 A 
HETATM   23  C14 UNL     1      23.535   0.056  53.189  1.00  0.00     0.011 A 
ENDBRANCH  17  18
ENDBRANCH  10  17
BRANCH   1  24
HETATM   24  N1  UNL     1      18.780   2.918  49.591  1.00  0.00    -0.382 N 
HETATM   25  H1  UNL     1      17.749   2.957  49.486  1.00  0.00     0.157 HD
HETATM   26  H2  UNL     1      19.232   2.039  49.890  1.00  0.00     0.157 HD
ENDBRANCH   1  24
BRANCH  14  27
HETATM   27  C18 UNL     1      27.501   4.581  48.676  1.00  0.00     0.085 C 
BRANCH  27  28
HETATM   28  C19 UNL     1      27.902   5.958  48.356  1.00  0.00     0.150 C 
HETATM   29  O1  UNL     1      27.578   7.112  48.174  1.00  0.00    -0.296 OA
BRANCH  28  30
HETATM   30  C20 UNL     1      29.396   5.981  48.154  1.00  0.00     0.242 C 
BRANCH  30  31
HETATM   31  O2  UNL     1      30.001   5.512  49.312  1.00  0.00    -0.394 OA
HETATM   32  H20 UNL     1      30.429   4.626  49.217  1.00  0.00     0.209 HD
ENDBRANCH  30  31
ENDBRANCH  28  30
ENDBRANCH  27  28
ENDBRANCH  14  27
TORSDOF 7
ENDMDL
MODEL 9
REMARK VINA RESULT:      -8.0      4.491      7.541
REMARK  7 active torsions:
REMARK  status: ('A' for Active; 'I' for Inactive)
REMARK    1  A    between atoms: N1_1  and  C1_2 
REMARK    2  A    between atoms: C7_11  and  C8_12 
REMARK    3  A    between atoms: C8_12  and  C9_13 
REMARK    4  A    between atoms: C17_22  and  C18_23 
REMARK    5  A    between atoms: C18_23  and  C19_24 
REMARK    6  A    between atoms: C19_24  and  C20_26 
REMARK    7  A    between atoms: C20_26  and  O2_27 
ROOT
HETATM    1  C1  UNL     1      17.847   1.608  49.475  1.00  0.00     0.147 A 
HETATM    2  N2  UNL     1      18.078   2.603  48.613  1.00  0.00    -0.240 NA
HETATM    3  C2  UNL     1      19.142   3.405  48.742  1.00  0.00     0.136 A 
HETATM    4  C3  UNL     1      20.066   3.282  49.748  1.00  0.00     0.118 A 
HETATM    5  N3  UNL     1      19.818   2.286  50.595  1.00  0.00    -0.298 N 
HETATM    6  C4  UNL     1      20.381   1.771  51.678  1.00  0.00     0.262 A 
HETATM    7  N4  UNL     1      19.659   0.755  52.103  1.00  0.00     0.205 N 
HETATM    8  C5  UNL     1      18.599   0.459  51.429  1.00  0.00     0.333 A 
HETATM    9  C6  UNL     1      18.782   1.449  50.529  1.00  0.00     0.111 A 
HETATM   10  C7  UNL     1      19.069  -0.298  52.681  1.00  0.00     0.427 A 
HETATM   11  N5  UNL     1      20.397   0.006  53.280  1.00  0.00     0.155 N 
HETATM   12  C15 UNL     1      20.696  -1.063  54.124  1.00  0.00     0.278 C 
HETATM   13  C16 UNL     1      22.197  -1.297  54.031  1.00  0.00     0.035 C 
HETATM   14  C17 UNL     1      22.972  -0.062  53.728  1.00  0.00    -0.003 C 
HETATM   15  C21 UNL     1      22.481   0.757  52.600  1.00  0.00     0.049 C 
HETATM   16  C22 UNL     1      21.117   1.257  52.923  1.00  0.00     0.306 C 
ENDROOT
BRANCH  10  17
HETATM   17  C8  UNL     1      18.234  -1.213  53.136  1.00  0.00     0.063 C 
BRANCH  17  18
HETATM   18  C9  UNL     1      17.215  -2.191  53.025  1.00  0.00    -0.036 A 
HETATM   19  C10 UNL     1      15.951  -2.156  52.413  1.00  0.00     0.011 A 
HETATM   20  C11 UNL     1      15.134  -3.260  52.482  1.00  0.00     0.001 A 
HETATM   21  C12 UNL     1      15.562  -4.369  53.141  1.00  0.00     0.000 A 
HETATM   22  C13 UNL     1      16.772  -4.500  53.770  1.00  0.00     0.001 A 
HETATM   23  C14 UNL     1      17.561  -3.382  53.681  1.00  0.00     0.011 A 
ENDBRANCH  17  18
ENDBRANCH  10  17
BRANCH   1  24
HETATM   24  N1  UNL     1      16.662   0.873  49.159  1.00  0.00    -0.382 N 
HETATM   25  H1  UNL     1      15.793   0.940  49.720  1.00  0.00     0.157 HD
HETATM   26  H2  UNL     1      16.693   0.252  48.334  1.00  0.00     0.157 HD
ENDBRANCH   1  24
BRANCH  14  27
HETATM   27  C18 UNL     1      24.394  -0.516  53.396  1.00  0.00     0.085 C 
BRANCH  27  28
HETATM   28  C19 UNL     1      25.403   0.522  53.644  1.00  0.00     0.150 C 
HETATM   29  O1  UNL     1      25.846   1.619  53.374  1.00  0.00    -0.296 OA
BRANCH  28  30
HETATM   30  C20 UNL     1      26.333   0.029  54.723  1.00  0.00     0.242 C 
BRANCH  30  31
HETATM   31  O2  UNL     1      27.201   1.059  55.057  1.00  0.00    -0.394 OA
HETATM   32  H20 UNL     1      26.781   1.954  55.080  1.00  0.00     0.209 HD
ENDBRANCH  30  31
ENDBRANCH  28  30
ENDBRANCH  27  28
ENDBRANCH  14  27
TORSDOF 7
ENDMDL
