MODEL 1
REMARK VINA RESULT:      -6.9      0.000      0.000
REMARK  5 active torsions:
REMARK  status: ('A' for Active; 'I' for Inactive)
REMARK    1  A    between atoms: N2_5  and  C4_6 
REMARK    2  A    between atoms: C7_9  and  N3_10 
REMARK       I    between atoms: N3_10  and  C8_11 
REMARK    3  A    between atoms: C8_11  and  C9_13 
REMARK    4  A    between atoms: C9_13  and  C10_14 
REMARK    5  A    between atoms: C10_14  and  C11_15 
ROOT
HETATM    1  C4  UNL     1      22.263  -0.144  52.916  1.00  0.00     0.030 A 
HETATM    2  C5  UNL     1      23.188   0.566  52.191  1.00  0.00     0.031 A 
HETATM    3  C6  UNL     1      24.535   0.533  52.539  1.00  0.00     0.032 A 
HETATM    4  C7  UNL     1      24.940  -0.220  53.621  1.00  0.00     0.034 A 
HETATM    5  C12 UNL     1      24.000  -0.933  54.346  1.00  0.00     0.032 A 
HETATM    6  C13 UNL     1      22.650  -0.899  53.996  1.00  0.00     0.031 A 
ENDROOT
BRANCH   4   7
HETATM    7  N3  UNL     1      26.264  -0.371  54.119  1.00  0.00    -0.327 N 
HETATM    8  C8  UNL     1      27.174   0.639  54.507  1.00  0.00     0.222 C 
HETATM    9  O1  UNL     1      26.800   1.846  54.415  1.00  0.00    -0.273 OA
HETATM   10  H10 UNL     1      26.509  -1.390  54.171  1.00  0.00     0.169 HD
BRANCH   8  11
HETATM   11  C9  UNL     1      28.508   0.162  54.994  1.00  0.00     0.110 C 
BRANCH  11  12
HETATM   12  C10 UNL     1      29.350  -0.038  53.731  1.00  0.00     0.078 C 
BRANCH  12  13
HETATM   13  C11 UNL     1      29.687  -1.452  53.520  1.00  0.00     0.231 C 
HETATM   14  O2  UNL     1      28.760  -2.201  53.385  1.00  0.00    -0.307 OA
ENDBRANCH  12  13
ENDBRANCH  11  12
ENDBRANCH   8  11
ENDBRANCH   4   7
BRANCH   1  15
HETATM   15  N2  UNL     1      20.928  -0.057  52.499  1.00  0.00    -0.378 N 
HETATM   16  C3  UNL     1      19.855  -0.451  53.393  1.00  0.00     0.153 C 
HETATM   17  C2  UNL     1      18.528  -0.484  52.650  1.00  0.00     0.291 C 
HETATM   18  N1  UNL     1      18.218   0.747  51.981  1.00  0.00     0.087 N 
HETATM   19  C1  UNL     1      17.441   0.512  50.762  1.00  0.00     0.310 C 
HETATM   20  C15 UNL     1      19.399   1.477  51.561  1.00  0.00     0.291 C 
HETATM   21  C14 UNL     1      20.441   0.404  51.216  1.00  0.00     0.153 C 
ENDBRANCH   1  15
TORSDOF 5
ENDMDL
MODEL 2
REMARK VINA RESULT:      -6.7      1.191      2.420
REMARK  5 active torsions:
REMARK  status: ('A' for Active; 'I' for Inactive)
REMARK    1  A    between atoms: N2_5  and  C4_6 
REMARK    2  A    between atoms: C7_9  and  N3_10 
REMARK       I    between atoms: N3_10  and  C8_11 
REMARK    3  A    between atoms: C8_11  and  C9_13 
REMARK    4  A    between atoms: C9_13  and  C10_14 
REMARK    5  A    between atoms: C10_14  and  C11_15 
ROOT
HETATM    1  C4  UNL     1      22.487   0.634  52.240  1.00  0.00     0.030 A 
HETATM    2  C5  UNL     1      22.762  -0.241  53.261  1.00  0.00     0.031 A 
HETATM    3  C6  UNL     1      24.068  -0.420  53.706  1.00  0.00     0.032 A 
HETATM    4  C7  UNL     1      25.092   0.290  53.114  1.00  0.00     0.034 A 
HETATM    5  C12 UNL     1      24.805   1.171  52.085  1.00  0.00     0.032 A 
HETATM    6  C13 UNL     1      23.495   1.349  51.640  1.00  0.00     0.031 A 
ENDROOT
BRANCH   4   7
HETATM    7  N3  UNL     1      26.476   0.236  53.436  1.00  0.00    -0.327 N 
HETATM    8  C8  UNL     1      27.401  -0.794  53.152  1.00  0.00     0.222 C 
HETATM    9  O1  UNL     1      26.984  -1.817  52.531  1.00  0.00    -0.273 OA
HETATM   10  H10 UNL     1      26.756   1.109  53.946  1.00  0.00     0.169 HD
BRANCH   8  11
HETATM   11  C9  UNL     1      28.804  -0.559  53.625  1.00  0.00     0.110 C 
BRANCH  11  12
HETATM   12  C10 UNL     1      28.675   0.413  54.801  1.00  0.00     0.078 C 
BRANCH  12  13
HETATM   13  C11 UNL     1      29.283   1.715  54.499  1.00  0.00     0.231 C 
HETATM   14  O2  UNL     1      28.533   2.573  54.126  1.00  0.00    -0.307 OA
ENDBRANCH  12  13
ENDBRANCH  11  12
ENDBRANCH   8  11
ENDBRANCH   4   7
BRANCH   1  15
HETATM   15  N2  UNL     1      21.146   0.756  51.852  1.00  0.00    -0.378 N 
HETATM   16  C3  UNL     1      20.783   0.711  50.447  1.00  0.00     0.153 C 
HETATM   17  C2  UNL     1      19.322   1.087  50.263  1.00  0.00     0.291 C 
HETATM   18  N1  UNL     1      18.424   0.295  51.054  1.00  0.00     0.087 N 
HETATM   19  C1  UNL     1      17.242   1.064  51.451  1.00  0.00     0.310 C 
HETATM   20  C15 UNL     1      19.022  -0.174  52.290  1.00  0.00     0.291 C 
HETATM   21  C14 UNL     1      19.998   0.931  52.717  1.00  0.00     0.153 C 
ENDBRANCH   1  15
TORSDOF 5
ENDMDL
MODEL 3
REMARK VINA RESULT:      -6.6      2.963      7.916
REMARK  5 active torsions:
REMARK  status: ('A' for Active; 'I' for Inactive)
REMARK    1  A    between atoms: N2_5  and  C4_6 
REMARK    2  A    between atoms: C7_9  and  N3_10 
REMARK       I    between atoms: N3_10  and  C8_11 
REMARK    3  A    between atoms: C8_11  and  C9_13 
REMARK    4  A    between atoms: C9_13  and  C10_14 
REMARK    5  A    between atoms: C10_14  and  C11_15 
ROOT
HETATM    1  C4  UNL     1      24.668   0.345  52.899  1.00  0.00     0.030 A 
HETATM    2  C5  UNL     1      24.353   1.290  51.954  1.00  0.00     0.031 A 
HETATM    3  C6  UNL     1      23.036   1.462  51.538  1.00  0.00     0.032 A 
HETATM    4  C7  UNL     1      22.043   0.676  52.083  1.00  0.00     0.034 A 
HETATM    5  C12 UNL     1      22.370  -0.275  53.036  1.00  0.00     0.032 A 
HETATM    6  C13 UNL     1      23.691  -0.446  53.451  1.00  0.00     0.031 A 
ENDROOT
BRANCH   4   7
HETATM    7  N3  UNL     1      20.653   0.712  51.781  1.00  0.00    -0.327 N 
HETATM    8  C8  UNL     1      19.704   1.696  52.141  1.00  0.00     0.222 C 
HETATM    9  O1  UNL     1      20.103   2.689  52.819  1.00  0.00    -0.273 OA
HETATM   10  H10 UNL     1      20.390  -0.135  51.221  1.00  0.00     0.169 HD
BRANCH   8  11
HETATM   11  C9  UNL     1      18.302   1.451  51.672  1.00  0.00     0.110 C 
BRANCH  11  12
HETATM   12  C10 UNL     1      18.263  -0.027  51.273  1.00  0.00     0.078 C 
BRANCH  12  13
HETATM   13  C11 UNL     1      17.618  -0.851  52.303  1.00  0.00     0.231 C 
HETATM   14  O2  UNL     1      18.330  -1.250  53.182  1.00  0.00    -0.307 OA
ENDBRANCH  12  13
ENDBRANCH  11  12
ENDBRANCH   8  11
ENDBRANCH   4   7
BRANCH   1  15
HETATM   15  N2  UNL     1      26.017   0.235  53.262  1.00  0.00    -0.378 N 
HETATM   16  C3  UNL     1      26.412   0.341  54.655  1.00  0.00     0.153 C 
HETATM   17  C2  UNL     1      27.926   0.418  54.774  1.00  0.00     0.291 C 
HETATM   18  N1  UNL     1      28.606  -0.666  54.125  1.00  0.00     0.087 N 
HETATM   19  C1  UNL     1      29.910  -0.246  53.606  1.00  0.00     0.310 C 
HETATM   20  C15 UNL     1      27.878  -1.189  52.985  1.00  0.00     0.291 C 
HETATM   21  C14 UNL     1      27.145   0.016  52.380  1.00  0.00     0.153 C 
ENDBRANCH   1  15
TORSDOF 5
ENDMDL
MODEL 4
REMARK VINA RESULT:      -6.5      3.331      8.426
REMARK  5 active torsions:
REMARK  status: ('A' for Active; 'I' for Inactive)
REMARK    1  A    between atoms: N2_5  and  C4_6 
REMARK    2  A    between atoms: C7_9  and  N3_10 
REMARK       I    between atoms: N3_10  and  C8_11 
REMARK    3  A    between atoms: C8_11  and  C9_13 
REMARK    4  A    between atoms: C9_13  and  C10_14 
REMARK    5  A    between atoms: C10_14  and  C11_15 
ROOT
HETATM    1  C4  UNL     1      24.506   0.605  52.826  1.00  0.00     0.030 A 
HETATM    2  C5  UNL     1      24.288   1.444  51.762  1.00  0.00     0.031 A 
HETATM    3  C6  UNL     1      22.994   1.704  51.321  1.00  0.00     0.032 A 
HETATM    4  C7  UNL     1      21.925   1.113  51.961  1.00  0.00     0.034 A 
HETATM    5  C12 UNL     1      22.155   0.268  53.034  1.00  0.00     0.032 A 
HETATM    6  C13 UNL     1      23.453   0.008  53.474  1.00  0.00     0.031 A 
ENDROOT
BRANCH   4   7
HETATM    7  N3  UNL     1      20.545   1.262  51.650  1.00  0.00    -0.327 N 
HETATM    8  C8  UNL     1      19.672   2.309  52.024  1.00  0.00     0.222 C 
HETATM    9  O1  UNL     1      20.140   3.255  52.724  1.00  0.00    -0.273 OA
HETATM   10  H10 UNL     1      20.222   0.449  51.071  1.00  0.00     0.169 HD
BRANCH   8  11
HETATM   11  C9  UNL     1      18.259   2.182  51.541  1.00  0.00     0.110 C 
BRANCH  11  12
HETATM   12  C10 UNL     1      17.739   3.619  51.435  1.00  0.00     0.078 C 
BRANCH  12  13
HETATM   13  C11 UNL     1      16.359   3.735  51.923  1.00  0.00     0.231 C 
HETATM   14  O2  UNL     1      16.189   4.475  52.851  1.00  0.00    -0.307 OA
ENDBRANCH  12  13
ENDBRANCH  11  12
ENDBRANCH   8  11
ENDBRANCH   4   7
BRANCH   1  15
HETATM   15  N2  UNL     1      25.838   0.396  53.207  1.00  0.00    -0.378 N 
HETATM   16  C3  UNL     1      26.199   0.340  54.611  1.00  0.00     0.153 C 
HETATM   17  C2  UNL     1      27.711   0.333  54.773  1.00  0.00     0.291 C 
HETATM   18  N1  UNL     1      28.360  -0.710  54.031  1.00  0.00     0.087 N 
HETATM   19  C1  UNL     1      29.695  -0.299  53.589  1.00  0.00     0.310 C 
HETATM   20  C15 UNL     1      27.641  -1.078  52.826  1.00  0.00     0.291 C 
HETATM   21  C14 UNL     1      26.979   0.216  52.333  1.00  0.00     0.153 C 
ENDBRANCH   1  15
TORSDOF 5
ENDMDL
MODEL 5
REMARK VINA RESULT:      -6.4      4.729      5.805
REMARK  5 active torsions:
REMARK  status: ('A' for Active; 'I' for Inactive)
REMARK    1  A    between atoms: N2_5  and  C4_6 
REMARK    2  A    between atoms: C7_9  and  N3_10 
REMARK       I    between atoms: N3_10  and  C8_11 
REMARK    3  A    between atoms: C8_11  and  C9_13 
REMARK    4  A    between atoms: C9_13  and  C10_14 
REMARK    5  A    between atoms: C10_14  and  C11_15 
ROOT
HETATM    1  C4  UNL     1      24.356   1.662  51.591  1.00  0.00     0.030 A 
HETATM    2  C5  UNL     1      23.688   2.348  50.606  1.00  0.00     0.031 A 
HETATM    3  C6  UNL     1      24.369   3.232  49.775  1.00  0.00     0.032 A 
HETATM    4  C7  UNL     1      25.725   3.418  49.945  1.00  0.00     0.034 A 
HETATM    5  C12 UNL     1      26.390   2.723  50.941  1.00  0.00     0.032 A 
HETATM    6  C13 UNL     1      25.706   1.837  51.774  1.00  0.00     0.031 A 
ENDROOT
BRANCH   4   7
HETATM    7  N3  UNL     1      26.578   4.275  49.195  1.00  0.00    -0.327 N 
HETATM    8  C8  UNL     1      26.573   5.687  49.143  1.00  0.00     0.222 C 
HETATM    9  O1  UNL     1      25.717   6.307  49.840  1.00  0.00    -0.273 OA
HETATM   10  H10 UNL     1      27.260   3.700  48.643  1.00  0.00     0.169 HD
BRANCH   8  11
HETATM   11  C9  UNL     1      27.604   6.309  48.251  1.00  0.00     0.110 C 
BRANCH  11  12
HETATM   12  C10 UNL     1      28.773   5.321  48.235  1.00  0.00     0.078 C 
BRANCH  12  13
HETATM   13  C11 UNL     1      30.066   6.004  48.367  1.00  0.00     0.231 C 
HETATM   14  O2  UNL     1      30.883   5.458  49.054  1.00  0.00    -0.307 OA
ENDBRANCH  12  13
ENDBRANCH  11  12
ENDBRANCH   8  11
ENDBRANCH   4   7
BRANCH   1  15
HETATM   15  N2  UNL     1      23.597   0.792  52.385  1.00  0.00    -0.378 N 
HETATM   16  C3  UNL     1      24.189   0.155  53.546  1.00  0.00     0.153 C 
HETATM   17  C2  UNL     1      23.254  -0.905  54.107  1.00  0.00     0.291 C 
HETATM   18  N1  UNL     1      21.940  -0.409  54.403  1.00  0.00     0.087 N 
HETATM   19  C1  UNL     1      20.923  -1.446  54.213  1.00  0.00     0.310 C 
HETATM   20  C15 UNL     1      21.545   0.693  53.546  1.00  0.00     0.291 C 
HETATM   21  C14 UNL     1      22.212   0.417  52.192  1.00  0.00     0.153 C 
ENDBRANCH   1  15
TORSDOF 5
ENDMDL
MODEL 6
REMARK VINA RESULT:      -6.3      3.786      4.489
REMARK  5 active torsions:
REMARK  status: ('A' for Active; 'I' for Inactive)
REMARK    1  A    between atoms: N2_5  and  C4_6 
REMARK    2  A    between atoms: C7_9  and  N3_10 
REMARK       I    between atoms: N3_10  and  C8_11 
REMARK    3  A    between atoms: C8_11  and  C9_13 
REMARK    4  A    between atoms: C9_13  and  C10_14 
REMARK    5  A    between atoms: C10_14  and  C11_15 
ROOT
HETATM    1  C4  UNL     1      24.303   3.756  51.648  1.00  0.00     0.030 A 
HETATM    2  C5  UNL     1      25.389   3.481  50.854  1.00  0.00     0.031 A 
HETATM    3  C6  UNL     1      26.371   2.593  51.283  1.00  0.00     0.032 A 
HETATM    4  C7  UNL     1      26.248   1.985  52.515  1.00  0.00     0.034 A 
HETATM    5  C12 UNL     1      25.149   2.268  53.309  1.00  0.00     0.032 A 
HETATM    6  C13 UNL     1      24.165   3.160  52.877  1.00  0.00     0.031 A 
ENDROOT
BRANCH   4   7
HETATM    7  N3  UNL     1      27.146   1.058  53.112  1.00  0.00    -0.327 N 
HETATM    8  C8  UNL     1      28.241   1.326  53.965  1.00  0.00     0.222 C 
HETATM    9  O1  UNL     1      28.487   2.533  54.260  1.00  0.00    -0.273 OA
HETATM   10  H10 UNL     1      26.888   0.082  52.829  1.00  0.00     0.169 HD
BRANCH   8  11
HETATM   11  C9  UNL     1      29.008   0.127  54.436  1.00  0.00     0.110 C 
BRANCH  11  12
HETATM   12  C10 UNL     1      29.347  -0.659  53.167  1.00  0.00     0.078 C 
BRANCH  12  13
HETATM   13  C11 UNL     1      29.476  -2.097  53.436  1.00  0.00     0.231 C 
HETATM   14  O2  UNL     1      28.522  -2.771  53.164  1.00  0.00    -0.307 OA
ENDBRANCH  12  13
ENDBRANCH  11  12
ENDBRANCH   8  11
ENDBRANCH   4   7
BRANCH   1  15
HETATM   15  N2  UNL     1      23.361   4.661  51.142  1.00  0.00    -0.378 N 
HETATM   16  C3  UNL     1      23.711   6.058  50.960  1.00  0.00     0.153 C 
HETATM   17  C2  UNL     1      22.476   6.877  50.620  1.00  0.00     0.291 C 
HETATM   18  N1  UNL     1      21.750   6.374  49.489  1.00  0.00     0.087 N 
HETATM   19  C1  UNL     1      20.314   6.634  49.617  1.00  0.00     0.310 C 
HETATM   20  C15 UNL     1      21.877   4.938  49.328  1.00  0.00     0.291 C 
HETATM   21  C14 UNL     1      21.996   4.376  50.752  1.00  0.00     0.153 C 
ENDBRANCH   1  15
TORSDOF 5
ENDMDL
MODEL 7
REMARK VINA RESULT:      -5.8      3.229      8.288
REMARK  5 active torsions:
REMARK  status: ('A' for Active; 'I' for Inactive)
REMARK    1  A    between atoms: N2_5  and  C4_6 
REMARK    2  A    between atoms: C7_9  and  N3_10 
REMARK       I    between atoms: N3_10  and  C8_11 
REMARK    3  A    between atoms: C8_11  and  C9_13 
REMARK    4  A    between atoms: C9_13  and  C10_14 
REMARK    5  A    between atoms: C10_14  and  C11_15 
ROOT
HETATM    1  C4  UNL     1      24.628   0.741  52.629  1.00  0.00     0.030 A 
HETATM    2  C5  UNL     1      23.863  -0.096  53.404  1.00  0.00     0.031 A 
HETATM    3  C6  UNL     1      22.497  -0.225  53.170  1.00  0.00     0.032 A 
HETATM    4  C7  UNL     1      21.911   0.495  52.150  1.00  0.00     0.034 A 
HETATM    5  C12 UNL     1      22.690   1.337  51.373  1.00  0.00     0.032 A 
HETATM    6  C13 UNL     1      24.059   1.465  51.610  1.00  0.00     0.031 A 
ENDROOT
BRANCH   4   7
HETATM    7  N3  UNL     1      20.541   0.489  51.769  1.00  0.00    -0.327 N 
HETATM    8  C8  UNL     1      19.546   1.450  52.062  1.00  0.00     0.222 C 
HETATM    9  O1  UNL     1      19.878   2.461  52.750  1.00  0.00    -0.273 OA
HETATM   10  H10 UNL     1      20.334  -0.370  51.204  1.00  0.00     0.169 HD
BRANCH   8  11
HETATM   11  C9  UNL     1      18.181   1.162  51.516  1.00  0.00     0.110 C 
BRANCH  11  12
HETATM   12  C10 UNL     1      18.340   1.192  49.994  1.00  0.00     0.078 C 
BRANCH  12  13
HETATM   13  C11 UNL     1      18.193   2.551  49.459  1.00  0.00     0.231 C 
HETATM   14  O2  UNL     1      17.848   2.632  48.313  1.00  0.00    -0.307 OA
ENDBRANCH  12  13
ENDBRANCH  11  12
ENDBRANCH   8  11
ENDBRANCH   4   7
BRANCH   1  15
HETATM   15  N2  UNL     1      25.994   0.814  52.931  1.00  0.00    -0.378 N 
HETATM   16  C3  UNL     1      26.619   2.097  53.192  1.00  0.00     0.153 C 
HETATM   17  C2  UNL     1      28.130   1.947  53.269  1.00  0.00     0.291 C 
HETATM   18  N1  UNL     1      28.559   0.960  54.219  1.00  0.00     0.087 N 
HETATM   19  C1  UNL     1      29.803   0.314  53.793  1.00  0.00     0.310 C 
HETATM   20  C15 UNL     1      27.598  -0.112  54.393  1.00  0.00     0.291 C 
HETATM   21  C14 UNL     1      26.928  -0.288  53.023  1.00  0.00     0.153 C 
ENDBRANCH   1  15
TORSDOF 5
ENDMDL
MODEL 8
REMARK VINA RESULT:      -5.8      3.473      8.281
REMARK  5 active torsions:
REMARK  status: ('A' for Active; 'I' for Inactive)
REMARK    1  A    between atoms: N2_5  and  C4_6 
REMARK    2  A    between atoms: C7_9  and  N3_10 
REMARK       I    between atoms: N3_10  and  C8_11 
REMARK    3  A    between atoms: C8_11  and  C9_13 
REMARK    4  A    between atoms: C9_13  and  C10_14 
REMARK    5  A    between atoms: C10_14  and  C11_15 
ROOT
HETATM    1  C4  UNL     1      24.118   0.700  53.063  1.00  0.00     0.030 A 
HETATM    2  C5  UNL     1      23.549  -0.536  53.245  1.00  0.00     0.031 A 
HETATM    3  C6  UNL     1      22.206  -0.747  52.950  1.00  0.00     0.032 A 
HETATM    4  C7  UNL     1      21.443   0.297  52.470  1.00  0.00     0.034 A 
HETATM    5  C12 UNL     1      22.025   1.540  52.289  1.00  0.00     0.032 A 
HETATM    6  C13 UNL     1      23.372   1.750  52.586  1.00  0.00     0.031 A 
ENDROOT
BRANCH   4   7
HETATM    7  N3  UNL     1      20.066   0.266  52.118  1.00  0.00    -0.327 N 
HETATM    8  C8  UNL     1      19.024  -0.475  52.721  1.00  0.00     0.222 C 
HETATM    9  O1  UNL     1      19.313  -1.219  53.705  1.00  0.00    -0.273 OA
HETATM   10  H10 UNL     1      19.894   0.901  51.300  1.00  0.00     0.169 HD
BRANCH   8  11
HETATM   11  C9  UNL     1      17.663  -0.297  52.118  1.00  0.00     0.110 C 
BRANCH  11  12
HETATM   12  C10 UNL     1      17.918   0.129  50.670  1.00  0.00     0.078 C 
BRANCH  12  13
HETATM   13  C11 UNL     1      16.802  -0.242  49.790  1.00  0.00     0.231 C 
HETATM   14  O2  UNL     1      16.398   0.619  49.059  1.00  0.00    -0.307 OA
ENDBRANCH  12  13
ENDBRANCH  11  12
ENDBRANCH   8  11
ENDBRANCH   4   7
BRANCH   1  15
HETATM   15  N2  UNL     1      25.476   0.828  53.384  1.00  0.00    -0.378 N 
HETATM   16  C3  UNL     1      26.300  -0.353  53.565  1.00  0.00     0.153 C 
HETATM   17  C2  UNL     1      27.662   0.029  54.124  1.00  0.00     0.291 C 
HETATM   18  N1  UNL     1      28.343   1.020  53.341  1.00  0.00     0.087 N 
HETATM   19  C1  UNL     1      29.187   1.875  54.179  1.00  0.00     0.310 C 
HETATM   20  C15 UNL     1      27.436   1.917  52.650  1.00  0.00     0.291 C 
HETATM   21  C14 UNL     1      26.218   2.057  53.572  1.00  0.00     0.153 C 
ENDBRANCH   1  15
TORSDOF 5
ENDMDL
MODEL 9
REMARK VINA RESULT:      -5.8      5.626      6.559
REMARK  5 active torsions:
REMARK  status: ('A' for Active; 'I' for Inactive)
REMARK    1  A    between atoms: N2_5  and  C4_6 
REMARK    2  A    between atoms: C7_9  and  N3_10 
REMARK       I    between atoms: N3_10  and  C8_11 
REMARK    3  A    between atoms: C8_11  and  C9_13 
REMARK    4  A    between atoms: C9_13  and  C10_14 
REMARK    5  A    between atoms: C10_14  and  C11_15 
ROOT
HETATM    1  C4  UNL     1      24.797   5.007  50.065  1.00  0.00     0.030 A 
HETATM    2  C5  UNL     1      25.920   4.493  49.465  1.00  0.00     0.031 A 
HETATM    3  C6  UNL     1      26.487   3.308  49.925  1.00  0.00     0.032 A 
HETATM    4  C7  UNL     1      25.913   2.648  50.991  1.00  0.00     0.034 A 
HETATM    5  C12 UNL     1      24.780   3.174  51.590  1.00  0.00     0.032 A 
HETATM    6  C13 UNL     1      24.213   4.363  51.127  1.00  0.00     0.031 A 
ENDROOT
BRANCH   4   7
HETATM    7  N3  UNL     1      26.351   1.435  51.591  1.00  0.00    -0.327 N 
HETATM    8  C8  UNL     1      27.439   1.238  52.472  1.00  0.00     0.222 C 
HETATM    9  O1  UNL     1      28.137   2.245  52.794  1.00  0.00    -0.273 OA
HETATM   10  H10 UNL     1      25.733   0.645  51.285  1.00  0.00     0.169 HD
BRANCH   8  11
HETATM   11  C9  UNL     1      27.652  -0.171  52.938  1.00  0.00     0.110 C 
BRANCH  11  12
HETATM   12  C10 UNL     1      26.251  -0.784  53.020  1.00  0.00     0.078 C 
BRANCH  12  13
HETATM   13  C11 UNL     1      25.627  -0.541  54.326  1.00  0.00     0.231 C 
HETATM   14  O2  UNL     1      26.366  -0.528  55.270  1.00  0.00    -0.307 OA
ENDBRANCH  12  13
ENDBRANCH  11  12
ENDBRANCH   8  11
ENDBRANCH   4   7
BRANCH   1  15
HETATM   15  N2  UNL     1      24.290   6.204  49.541  1.00  0.00    -0.378 N 
HETATM   16  C3  UNL     1      24.003   7.324  50.418  1.00  0.00     0.153 C 
HETATM   17  C2  UNL     1      23.259   8.414  49.664  1.00  0.00     0.291 C 
HETATM   18  N1  UNL     1      23.934   8.849  48.474  1.00  0.00     0.087 N 
HETATM   19  C1  UNL     1      22.982   9.268  47.443  1.00  0.00     0.310 C 
HETATM   20  C15 UNL     1      24.739   7.806  47.867  1.00  0.00     0.291 C 
HETATM   21  C14 UNL     1      23.993   6.495  48.154  1.00  0.00     0.153 C 
ENDBRANCH   1  15
TORSDOF 5
ENDMDL
