MODEL 1
REMARK VINA RESULT:      -8.9      0.000      0.000
REMARK  5 active torsions:
REMARK  status: ('A' for Active; 'I' for Inactive)
REMARK    1  A    between atoms: N1_2  and  C2_3 
REMARK    2  A    between atoms: C7_8  and  N2_9 
REMARK    3  A    between atoms: N2_9  and  C8_10 
REMARK    4  A    between atoms: C13_17  and  N4_18 
REMARK    5  A    between atoms: N4_18  and  C14_19 
ROOT
HETATM    1  C8  UNL     1      26.529   0.420  52.327  1.00  0.00     0.118 C 
HETATM    2  C9  UNL     1      26.748  -1.046  52.247  1.00  0.00     0.130 C 
HETATM    3  C10 UNL     1      27.870  -1.401  53.188  1.00  0.00     0.223 C 
HETATM    4  O1  UNL     1      28.597  -2.442  53.069  1.00  0.00    -0.273 OA
HETATM    5  N3  UNL     1      28.302  -0.656  54.344  1.00  0.00    -0.337 N 
HETATM    6  C11 UNL     1      27.510   0.255  55.135  1.00  0.00     0.089 C 
HETATM    7  C12 UNL     1      26.379   0.822  54.679  1.00  0.00     0.017 C 
HETATM    8  C13 UNL     1      25.543   0.803  53.394  1.00  0.00     0.129 C 
HETATM    9  H15 UNL     1      29.280  -0.710  54.737  1.00  0.00     0.168 HD
ENDROOT
BRANCH   1  10
HETATM   10  N2  UNL     1      26.176   1.006  51.037  1.00  0.00    -0.362 N 
HETATM   11  H11 UNL     1      26.638   0.561  50.190  1.00  0.00     0.162 HD
BRANCH  10  12
HETATM   12  C7  UNL     1      25.271   2.112  50.928  1.00  0.00     0.166 C 
HETATM   13  C6  UNL     1      23.960   2.042  50.669  1.00  0.00     0.058 C 
HETATM   14  C5  UNL     1      22.744   2.821  50.479  1.00  0.00     0.003 C 
HETATM   15  C4  UNL     1      22.553   4.140  50.514  1.00  0.00     0.019 C 
HETATM   16  C2  UNL     1      23.699   5.044  50.781  1.00  0.00     0.195 C 
HETATM   17  C3  UNL     1      23.124   6.453  50.927  1.00  0.00     0.059 C 
HETATM   18  C21 UNL     1      24.670   4.938  49.675  1.00  0.00    -0.025 C 
HETATM   19  C20 UNL     1      25.909   4.520  49.524  1.00  0.00     0.119 C 
HETATM   20  C22 UNL     1      23.932   5.428  48.484  1.00  0.00     0.048 C 
HETATM   21  N5  UNL     1      26.802   3.978  50.477  1.00  0.00    -0.270 N 
HETATM   22  O2  UNL     1      26.311   2.949  51.181  1.00  0.00    -0.221 OA
HETATM   23  H25 UNL     1      27.762   4.331  50.638  1.00  0.00     0.194 HD
BRANCH  16  24
HETATM   24  N1  UNL     1      24.381   4.747  52.026  1.00  0.00     0.096 N 
HETATM   25  C1  UNL     1      23.427   4.992  53.090  1.00  0.00     0.308 C 
HETATM   26  H4  UNL     1      24.769   3.790  52.058  1.00  0.00     0.317 HD
ENDBRANCH  16  24
ENDBRANCH  10  12
ENDBRANCH   1  10
BRANCH   8  27
HETATM   27  N4  UNL     1      24.457  -0.079  53.629  1.00  0.00    -0.380 N 
HETATM   28  H19 UNL     1      24.995  -0.993  53.804  1.00  0.00     0.160 HD
BRANCH  27  29
HETATM   29  C14 UNL     1      23.057  -0.245  53.738  1.00  0.00     0.028 A 
HETATM   30  C15 UNL     1      22.398  -1.379  54.155  1.00  0.00     0.029 A 
HETATM   31  C16 UNL     1      21.046  -1.563  54.268  1.00  0.00     0.002 A 
HETATM   32  C17 UNL     1      20.331  -0.443  53.908  1.00  0.00     0.000 A 
HETATM   33  C18 UNL     1      20.874   0.735  53.481  1.00  0.00     0.002 A 
HETATM   34  C19 UNL     1      22.235   0.825  53.399  1.00  0.00     0.029 A 
ENDBRANCH  27  29
ENDBRANCH   8  27
TORSDOF 5
ENDMDL
MODEL 2
REMARK VINA RESULT:      -8.6      2.232      5.933
REMARK  5 active torsions:
REMARK  status: ('A' for Active; 'I' for Inactive)
REMARK    1  A    between atoms: N1_2  and  C2_3 
REMARK    2  A    between atoms: C7_8  and  N2_9 
REMARK    3  A    between atoms: N2_9  and  C8_10 
REMARK    4  A    between atoms: C13_17  and  N4_18 
REMARK    5  A    between atoms: N4_18  and  C14_19 
ROOT
HETATM    1  C8  UNL     1      23.325   1.513  51.820  1.00  0.00     0.118 C 
HETATM    2  C9  UNL     1      22.876   2.655  52.655  1.00  0.00     0.130 C 
HETATM    3  C10 UNL     1      23.267   3.928  51.951  1.00  0.00     0.223 C 
HETATM    4  O1  UNL     1      23.434   5.047  52.541  1.00  0.00    -0.273 OA
HETATM    5  N3  UNL     1      23.511   4.100  50.541  1.00  0.00    -0.337 N 
HETATM    6  C11 UNL     1      22.978   3.301  49.463  1.00  0.00     0.089 C 
HETATM    7  C12 UNL     1      22.490   2.061  49.648  1.00  0.00     0.017 C 
HETATM    8  C13 UNL     1      22.294   1.086  50.815  1.00  0.00     0.129 C 
HETATM    9  H15 UNL     1      24.129   4.861  50.146  1.00  0.00     0.168 HD
ENDROOT
BRANCH   1  10
HETATM   10  N2  UNL     1      23.793   0.383  52.620  1.00  0.00    -0.362 N 
HETATM   11  H11 UNL     1      23.069  -0.368  52.818  1.00  0.00     0.162 HD
BRANCH  10  12
HETATM   12  C7  UNL     1      25.138   0.304  53.107  1.00  0.00     0.166 C 
HETATM   13  C6  UNL     1      25.515   0.203  54.387  1.00  0.00     0.058 C 
HETATM   14  C5  UNL     1      26.657   0.104  55.285  1.00  0.00     0.003 C 
HETATM   15  C4  UNL     1      27.963   0.085  55.016  1.00  0.00     0.019 C 
HETATM   16  C2  UNL     1      28.428   0.177  53.609  1.00  0.00     0.195 C 
HETATM   17  C3  UNL     1      29.941  -0.044  53.630  1.00  0.00     0.059 C 
HETATM   18  C21 UNL     1      28.054   1.494  53.059  1.00  0.00    -0.025 C 
HETATM   19  C20 UNL     1      27.258   1.947  52.113  1.00  0.00     0.119 C 
HETATM   20  C22 UNL     1      28.808   2.471  53.884  1.00  0.00     0.048 C 
HETATM   21  N5  UNL     1      26.414   1.237  51.228  1.00  0.00    -0.270 N 
HETATM   22  O2  UNL     1      25.576   0.378  51.822  1.00  0.00    -0.221 OA
HETATM   23  H25 UNL     1      26.424   1.354  50.199  1.00  0.00     0.194 HD
BRANCH  16  24
HETATM   24  N1  UNL     1      27.873  -0.856  52.758  1.00  0.00     0.096 N 
HETATM   25  C1  UNL     1      28.638  -2.061  53.013  1.00  0.00     0.308 C 
HETATM   26  H4  UNL     1      26.858  -0.996  52.899  1.00  0.00     0.317 HD
ENDBRANCH  16  24
ENDBRANCH  10  12
ENDBRANCH   1  10
BRANCH   8  27
HETATM   27  N4  UNL     1      20.930   1.178  51.196  1.00  0.00    -0.380 N 
HETATM   28  H19 UNL     1      20.816   2.247  51.219  1.00  0.00     0.160 HD
BRANCH  27  29
HETATM   29  C14 UNL     1      19.733   0.499  51.521  1.00  0.00     0.028 A 
HETATM   30  C15 UNL     1      18.592   0.440  50.755  1.00  0.00     0.029 A 
HETATM   31  C16 UNL     1      17.423  -0.210  51.048  1.00  0.00     0.002 A 
HETATM   32  C17 UNL     1      17.473  -0.856  52.263  1.00  0.00     0.000 A 
HETATM   33  C18 UNL     1      18.547  -0.868  53.107  1.00  0.00     0.002 A 
HETATM   34  C19 UNL     1      19.671  -0.189  52.729  1.00  0.00     0.029 A 
ENDBRANCH  27  29
ENDBRANCH   8  27
TORSDOF 5
ENDMDL
MODEL 3
REMARK VINA RESULT:      -8.5      4.149      6.811
REMARK  5 active torsions:
REMARK  status: ('A' for Active; 'I' for Inactive)
REMARK    1  A    between atoms: N1_2  and  C2_3 
REMARK    2  A    between atoms: C7_8  and  N2_9 
REMARK    3  A    between atoms: N2_9  and  C8_10 
REMARK    4  A    between atoms: C13_17  and  N4_18 
REMARK    5  A    between atoms: N4_18  and  C14_19 
ROOT
HETATM    1  C8  UNL     1      24.964   5.861  50.296  1.00  0.00     0.118 C 
HETATM    2  C9  UNL     1      23.951   5.901  51.381  1.00  0.00     0.130 C 
HETATM    3  C10 UNL     1      22.603   5.619  50.771  1.00  0.00     0.223 C 
HETATM    4  O1  UNL     1      21.496   5.987  51.287  1.00  0.00    -0.273 OA
HETATM    5  N3  UNL     1      22.337   4.911  49.544  1.00  0.00    -0.337 N 
HETATM    6  C11 UNL     1      23.176   3.919  48.914  1.00  0.00     0.089 C 
HETATM    7  C12 UNL     1      24.489   3.800  49.182  1.00  0.00     0.017 C 
HETATM    8  C13 UNL     1      25.527   4.486  50.077  1.00  0.00     0.129 C 
HETATM    9  H15 UNL     1      21.465   5.056  48.966  1.00  0.00     0.168 HD
ENDROOT
BRANCH   1  10
HETATM   10  N2  UNL     1      26.022   6.851  50.479  1.00  0.00    -0.362 N 
HETATM   11  H11 UNL     1      26.505   6.834  51.425  1.00  0.00     0.162 HD
BRANCH  10  12
HETATM   12  C7  UNL     1      26.375   7.783  49.450  1.00  0.00     0.166 C 
HETATM   13  C6  UNL     1      26.304   7.573  48.130  1.00  0.00     0.058 C 
HETATM   14  C5  UNL     1      26.534   8.165  46.819  1.00  0.00     0.003 C 
HETATM   15  C4  UNL     1      26.993   9.373  46.489  1.00  0.00     0.019 C 
HETATM   16  C2  UNL     1      27.357  10.339  47.555  1.00  0.00     0.195 C 
HETATM   17  C3  UNL     1      27.675  11.663  46.859  1.00  0.00     0.059 C 
HETATM   18  C21 UNL     1      28.503   9.811  48.320  1.00  0.00    -0.025 C 
HETATM   19  C20 UNL     1      28.728   9.405  49.552  1.00  0.00     0.119 C 
HETATM   20  C22 UNL     1      29.608   9.738  47.332  1.00  0.00     0.048 C 
HETATM   21  N5  UNL     1      27.846   9.337  50.655  1.00  0.00    -0.270 N 
HETATM   22  O2  UNL     1      26.703   8.680  50.417  1.00  0.00    -0.221 OA
HETATM   23  H25 UNL     1      28.044   9.752  51.582  1.00  0.00     0.194 HD
BRANCH  16  24
HETATM   24  N1  UNL     1      26.270  10.608  48.476  1.00  0.00     0.096 N 
HETATM   25  C1  UNL     1      25.644  11.838  48.030  1.00  0.00     0.308 C 
HETATM   26  H4  UNL     1      25.597   9.827  48.548  1.00  0.00     0.317 HD
ENDBRANCH  16  24
ENDBRANCH  10  12
ENDBRANCH   1  10
BRANCH   8  27
HETATM   27  N4  UNL     1      25.692   3.656  51.216  1.00  0.00    -0.380 N 
HETATM   28  H19 UNL     1      26.137   4.361  51.896  1.00  0.00     0.160 HD
BRANCH  27  29
HETATM   29  C14 UNL     1      25.514   2.380  51.800  1.00  0.00     0.028 A 
HETATM   30  C15 UNL     1      24.441   1.970  52.558  1.00  0.00     0.029 A 
HETATM   31  C16 UNL     1      24.247   0.742  53.132  1.00  0.00     0.002 A 
HETATM   32  C17 UNL     1      25.284  -0.127  52.876  1.00  0.00     0.000 A 
HETATM   33  C18 UNL     1      26.396   0.168  52.140  1.00  0.00     0.002 A 
HETATM   34  C19 UNL     1      26.502   1.421  51.606  1.00  0.00     0.029 A 
ENDBRANCH  27  29
ENDBRANCH   8  27
TORSDOF 5
ENDMDL
MODEL 4
REMARK VINA RESULT:      -8.5      6.443     10.232
REMARK  5 active torsions:
REMARK  status: ('A' for Active; 'I' for Inactive)
REMARK    1  A    between atoms: N1_2  and  C2_3 
REMARK    2  A    between atoms: C7_8  and  N2_9 
REMARK    3  A    between atoms: N2_9  and  C8_10 
REMARK    4  A    between atoms: C13_17  and  N4_18 
REMARK    5  A    between atoms: N4_18  and  C14_19 
ROOT
HETATM    1  C8  UNL     1      29.480   8.168  48.308  1.00  0.00     0.118 C 
HETATM    2  C9  UNL     1      28.765   8.998  49.311  1.00  0.00     0.130 C 
HETATM    3  C10 UNL     1      28.499  10.347  48.694  1.00  0.00     0.223 C 
HETATM    4  O1  UNL     1      28.310  11.414  49.366  1.00  0.00    -0.273 OA
HETATM    5  N3  UNL     1      28.414  10.657  47.288  1.00  0.00    -0.337 N 
HETATM    6  C11 UNL     1      28.064   9.752  46.219  1.00  0.00     0.089 C 
HETATM    7  C12 UNL     1      28.142   8.414  46.342  1.00  0.00     0.017 C 
HETATM    8  C13 UNL     1      28.545   7.400  47.418  1.00  0.00     0.129 C 
HETATM    9  H15 UNL     1      28.607  11.616  46.892  1.00  0.00     0.168 HD
ENDROOT
BRANCH   1  10
HETATM   10  N2  UNL     1      30.481   7.295  48.915  1.00  0.00    -0.362 N 
HETATM   11  H11 UNL     1      30.573   7.369  49.970  1.00  0.00     0.162 HD
BRANCH  10  12
HETATM   12  C7  UNL     1      31.287   6.407  48.131  1.00  0.00     0.166 C 
HETATM   13  C6  UNL     1      30.996   5.138  47.820  1.00  0.00     0.058 C 
HETATM   14  C5  UNL     1      31.463   3.950  47.117  1.00  0.00     0.003 C 
HETATM   15  C4  UNL     1      32.582   3.747  46.421  1.00  0.00     0.019 C 
HETATM   16  C2  UNL     1      33.575   4.842  46.285  1.00  0.00     0.195 C 
HETATM   17  C3  UNL     1      34.639   4.353  45.302  1.00  0.00     0.059 C 
HETATM   18  C21 UNL     1      34.133   5.161  47.613  1.00  0.00    -0.025 C 
HETATM   19  C20 UNL     1      34.122   6.188  48.436  1.00  0.00     0.119 C 
HETATM   20  C22 UNL     1      34.832   3.920  48.031  1.00  0.00     0.048 C 
HETATM   21  N5  UNL     1      33.503   7.451  48.295  1.00  0.00    -0.270 N 
HETATM   22  O2  UNL     1      32.199   7.404  47.991  1.00  0.00    -0.221 OA
HETATM   23  H25 UNL     1      33.995   8.355  48.411  1.00  0.00     0.194 HD
BRANCH  16  24
HETATM   24  N1  UNL     1      33.014   6.052  45.716  1.00  0.00     0.096 N 
HETATM   25  C1  UNL     1      33.886   6.440  44.624  1.00  0.00     0.308 C 
HETATM   26  H4  UNL     1      32.032   5.940  45.414  1.00  0.00     0.317 HD
ENDBRANCH  16  24
ENDBRANCH  10  12
ENDBRANCH   1  10
BRANCH   8  27
HETATM   27  N4  UNL     1      27.340   6.918  47.993  1.00  0.00    -0.380 N 
HETATM   28  H19 UNL     1      26.734   7.803  47.923  1.00  0.00     0.160 HD
BRANCH  27  29
HETATM   29  C14 UNL     1      26.644   5.829  48.568  1.00  0.00     0.028 A 
HETATM   30  C15 UNL     1      25.304   5.787  48.876  1.00  0.00     0.029 A 
HETATM   31  C16 UNL     1      24.609   4.746  49.432  1.00  0.00     0.002 A 
HETATM   32  C17 UNL     1      25.410   3.653  49.680  1.00  0.00     0.000 A 
HETATM   33  C18 UNL     1      26.748   3.580  49.417  1.00  0.00     0.002 A 
HETATM   34  C19 UNL     1      27.356   4.670  48.862  1.00  0.00     0.029 A 
ENDBRANCH  27  29
ENDBRANCH   8  27
TORSDOF 5
ENDMDL
MODEL 5
REMARK VINA RESULT:      -8.5      2.473      7.789
REMARK  5 active torsions:
REMARK  status: ('A' for Active; 'I' for Inactive)
REMARK    1  A    between atoms: N1_2  and  C2_3 
REMARK    2  A    between atoms: C7_8  and  N2_9 
REMARK    3  A    between atoms: N2_9  and  C8_10 
REMARK    4  A    between atoms: C13_17  and  N4_18 
REMARK    5  A    between atoms: N4_18  and  C14_19 
ROOT
HETATM    1  C8  UNL     1      25.176   4.122  50.368  1.00  0.00     0.118 C 
HETATM    2  C9  UNL     1      24.882   3.461  49.071  1.00  0.00     0.130 C 
HETATM    3  C10 UNL     1      23.390   3.483  48.864  1.00  0.00     0.223 C 
HETATM    4  O1  UNL     1      22.762   2.662  48.118  1.00  0.00    -0.273 OA
HETATM    5  N3  UNL     1      22.446   4.402  49.451  1.00  0.00    -0.337 N 
HETATM    6  C11 UNL     1      22.715   5.740  49.921  1.00  0.00     0.089 C 
HETATM    7  C12 UNL     1      23.952   6.171  50.226  1.00  0.00     0.017 C 
HETATM    8  C13 UNL     1      25.377   5.604  50.232  1.00  0.00     0.129 C 
HETATM    9  H15 UNL     1      21.426   4.172  49.597  1.00  0.00     0.168 HD
ENDROOT
BRANCH   1  10
HETATM   10  N2  UNL     1      26.286   3.494  51.079  1.00  0.00    -0.362 N 
HETATM   11  H11 UNL     1      27.224   3.984  50.988  1.00  0.00     0.162 HD
BRANCH  10  12
HETATM   12  C7  UNL     1      26.116   2.293  51.842  1.00  0.00     0.166 C 
HETATM   13  C6  UNL     1      26.538   1.069  51.501  1.00  0.00     0.058 C 
HETATM   14  C5  UNL     1      26.590  -0.327  51.913  1.00  0.00     0.003 C 
HETATM   15  C4  UNL     1      26.114  -0.919  53.009  1.00  0.00     0.019 C 
HETATM   16  C2  UNL     1      25.400  -0.113  54.031  1.00  0.00     0.195 C 
HETATM   17  C3  UNL     1      25.142  -1.039  55.220  1.00  0.00     0.059 C 
HETATM   18  C21 UNL     1      24.155   0.421  53.446  1.00  0.00    -0.025 C 
HETATM   19  C20 UNL     1      23.667   1.607  53.150  1.00  0.00     0.119 C 
HETATM   20  C22 UNL     1      23.348  -0.782  53.125  1.00  0.00     0.048 C 
HETATM   21  N5  UNL     1      24.244   2.887  53.315  1.00  0.00    -0.270 N 
HETATM   22  O2  UNL     1      25.468   3.021  52.789  1.00  0.00    -0.221 OA
HETATM   23  H25 UNL     1      23.778   3.675  53.800  1.00  0.00     0.194 HD
BRANCH  16  24
HETATM   24  N1  UNL     1      26.187   0.995  54.535  1.00  0.00     0.096 N 
HETATM   25  C1  UNL     1      27.426   0.430  55.035  1.00  0.00     0.308 C 
HETATM   26  H4  UNL     1      26.348   1.733  53.829  1.00  0.00     0.317 HD
ENDBRANCH  16  24
ENDBRANCH  10  12
ENDBRANCH   1  10
BRANCH   8  27
HETATM   27  N4  UNL     1      26.006   6.075  49.050  1.00  0.00    -0.380 N 
HETATM   28  H19 UNL     1      25.140   6.265  48.442  1.00  0.00     0.160 HD
BRANCH  27  29
HETATM   29  C14 UNL     1      27.214   6.392  48.387  1.00  0.00     0.028 A 
HETATM   30  C15 UNL     1      27.452   7.502  47.609  1.00  0.00     0.029 A 
HETATM   31  C16 UNL     1      28.611   7.830  46.958  1.00  0.00     0.002 A 
HETATM   32  C17 UNL     1      29.605   6.896  47.152  1.00  0.00     0.000 A 
HETATM   33  C18 UNL     1      29.484   5.761  47.901  1.00  0.00     0.002 A 
HETATM   34  C19 UNL     1      28.288   5.517  48.514  1.00  0.00     0.029 A 
ENDBRANCH  27  29
ENDBRANCH   8  27
TORSDOF 5
ENDMDL
MODEL 6
REMARK VINA RESULT:      -8.4      3.053      5.385
REMARK  5 active torsions:
REMARK  status: ('A' for Active; 'I' for Inactive)
REMARK    1  A    between atoms: N1_2  and  C2_3 
REMARK    2  A    between atoms: C7_8  and  N2_9 
REMARK    3  A    between atoms: N2_9  and  C8_10 
REMARK    4  A    between atoms: C13_17  and  N4_18 
REMARK    5  A    between atoms: N4_18  and  C14_19 
ROOT
HETATM    1  C8  UNL     1      22.090   2.988  51.429  1.00  0.00     0.118 C 
HETATM    2  C9  UNL     1      20.971   3.081  52.398  1.00  0.00     0.130 C 
HETATM    3  C10 UNL     1      19.679   3.028  51.625  1.00  0.00     0.223 C 
HETATM    4  O1  UNL     1      18.573   3.501  52.050  1.00  0.00    -0.273 OA
HETATM    5  N3  UNL     1      19.473   2.456  50.318  1.00  0.00    -0.337 N 
HETATM    6  C11 UNL     1      20.251   1.411  49.695  1.00  0.00     0.089 C 
HETATM    7  C12 UNL     1      21.498   1.097  50.091  1.00  0.00     0.017 C 
HETATM    8  C13 UNL     1      22.500   1.570  51.150  1.00  0.00     0.129 C 
HETATM    9  H15 UNL     1      18.700   2.759  49.666  1.00  0.00     0.168 HD
ENDROOT
BRANCH   1  10
HETATM   10  N2  UNL     1      23.235   3.811  51.812  1.00  0.00    -0.362 N 
HETATM   11  H11 UNL     1      23.466   3.818  52.848  1.00  0.00     0.162 HD
BRANCH  10  12
HETATM   12  C7  UNL     1      23.986   4.561  50.849  1.00  0.00     0.166 C 
HETATM   13  C6  UNL     1      25.193   4.246  50.364  1.00  0.00     0.058 C 
HETATM   14  C5  UNL     1      26.254   4.662  49.457  1.00  0.00     0.003 C 
HETATM   15  C4  UNL     1      26.339   5.734  48.667  1.00  0.00     0.019 C 
HETATM   16  C2  UNL     1      25.229   6.719  48.639  1.00  0.00     0.195 C 
HETATM   17  C3  UNL     1      25.554   7.716  47.526  1.00  0.00     0.059 C 
HETATM   18  C21 UNL     1      25.118   7.363  49.962  1.00  0.00    -0.025 C 
HETATM   19  C20 UNL     1      24.230   7.409  50.934  1.00  0.00     0.119 C 
HETATM   20  C22 UNL     1      26.403   8.083  50.136  1.00  0.00     0.048 C 
HETATM   21  N5  UNL     1      22.964   6.786  51.030  1.00  0.00    -0.270 N 
HETATM   22  O2  UNL     1      22.972   5.465  50.808  1.00  0.00    -0.221 OA
HETATM   23  H25 UNL     1      22.087   7.288  51.253  1.00  0.00     0.194 HD
BRANCH  16  24
HETATM   24  N1  UNL     1      23.950   6.127  48.302  1.00  0.00     0.096 N 
HETATM   25  C1  UNL     1      23.369   6.956  47.264  1.00  0.00     0.308 C 
HETATM   26  H4  UNL     1      24.024   5.136  48.019  1.00  0.00     0.317 HD
ENDBRANCH  16  24
ENDBRANCH  10  12
ENDBRANCH   1  10
BRANCH   8  27
HETATM   27  N4  UNL     1      22.426   0.643  52.222  1.00  0.00    -0.380 N 
HETATM   28  H19 UNL     1      21.405   0.321  52.118  1.00  0.00     0.160 HD
BRANCH  27  29
HETATM   29  C14 UNL     1      23.091  -0.003  53.289  1.00  0.00     0.028 A 
HETATM   30  C15 UNL     1      24.452  -0.071  53.483  1.00  0.00     0.029 A 
HETATM   31  C16 UNL     1      25.118  -0.690  54.506  1.00  0.00     0.002 A 
HETATM   32  C17 UNL     1      24.262  -1.289  55.404  1.00  0.00     0.000 A 
HETATM   33  C18 UNL     1      22.900  -1.287  55.315  1.00  0.00     0.002 A 
HETATM   34  C19 UNL     1      22.324  -0.643  54.257  1.00  0.00     0.029 A 
ENDBRANCH  27  29
ENDBRANCH   8  27
TORSDOF 5
ENDMDL
MODEL 7
REMARK VINA RESULT:      -8.3      3.110      5.737
REMARK  5 active torsions:
REMARK  status: ('A' for Active; 'I' for Inactive)
REMARK    1  A    between atoms: N1_2  and  C2_3 
REMARK    2  A    between atoms: C7_8  and  N2_9 
REMARK    3  A    between atoms: N2_9  and  C8_10 
REMARK    4  A    between atoms: C13_17  and  N4_18 
REMARK    5  A    between atoms: N4_18  and  C14_19 
ROOT
HETATM    1  C8  UNL     1      23.522   4.928  51.368  1.00  0.00     0.118 C 
HETATM    2  C9  UNL     1      22.749   4.441  52.538  1.00  0.00     0.130 C 
HETATM    3  C10 UNL     1      21.510   3.755  52.025  1.00  0.00     0.223 C 
HETATM    4  O1  UNL     1      20.442   3.607  52.708  1.00  0.00    -0.273 OA
HETATM    5  N3  UNL     1      21.320   3.167  50.723  1.00  0.00    -0.337 N 
HETATM    6  C11 UNL     1      22.344   2.656  49.843  1.00  0.00     0.089 C 
HETATM    7  C12 UNL     1      23.639   3.006  49.952  1.00  0.00     0.017 C 
HETATM    8  C13 UNL     1      24.494   3.908  50.848  1.00  0.00     0.129 C 
HETATM    9  H15 UNL     1      20.372   3.047  50.272  1.00  0.00     0.168 HD
ENDROOT
BRANCH   1  10
HETATM   10  N2  UNL     1      24.174   6.210  51.621  1.00  0.00    -0.362 N 
HETATM   11  H11 UNL     1      24.521   6.359  52.614  1.00  0.00     0.162 HD
BRANCH  10  12
HETATM   12  C7  UNL     1      24.328   7.198  50.595  1.00  0.00     0.166 C 
HETATM   13  C6  UNL     1      23.346   7.899  50.014  1.00  0.00     0.058 C 
HETATM   14  C5  UNL     1      23.042   8.917  49.017  1.00  0.00     0.003 C 
HETATM   15  C4  UNL     1      23.855   9.596  48.207  1.00  0.00     0.019 C 
HETATM   16  C2  UNL     1      25.317   9.346  48.250  1.00  0.00     0.195 C 
HETATM   17  C3  UNL     1      25.969  10.389  47.342  1.00  0.00     0.059 C 
HETATM   18  C21 UNL     1      25.587   7.963  47.811  1.00  0.00    -0.025 C 
HETATM   19  C20 UNL     1      26.069   6.863  48.351  1.00  0.00     0.119 C 
HETATM   20  C22 UNL     1      25.129   7.924  46.400  1.00  0.00     0.048 C 
HETATM   21  N5  UNL     1      26.529   6.630  49.667  1.00  0.00    -0.270 N 
HETATM   22  O2  UNL     1      25.669   6.985  50.631  1.00  0.00    -0.221 OA
HETATM   23  H25 UNL     1      27.452   6.221  49.894  1.00  0.00     0.194 HD
BRANCH  16  24
HETATM   24  N1  UNL     1      25.889   9.534  49.569  1.00  0.00     0.096 N 
HETATM   25  C1  UNL     1      27.195  10.134  49.374  1.00  0.00     0.308 C 
HETATM   26  H4  UNL     1      25.287  10.094  50.195  1.00  0.00     0.317 HD
ENDBRANCH  16  24
ENDBRANCH  10  12
ENDBRANCH   1  10
BRANCH   8  27
HETATM   27  N4  UNL     1      25.123   3.059  51.796  1.00  0.00    -0.380 N 
HETATM   28  H19 UNL     1      25.560   3.798  52.445  1.00  0.00     0.160 HD
BRANCH  27  29
HETATM   29  C14 UNL     1      25.386   1.738  52.226  1.00  0.00     0.028 A 
HETATM   30  C15 UNL     1      26.511   0.996  51.946  1.00  0.00     0.029 A 
HETATM   31  C16 UNL     1      26.787  -0.283  52.350  1.00  0.00     0.002 A 
HETATM   32  C17 UNL     1      25.779  -0.820  53.120  1.00  0.00     0.000 A 
HETATM   33  C18 UNL     1      24.622  -0.180  53.460  1.00  0.00     0.002 A 
HETATM   34  C19 UNL     1      24.434   1.096  53.010  1.00  0.00     0.029 A 
ENDBRANCH  27  29
ENDBRANCH   8  27
TORSDOF 5
ENDMDL
MODEL 8
REMARK VINA RESULT:      -8.2      6.350     10.300
REMARK  5 active torsions:
REMARK  status: ('A' for Active; 'I' for Inactive)
REMARK    1  A    between atoms: N1_2  and  C2_3 
REMARK    2  A    between atoms: C7_8  and  N2_9 
REMARK    3  A    between atoms: N2_9  and  C8_10 
REMARK    4  A    between atoms: C13_17  and  N4_18 
REMARK    5  A    between atoms: N4_18  and  C14_19 
ROOT
HETATM    1  C8  UNL     1      29.643   9.122  48.276  1.00  0.00     0.118 C 
HETATM    2  C9  UNL     1      28.794   9.839  49.260  1.00  0.00     0.130 C 
HETATM    3  C10 UNL     1      27.872  10.756  48.499  1.00  0.00     0.223 C 
HETATM    4  O1  UNL     1      27.335  11.800  48.996  1.00  0.00    -0.273 OA
HETATM    5  N3  UNL     1      27.451  10.619  47.127  1.00  0.00    -0.337 N 
HETATM    6  C11 UNL     1      27.381   9.400  46.357  1.00  0.00     0.089 C 
HETATM    7  C12 UNL     1      28.059   8.287  46.693  1.00  0.00     0.017 C 
HETATM    8  C13 UNL     1      29.022   7.840  47.798  1.00  0.00     0.129 C 
HETATM    9  H15 UNL     1      27.140  11.433  46.531  1.00  0.00     0.168 HD
ENDROOT
BRANCH   1  10
HETATM   10  N2  UNL     1      31.005   8.910  48.760  1.00  0.00    -0.362 N 
HETATM   11  H11 UNL     1      31.326   9.569  49.528  1.00  0.00     0.162 HD
BRANCH  10  12
HETATM   12  C7  UNL     1      31.849   7.883  48.223  1.00  0.00     0.166 C 
HETATM   13  C6  UNL     1      32.296   7.800  46.965  1.00  0.00     0.058 C 
HETATM   14  C5  UNL     1      33.100   7.013  46.039  1.00  0.00     0.003 C 
HETATM   15  C4  UNL     1      33.777   5.881  46.236  1.00  0.00     0.019 C 
HETATM   16  C2  UNL     1      33.769   5.240  47.575  1.00  0.00     0.195 C 
HETATM   17  C3  UNL     1      34.762   4.079  47.514  1.00  0.00     0.059 C 
HETATM   18  C21 UNL     1      32.398   4.799  47.895  1.00  0.00    -0.025 C 
HETATM   19  C20 UNL     1      31.476   5.103  48.784  1.00  0.00     0.119 C 
HETATM   20  C22 UNL     1      32.086   3.776  46.866  1.00  0.00     0.048 C 
HETATM   21  N5  UNL     1      31.509   6.056  49.828  1.00  0.00    -0.270 N 
HETATM   22  O2  UNL     1      31.857   7.292  49.447  1.00  0.00    -0.221 OA
HETATM   23  H25 UNL     1      31.286   5.841  50.816  1.00  0.00     0.194 HD
BRANCH  16  24
HETATM   24  N1  UNL     1      34.231   6.121  48.630  1.00  0.00     0.096 N 
HETATM   25  C1  UNL     1      35.395   5.489  49.219  1.00  0.00     0.308 C 
HETATM   26  H4  UNL     1      34.428   7.080  48.300  1.00  0.00     0.317 HD
ENDBRANCH  16  24
ENDBRANCH  10  12
ENDBRANCH   1  10
BRANCH   8  27
HETATM   27  N4  UNL     1      28.254   7.096  48.731  1.00  0.00    -0.380 N 
HETATM   28  H19 UNL     1      28.555   7.577  49.644  1.00  0.00     0.160 HD
BRANCH  27  29
HETATM   29  C14 UNL     1      27.310   6.066  48.947  1.00  0.00     0.028 A 
HETATM   30  C15 UNL     1      27.564   4.714  48.958  1.00  0.00     0.029 A 
HETATM   31  C16 UNL     1      26.667   3.699  49.165  1.00  0.00     0.002 A 
HETATM   32  C17 UNL     1      25.389   4.164  49.380  1.00  0.00     0.000 A 
HETATM   33  C18 UNL     1      25.020   5.478  49.392  1.00  0.00     0.002 A 
HETATM   34  C19 UNL     1      25.984   6.421  49.175  1.00  0.00     0.029 A 
ENDBRANCH  27  29
ENDBRANCH   8  27
TORSDOF 5
ENDMDL
MODEL 9
REMARK VINA RESULT:      -8.1      3.163      5.916
REMARK  5 active torsions:
REMARK  status: ('A' for Active; 'I' for Inactive)
REMARK    1  A    between atoms: N1_2  and  C2_3 
REMARK    2  A    between atoms: C7_8  and  N2_9 
REMARK    3  A    between atoms: N2_9  and  C8_10 
REMARK    4  A    between atoms: C13_17  and  N4_18 
REMARK    5  A    between atoms: N4_18  and  C14_19 
ROOT
HETATM    1  C8  UNL     1      23.752   4.731  51.088  1.00  0.00     0.118 C 
HETATM    2  C9  UNL     1      22.920   4.477  52.291  1.00  0.00     0.130 C 
HETATM    3  C10 UNL     1      21.610   3.889  51.836  1.00  0.00     0.223 C 
HETATM    4  O1  UNL     1      20.529   3.950  52.510  1.00  0.00    -0.273 OA
HETATM    5  N3  UNL     1      21.356   3.183  50.605  1.00  0.00    -0.337 N 
HETATM    6  C11 UNL     1      22.316   2.456  49.808  1.00  0.00     0.089 C 
HETATM    7  C12 UNL     1      23.643   2.659  49.901  1.00  0.00     0.017 C 
HETATM    8  C13 UNL     1      24.597   3.549  50.705  1.00  0.00     0.129 C 
HETATM    9  H15 UNL     1      20.404   3.127  50.153  1.00  0.00     0.168 HD
ENDROOT
BRANCH   1  10
HETATM   10  N2  UNL     1      24.553   5.946  51.206  1.00  0.00    -0.362 N 
HETATM   11  H11 UNL     1      24.435   6.486  52.113  1.00  0.00     0.162 HD
BRANCH  10  12
HETATM   12  C7  UNL     1      25.433   6.379  50.161  1.00  0.00     0.166 C 
HETATM   13  C6  UNL     1      26.371   5.640  49.557  1.00  0.00     0.058 C 
HETATM   14  C5  UNL     1      27.413   5.644  48.538  1.00  0.00     0.003 C 
HETATM   15  C4  UNL     1      27.823   6.623  47.731  1.00  0.00     0.019 C 
HETATM   16  C2  UNL     1      27.181   7.959  47.807  1.00  0.00     0.195 C 
HETATM   17  C3  UNL     1      27.748   8.787  46.654  1.00  0.00     0.059 C 
HETATM   18  C21 UNL     1      27.459   8.558  49.127  1.00  0.00    -0.025 C 
HETATM   19  C20 UNL     1      26.760   8.912  50.185  1.00  0.00     0.119 C 
HETATM   20  C22 UNL     1      28.933   8.725  49.157  1.00  0.00     0.048 C 
HETATM   21  N5  UNL     1      25.369   8.820  50.421  1.00  0.00    -0.270 N 
HETATM   22  O2  UNL     1      24.847   7.603  50.215  1.00  0.00    -0.221 OA
HETATM   23  H25 UNL     1      24.779   9.613  50.728  1.00  0.00     0.194 HD
BRANCH  16  24
HETATM   24  N1  UNL     1      25.745   7.913  47.613  1.00  0.00     0.096 N 
HETATM   25  C1  UNL     1      25.472   8.599  46.365  1.00  0.00     0.308 C 
HETATM   26  H4  UNL     1      25.365   6.951  47.625  1.00  0.00     0.317 HD
ENDBRANCH  16  24
ENDBRANCH  10  12
ENDBRANCH   1  10
BRANCH   8  27
HETATM   27  N4  UNL     1      25.114   2.746  51.754  1.00  0.00    -0.380 N 
HETATM   28  H19 UNL     1      25.389   3.513  52.456  1.00  0.00     0.160 HD
BRANCH  27  29
HETATM   29  C14 UNL     1      25.387   1.446  52.238  1.00  0.00     0.028 A 
HETATM   30  C15 UNL     1      24.600   0.709  53.094  1.00  0.00     0.029 A 
HETATM   31  C16 UNL     1      24.844  -0.549  53.575  1.00  0.00     0.002 A 
HETATM   32  C17 UNL     1      26.028  -1.071  53.105  1.00  0.00     0.000 A 
HETATM   33  C18 UNL     1      26.888  -0.435  52.255  1.00  0.00     0.002 A 
HETATM   34  C19 UNL     1      26.560   0.820  51.828  1.00  0.00     0.029 A 
ENDBRANCH  27  29
ENDBRANCH   8  27
TORSDOF 5
ENDMDL
