MODEL 1
REMARK VINA RESULT:      -7.3      0.000      0.000
REMARK  5 active torsions:
REMARK  status: ('A' for Active; 'I' for Inactive)
REMARK    1  A    between atoms: C6_7  and  C7_8 
REMARK    2  A    between atoms: C10_13  and  N2_14 
REMARK       I    between atoms: N2_14  and  C11_15 
REMARK    3  A    between atoms: C11_15  and  C12_17 
REMARK    4  A    between atoms: C13_18  and  C14_19 
REMARK    5  A    between atoms: C14_19  and  N3_20 
ROOT
HETATM    1  C7  UNL     1      23.391   1.764  52.750  1.00  0.00    -0.010 C 
HETATM    2  C8  UNL     1      22.324   1.119  53.200  1.00  0.00     0.084 C 
HETATM    3  S1  UNL     1      22.218  -0.370  53.447  1.00  0.00     0.024 SA
HETATM    4  N1  UNL     1      22.110  -1.604  53.658  1.00  0.00    -0.104 N 
ENDROOT
BRANCH   1   5
HETATM    5  C6  UNL     1      24.638   1.859  52.226  1.00  0.00    -0.034 C 
HETATM    6  C5  UNL     1      25.726   1.413  53.086  1.00  0.00     0.074 C 
HETATM    7  C2  UNL     1      26.978   2.004  53.638  1.00  0.00     0.137 C 
HETATM    8  C4  UNL     1      26.480   0.660  51.964  1.00  0.00     0.024 C 
HETATM    9  C1  UNL     1      27.792   0.935  54.280  1.00  0.00     0.041 C 
HETATM   10  O1  UNL     1      27.781   2.127  52.264  1.00  0.00    -0.343 OA
HETATM   11  C3  UNL     1      26.498   1.981  51.562  1.00  0.00     0.093 C 
HETATM   12  C10 UNL     1      25.779   3.117  50.876  1.00  0.00     0.069 C 
HETATM   13  C9  UNL     1      24.664   2.354  50.708  1.00  0.00     0.041 C 
BRANCH  12  14
HETATM   14  N2  UNL     1      26.128   4.379  50.461  1.00  0.00    -0.321 N 
HETATM   15  C11 UNL     1      26.932   4.385  49.286  1.00  0.00     0.245 C 
HETATM   16  O2  UNL     1      27.115   3.196  48.929  1.00  0.00    -0.268 OA
HETATM   17  H9  UNL     1      25.860   5.238  50.934  1.00  0.00     0.169 HD
BRANCH  15  18
HETATM   18  C12 UNL     1      27.447   5.571  48.623  1.00  0.00     0.072 C 
HETATM   19  C13 UNL     1      28.604   5.993  48.202  1.00  0.00     0.008 C 
BRANCH  19  20
HETATM   20  C14 UNL     1      30.021   5.635  48.105  1.00  0.00     0.299 C 
BRANCH  20  21
HETATM   21  N3  UNL     1      30.801   6.643  48.815  1.00  0.00     0.083 N 
HETATM   22  C15 UNL     1      31.837   6.052  49.640  1.00  0.00     0.309 C 
HETATM   23  C16 UNL     1      31.307   7.655  47.932  1.00  0.00     0.309 C 
ENDBRANCH  20  21
ENDBRANCH  19  20
ENDBRANCH  15  18
ENDBRANCH  12  14
ENDBRANCH   1   5
TORSDOF 5
ENDMDL
MODEL 2
REMARK VINA RESULT:      -7.2      2.061      2.590
REMARK  5 active torsions:
REMARK  status: ('A' for Active; 'I' for Inactive)
REMARK    1  A    between atoms: C6_7  and  C7_8 
REMARK    2  A    between atoms: C10_13  and  N2_14 
REMARK       I    between atoms: N2_14  and  C11_15 
REMARK    3  A    between atoms: C11_15  and  C12_17 
REMARK    4  A    between atoms: C13_18  and  C14_19 
REMARK    5  A    between atoms: C14_19  and  N3_20 
ROOT
HETATM    1  C7  UNL     1      23.060   1.400  52.976  1.00  0.00    -0.010 C 
HETATM    2  C8  UNL     1      21.988   0.823  53.503  1.00  0.00     0.084 C 
HETATM    3  S1  UNL     1      21.914  -0.579  54.067  1.00  0.00     0.024 SA
HETATM    4  N1  UNL     1      21.832  -1.740  54.539  1.00  0.00    -0.104 N 
ENDROOT
BRANCH   1   5
HETATM    5  C6  UNL     1      24.331   1.432  52.508  1.00  0.00    -0.034 C 
HETATM    6  C5  UNL     1      25.357   0.934  53.415  1.00  0.00     0.074 C 
HETATM    7  C2  UNL     1      26.611   1.463  54.023  1.00  0.00     0.137 C 
HETATM    8  C4  UNL     1      26.122   0.142  52.328  1.00  0.00     0.024 C 
HETATM    9  C1  UNL     1      27.342   0.357  54.699  1.00  0.00     0.041 C 
HETATM   10  O1  UNL     1      27.479   1.544  52.685  1.00  0.00    -0.343 OA
HETATM   11  C3  UNL     1      26.223   1.461  51.927  1.00  0.00     0.093 C 
HETATM   12  C10 UNL     1      25.592   2.630  51.210  1.00  0.00     0.069 C 
HETATM   13  C9  UNL     1      24.449   1.922  50.992  1.00  0.00     0.041 C 
BRANCH  12  14
HETATM   14  N2  UNL     1      26.021   3.871  50.812  1.00  0.00    -0.321 N 
HETATM   15  C11 UNL     1      26.711   3.859  49.567  1.00  0.00     0.245 C 
HETATM   16  O2  UNL     1      26.746   2.676  49.149  1.00  0.00    -0.268 OA
HETATM   17  H9  UNL     1      25.881   4.729  51.340  1.00  0.00     0.169 HD
BRANCH  15  18
HETATM   18  C12 UNL     1      27.275   5.021  48.902  1.00  0.00     0.072 C 
HETATM   19  C13 UNL     1      26.867   6.210  48.565  1.00  0.00     0.008 C 
BRANCH  19  20
HETATM   20  C14 UNL     1      25.712   7.110  48.604  1.00  0.00     0.299 C 
BRANCH  20  21
HETATM   21  N3  UNL     1      25.644   7.717  49.929  1.00  0.00     0.083 N 
HETATM   22  C15 UNL     1      26.755   8.614  50.177  1.00  0.00     0.309 C 
HETATM   23  C16 UNL     1      24.371   8.331  50.177  1.00  0.00     0.309 C 
ENDBRANCH  20  21
ENDBRANCH  19  20
ENDBRANCH  15  18
ENDBRANCH  12  14
ENDBRANCH   1   5
TORSDOF 5
ENDMDL
MODEL 3
REMARK VINA RESULT:      -7.1      3.455      7.538
REMARK  5 active torsions:
REMARK  status: ('A' for Active; 'I' for Inactive)
REMARK    1  A    between atoms: C6_7  and  C7_8 
REMARK    2  A    between atoms: C10_13  and  N2_14 
REMARK       I    between atoms: N2_14  and  C11_15 
REMARK    3  A    between atoms: C11_15  and  C12_17 
REMARK    4  A    between atoms: C13_18  and  C14_19 
REMARK    5  A    between atoms: C14_19  and  N3_20 
ROOT
HETATM    1  C7  UNL     1      28.014   5.098  48.567  1.00  0.00    -0.010 C 
HETATM    2  C8  UNL     1      29.054   5.778  48.104  1.00  0.00     0.084 C 
HETATM    3  S1  UNL     1      29.248   7.277  48.180  1.00  0.00     0.024 SA
HETATM    4  N1  UNL     1      29.427   8.519  48.233  1.00  0.00    -0.104 N 
ENDROOT
BRANCH   1   5
HETATM    5  C6  UNL     1      26.776   4.962  49.102  1.00  0.00    -0.034 C 
HETATM    6  C5  UNL     1      26.030   6.197  49.304  1.00  0.00     0.074 C 
HETATM    7  C2  UNL     1      25.376   6.889  50.452  1.00  0.00     0.137 C 
HETATM    8  C4  UNL     1      24.690   5.629  48.778  1.00  0.00     0.024 C 
HETATM    9  C1  UNL     1      24.567   8.032  49.948  1.00  0.00     0.041 C 
HETATM   10  O1  UNL     1      24.194   5.841  50.687  1.00  0.00    -0.343 OA
HETATM   11  C3  UNL     1      24.968   4.871  49.899  1.00  0.00     0.093 C 
HETATM   12  C10 UNL     1      25.701   3.695  50.497  1.00  0.00     0.069 C 
HETATM   13  C9  UNL     1      26.329   3.444  49.314  1.00  0.00     0.041 C 
BRANCH  12  14
HETATM   14  N2  UNL     1      25.670   3.041  51.704  1.00  0.00    -0.321 N 
HETATM   15  C11 UNL     1      24.561   2.159  51.840  1.00  0.00     0.245 C 
HETATM   16  O2  UNL     1      23.883   2.214  50.786  1.00  0.00    -0.268 OA
HETATM   17  H9  UNL     1      26.354   3.164  52.446  1.00  0.00     0.169 HD
BRANCH  15  18
HETATM   18  C12 UNL     1      24.273   1.339  53.005  1.00  0.00     0.072 C 
HETATM   19  C13 UNL     1      24.746   0.249  53.536  1.00  0.00     0.008 C 
BRANCH  19  20
HETATM   20  C14 UNL     1      25.762  -0.793  53.371  1.00  0.00     0.299 C 
BRANCH  20  21
HETATM   21  N3  UNL     1      27.079  -0.181  53.521  1.00  0.00     0.083 N 
HETATM   22  C15 UNL     1      27.302   0.313  54.865  1.00  0.00     0.309 C 
HETATM   23  C16 UNL     1      28.130  -1.046  53.067  1.00  0.00     0.309 C 
ENDBRANCH  20  21
ENDBRANCH  19  20
ENDBRANCH  15  18
ENDBRANCH  12  14
ENDBRANCH   1   5
TORSDOF 5
ENDMDL
MODEL 4
REMARK VINA RESULT:      -7.1      2.682      3.549
REMARK  5 active torsions:
REMARK  status: ('A' for Active; 'I' for Inactive)
REMARK    1  A    between atoms: C6_7  and  C7_8 
REMARK    2  A    between atoms: C10_13  and  N2_14 
REMARK       I    between atoms: N2_14  and  C11_15 
REMARK    3  A    between atoms: C11_15  and  C12_17 
REMARK    4  A    between atoms: C13_18  and  C14_19 
REMARK    5  A    between atoms: C14_19  and  N3_20 
ROOT
HETATM    1  C7  UNL     1      24.009  -0.739  54.494  1.00  0.00    -0.010 C 
HETATM    2  C8  UNL     1      22.905  -1.287  54.982  1.00  0.00     0.084 C 
HETATM    3  S1  UNL     1      21.525  -1.219  54.365  1.00  0.00     0.024 SA
HETATM    4  N1  UNL     1      20.372  -1.173  53.869  1.00  0.00    -0.104 N 
ENDROOT
BRANCH   1   5
HETATM    5  C6  UNL     1      24.720   0.043  53.645  1.00  0.00    -0.034 C 
HETATM    6  C5  UNL     1      26.164  -0.149  53.658  1.00  0.00     0.074 C 
HETATM    7  C2  UNL     1      27.365   0.704  53.885  1.00  0.00     0.137 C 
HETATM    8  C4  UNL     1      26.318  -0.098  52.119  1.00  0.00     0.024 C 
HETATM    9  C1  UNL     1      28.592  -0.060  53.528  1.00  0.00     0.041 C 
HETATM   10  O1  UNL     1      27.245   1.597  52.567  1.00  0.00    -0.343 OA
HETATM   11  C3  UNL     1      25.847   1.155  52.458  1.00  0.00     0.093 C 
HETATM   12  C10 UNL     1      24.660   2.031  52.777  1.00  0.00     0.069 C 
HETATM   13  C9  UNL     1      23.814   0.966  52.707  1.00  0.00     0.041 C 
BRANCH  12  14
HETATM   14  N2  UNL     1      24.465   3.380  52.946  1.00  0.00    -0.321 N 
HETATM   15  C11 UNL     1      23.960   4.028  51.783  1.00  0.00     0.245 C 
HETATM   16  O2  UNL     1      23.822   3.166  50.882  1.00  0.00    -0.268 OA
HETATM   17  H9  UNL     1      24.662   3.890  53.803  1.00  0.00     0.169 HD
BRANCH  15  18
HETATM   18  C12 UNL     1      23.659   5.445  51.671  1.00  0.00     0.072 C 
HETATM   19  C13 UNL     1      24.224   6.494  51.150  1.00  0.00     0.008 C 
BRANCH  19  20
HETATM   20  C14 UNL     1      25.402   6.947  50.407  1.00  0.00     0.299 C 
BRANCH  20  21
HETATM   21  N3  UNL     1      25.406   6.291  49.103  1.00  0.00     0.083 N 
HETATM   22  C15 UNL     1      25.491   7.242  48.013  1.00  0.00     0.309 C 
HETATM   23  C16 UNL     1      26.403   5.262  49.020  1.00  0.00     0.309 C 
ENDBRANCH  20  21
ENDBRANCH  19  20
ENDBRANCH  15  18
ENDBRANCH  12  14
ENDBRANCH   1   5
TORSDOF 5
ENDMDL
MODEL 5
REMARK VINA RESULT:      -6.9      3.349      8.448
REMARK  5 active torsions:
REMARK  status: ('A' for Active; 'I' for Inactive)
REMARK    1  A    between atoms: C6_7  and  C7_8 
REMARK    2  A    between atoms: C10_13  and  N2_14 
REMARK       I    between atoms: N2_14  and  C11_15 
REMARK    3  A    between atoms: C11_15  and  C12_17 
REMARK    4  A    between atoms: C13_18  and  C14_19 
REMARK    5  A    between atoms: C14_19  and  N3_20 
ROOT
HETATM    1  C7  UNL     1      27.960   5.199  48.582  1.00  0.00    -0.010 C 
HETATM    2  C8  UNL     1      28.978   5.899  48.101  1.00  0.00     0.084 C 
HETATM    3  S1  UNL     1      29.117   7.406  48.129  1.00  0.00     0.024 SA
HETATM    4  N1  UNL     1      29.251   8.655  48.141  1.00  0.00    -0.104 N 
ENDROOT
BRANCH   1   5
HETATM    5  C6  UNL     1      26.724   5.036  49.114  1.00  0.00    -0.034 C 
HETATM    6  C5  UNL     1      25.950   6.254  49.313  1.00  0.00     0.074 C 
HETATM    7  C2  UNL     1      25.279   6.933  50.458  1.00  0.00     0.137 C 
HETATM    8  C4  UNL     1      24.624   5.654  48.787  1.00  0.00     0.024 C 
HETATM    9  C1  UNL     1      24.445   8.056  49.951  1.00  0.00     0.041 C 
HETATM   10  O1  UNL     1      24.121   5.859  50.694  1.00  0.00    -0.343 OA
HETATM   11  C3  UNL     1      24.917   4.905  49.910  1.00  0.00     0.093 C 
HETATM   12  C10 UNL     1      25.677   3.747  50.511  1.00  0.00     0.069 C 
HETATM   13  C9  UNL     1      26.311   3.508  49.329  1.00  0.00     0.041 C 
BRANCH  12  14
HETATM   14  N2  UNL     1      25.658   3.096  51.719  1.00  0.00    -0.321 N 
HETATM   15  C11 UNL     1      24.598   2.152  51.837  1.00  0.00     0.245 C 
HETATM   16  O2  UNL     1      23.939   2.167  50.769  1.00  0.00    -0.268 OA
HETATM   17  H9  UNL     1      26.319   3.259  52.474  1.00  0.00     0.169 HD
BRANCH  15  18
HETATM   18  C12 UNL     1      24.334   1.320  52.998  1.00  0.00     0.072 C 
HETATM   19  C13 UNL     1      23.491   0.383  53.319  1.00  0.00     0.008 C 
BRANCH  19  20
HETATM   20  C14 UNL     1      22.361  -0.403  52.819  1.00  0.00     0.299 C 
BRANCH  20  21
HETATM   21  N3  UNL     1      21.561  -0.839  53.959  1.00  0.00     0.083 N 
HETATM   22  C15 UNL     1      22.358  -1.529  54.953  1.00  0.00     0.309 C 
HETATM   23  C16 UNL     1      20.786   0.233  54.517  1.00  0.00     0.309 C 
ENDBRANCH  20  21
ENDBRANCH  19  20
ENDBRANCH  15  18
ENDBRANCH  12  14
ENDBRANCH   1   5
TORSDOF 5
ENDMDL
MODEL 6
REMARK VINA RESULT:      -6.8      2.606      3.770
REMARK  5 active torsions:
REMARK  status: ('A' for Active; 'I' for Inactive)
REMARK    1  A    between atoms: C6_7  and  C7_8 
REMARK    2  A    between atoms: C10_13  and  N2_14 
REMARK       I    between atoms: N2_14  and  C11_15 
REMARK    3  A    between atoms: C11_15  and  C12_17 
REMARK    4  A    between atoms: C13_18  and  C14_19 
REMARK    5  A    between atoms: C14_19  and  N3_20 
ROOT
HETATM    1  C7  UNL     1      25.615   0.093  52.532  1.00  0.00    -0.010 C 
HETATM    2  C8  UNL     1      26.645  -0.581  53.025  1.00  0.00     0.084 C 
HETATM    3  S1  UNL     1      27.634  -0.076  54.052  1.00  0.00     0.024 SA
HETATM    4  N1  UNL     1      28.466   0.326  54.904  1.00  0.00    -0.104 N 
ENDROOT
BRANCH   1   5
HETATM    5  C6  UNL     1      24.848   1.194  52.337  1.00  0.00    -0.034 C 
HETATM    6  C5  UNL     1      23.512   0.954  51.807  1.00  0.00     0.074 C 
HETATM    7  C2  UNL     1      22.722   1.401  50.625  1.00  0.00     0.137 C 
HETATM    8  C4  UNL     1      22.813   1.957  52.755  1.00  0.00     0.024 C 
HETATM    9  C1  UNL     1      21.307   0.966  50.778  1.00  0.00     0.041 C 
HETATM   10  O1  UNL     1      22.553   2.931  51.047  1.00  0.00    -0.343 OA
HETATM   11  C3  UNL     1      23.660   2.739  51.994  1.00  0.00     0.093 C 
HETATM   12  C10 UNL     1      25.053   3.281  51.783  1.00  0.00     0.069 C 
HETATM   13  C9  UNL     1      25.531   2.551  52.828  1.00  0.00     0.041 C 
BRANCH  12  14
HETATM   14  N2  UNL     1      25.612   4.228  50.960  1.00  0.00    -0.321 N 
HETATM   15  C11 UNL     1      26.445   3.676  49.947  1.00  0.00     0.245 C 
HETATM   16  O2  UNL     1      26.448   2.428  50.078  1.00  0.00    -0.268 OA
HETATM   17  H9  UNL     1      25.468   5.231  51.051  1.00  0.00     0.169 HD
BRANCH  15  18
HETATM   18  C12 UNL     1      27.164   4.436  48.938  1.00  0.00     0.072 C 
HETATM   19  C13 UNL     1      27.301   5.689  48.616  1.00  0.00     0.008 C 
BRANCH  19  20
HETATM   20  C14 UNL     1      26.890   7.047  48.980  1.00  0.00     0.299 C 
BRANCH  20  21
HETATM   21  N3  UNL     1      27.838   7.988  48.394  1.00  0.00     0.083 N 
HETATM   22  C15 UNL     1      28.280   8.986  49.348  1.00  0.00     0.309 C 
HETATM   23  C16 UNL     1      28.931   7.321  47.745  1.00  0.00     0.309 C 
ENDBRANCH  20  21
ENDBRANCH  19  20
ENDBRANCH  15  18
ENDBRANCH  12  14
ENDBRANCH   1   5
TORSDOF 5
ENDMDL
MODEL 7
REMARK VINA RESULT:      -6.7      3.839      5.110
REMARK  5 active torsions:
REMARK  status: ('A' for Active; 'I' for Inactive)
REMARK    1  A    between atoms: C6_7  and  C7_8 
REMARK    2  A    between atoms: C10_13  and  N2_14 
REMARK       I    between atoms: N2_14  and  C11_15 
REMARK    3  A    between atoms: C11_15  and  C12_17 
REMARK    4  A    between atoms: C13_18  and  C14_19 
REMARK    5  A    between atoms: C14_19  and  N3_20 
ROOT
HETATM    1  C7  UNL     1      24.078  -0.796  54.523  1.00  0.00    -0.010 C 
HETATM    2  C8  UNL     1      22.930  -1.205  55.047  1.00  0.00     0.084 C 
HETATM    3  S1  UNL     1      21.556  -1.021  54.440  1.00  0.00     0.024 SA
HETATM    4  N1  UNL     1      20.407  -0.878  53.954  1.00  0.00    -0.104 N 
ENDROOT
BRANCH   1   5
HETATM    5  C6  UNL     1      24.853  -0.130  53.633  1.00  0.00    -0.034 C 
HETATM    6  C5  UNL     1      26.289  -0.345  53.753  1.00  0.00     0.074 C 
HETATM    7  C2  UNL     1      27.497   0.506  53.950  1.00  0.00     0.137 C 
HETATM    8  C4  UNL     1      26.530  -0.476  52.230  1.00  0.00     0.024 C 
HETATM    9  C1  UNL     1      28.722  -0.315  53.754  1.00  0.00     0.041 C 
HETATM   10  O1  UNL     1      27.471   1.243  52.534  1.00  0.00    -0.343 OA
HETATM   11  C3  UNL     1      26.072   0.817  52.395  1.00  0.00     0.093 C 
HETATM   12  C10 UNL     1      24.890   1.744  52.542  1.00  0.00     0.069 C 
HETATM   13  C9  UNL     1      24.024   0.694  52.545  1.00  0.00     0.041 C 
BRANCH  12  14
HETATM   14  N2  UNL     1      24.719   3.107  52.544  1.00  0.00    -0.321 N 
HETATM   15  C11 UNL     1      24.473   3.647  51.250  1.00  0.00     0.245 C 
HETATM   16  O2  UNL     1      24.478   2.704  50.423  1.00  0.00    -0.268 OA
HETATM   17  H9  UNL     1      24.766   3.695  53.372  1.00  0.00     0.169 HD
BRANCH  15  18
HETATM   18  C12 UNL     1      24.254   5.052  50.950  1.00  0.00     0.072 C 
HETATM   19  C13 UNL     1      23.253   5.883  50.983  1.00  0.00     0.008 C 
BRANCH  19  20
HETATM   20  C14 UNL     1      21.827   5.992  51.300  1.00  0.00     0.299 C 
BRANCH  20  21
HETATM   21  N3  UNL     1      21.062   5.482  50.167  1.00  0.00     0.083 N 
HETATM   22  C15 UNL     1      20.198   4.381  50.543  1.00  0.00     0.309 C 
HETATM   23  C16 UNL     1      20.361   6.526  49.476  1.00  0.00     0.309 C 
ENDBRANCH  20  21
ENDBRANCH  19  20
ENDBRANCH  15  18
ENDBRANCH  12  14
ENDBRANCH   1   5
TORSDOF 5
ENDMDL
MODEL 8
REMARK VINA RESULT:      -6.7      4.196      5.929
REMARK  5 active torsions:
REMARK  status: ('A' for Active; 'I' for Inactive)
REMARK    1  A    between atoms: C6_7  and  C7_8 
REMARK    2  A    between atoms: C10_13  and  N2_14 
REMARK       I    between atoms: N2_14  and  C11_15 
REMARK    3  A    between atoms: C11_15  and  C12_17 
REMARK    4  A    between atoms: C13_18  and  C14_19 
REMARK    5  A    between atoms: C14_19  and  N3_20 
ROOT
HETATM    1  C7  UNL     1      22.146   4.575  51.817  1.00  0.00    -0.010 C 
HETATM    2  C8  UNL     1      21.396   5.538  51.298  1.00  0.00     0.084 C 
HETATM    3  S1  UNL     1      20.779   5.544  49.917  1.00  0.00     0.024 SA
HETATM    4  N1  UNL     1      20.259   5.569  48.774  1.00  0.00    -0.104 N 
ENDROOT
BRANCH   1   5
HETATM    5  C6  UNL     1      22.857   3.422  51.786  1.00  0.00    -0.034 C 
HETATM    6  C5  UNL     1      22.096   2.197  51.997  1.00  0.00     0.074 C 
HETATM    7  C2  UNL     1      22.141   1.047  52.945  1.00  0.00     0.137 C 
HETATM    8  C4  UNL     1      22.807   1.404  50.875  1.00  0.00     0.024 C 
HETATM    9  C1  UNL     1      21.208  -0.016  52.482  1.00  0.00     0.041 C 
HETATM   10  O1  UNL     1      23.511   0.405  52.436  1.00  0.00    -0.343 OA
HETATM   11  C3  UNL     1      23.809   1.687  51.783  1.00  0.00     0.093 C 
HETATM   12  C10 UNL     1      24.830   2.675  52.292  1.00  0.00     0.069 C 
HETATM   13  C9  UNL     1      24.397   3.624  51.416  1.00  0.00     0.041 C 
BRANCH  12  14
HETATM   14  N2  UNL     1      25.871   2.623  53.186  1.00  0.00    -0.321 N 
HETATM   15  C11 UNL     1      27.135   2.400  52.570  1.00  0.00     0.245 C 
HETATM   16  O2  UNL     1      26.957   2.307  51.332  1.00  0.00    -0.268 OA
HETATM   17  H9  UNL     1      25.774   2.722  54.194  1.00  0.00     0.169 HD
BRANCH  15  18
HETATM   18  C12 UNL     1      28.407   2.299  53.266  1.00  0.00     0.072 C 
HETATM   19  C13 UNL     1      28.947   1.501  54.139  1.00  0.00     0.008 C 
BRANCH  19  20
HETATM   20  C14 UNL     1      28.704   0.299  54.941  1.00  0.00     0.299 C 
BRANCH  20  21
HETATM   21  N3  UNL     1      28.951  -0.871  54.105  1.00  0.00     0.083 N 
HETATM   22  C15 UNL     1      27.851  -1.138  53.200  1.00  0.00     0.309 C 
HETATM   23  C16 UNL     1      30.217  -0.796  53.432  1.00  0.00     0.309 C 
ENDBRANCH  20  21
ENDBRANCH  19  20
ENDBRANCH  15  18
ENDBRANCH  12  14
ENDBRANCH   1   5
TORSDOF 5
ENDMDL
MODEL 9
REMARK VINA RESULT:      -6.6      3.364      6.065
REMARK  5 active torsions:
REMARK  status: ('A' for Active; 'I' for Inactive)
REMARK    1  A    between atoms: C6_7  and  C7_8 
REMARK    2  A    between atoms: C10_13  and  N2_14 
REMARK       I    between atoms: N2_14  and  C11_15 
REMARK    3  A    between atoms: C11_15  and  C12_17 
REMARK    4  A    between atoms: C13_18  and  C14_19 
REMARK    5  A    between atoms: C14_19  and  N3_20 
ROOT
HETATM    1  C7  UNL     1      22.809   2.750  48.580  1.00  0.00    -0.010 C 
HETATM    2  C8  UNL     1      21.657   2.920  47.945  1.00  0.00     0.084 C 
HETATM    3  S1  UNL     1      20.600   3.951  48.275  1.00  0.00     0.024 SA
HETATM    4  N1  UNL     1      19.710   4.799  48.532  1.00  0.00    -0.104 N 
ENDROOT
BRANCH   1   5
HETATM    5  C6  UNL     1      23.708   2.963  49.572  1.00  0.00    -0.034 C 
HETATM    6  C5  UNL     1      24.918   3.681  49.192  1.00  0.00     0.074 C 
HETATM    7  C2  UNL     1      26.386   3.433  49.255  1.00  0.00     0.137 C 
HETATM    8  C4  UNL     1      24.935   4.583  50.449  1.00  0.00     0.024 C 
HETATM    9  C1  UNL     1      27.118   4.681  48.905  1.00  0.00     0.041 C 
HETATM   10  O1  UNL     1      26.546   3.495  50.842  1.00  0.00    -0.343 OA
HETATM   11  C3  UNL     1      25.092   3.303  50.944  1.00  0.00     0.093 C 
HETATM   12  C10 UNL     1      24.441   2.013  51.378  1.00  0.00     0.069 C 
HETATM   13  C9  UNL     1      23.213   2.469  51.007  1.00  0.00     0.041 C 
BRANCH  12  14
HETATM   14  N2  UNL     1      24.871   0.874  52.014  1.00  0.00    -0.321 N 
HETATM   15  C11 UNL     1      25.196   1.079  53.385  1.00  0.00     0.245 C 
HETATM   16  O2  UNL     1      24.998   2.288  53.658  1.00  0.00    -0.268 OA
HETATM   17  H9  UNL     1      24.964  -0.036  51.569  1.00  0.00     0.169 HD
BRANCH  15  18
HETATM   18  C12 UNL     1      25.674   0.058  54.301  1.00  0.00     0.072 C 
HETATM   19  C13 UNL     1      26.795  -0.230  54.896  1.00  0.00     0.008 C 
BRANCH  19  20
HETATM   20  C14 UNL     1      28.186   0.202  55.054  1.00  0.00     0.299 C 
BRANCH  20  21
HETATM   21  N3  UNL     1      28.715   0.547  53.739  1.00  0.00     0.083 N 
HETATM   22  C15 UNL     1      28.769   1.981  53.531  1.00  0.00     0.309 C 
HETATM   23  C16 UNL     1      29.969  -0.099  53.474  1.00  0.00     0.309 C 
ENDBRANCH  20  21
ENDBRANCH  19  20
ENDBRANCH  15  18
ENDBRANCH  12  14
ENDBRANCH   1   5
TORSDOF 5
ENDMDL
