MODEL 1
REMARK VINA RESULT:      -7.4      0.000      0.000
REMARK  4 active torsions:
REMARK  status: ('A' for Active; 'I' for Inactive)
REMARK    1  A    between atoms: N1_1  and  C1_2 
REMARK    2  A    between atoms: C1_2  and  C2_3 
REMARK    3  A    between atoms: C6_10  and  N4_11 
REMARK    4  A    between atoms: N4_11  and  C7_12 
ROOT
HETATM    1  C2  UNL     1      22.877  -0.936  54.484  1.00  0.00     0.039 C 
HETATM    2  C3  UNL     1      23.485  -0.320  53.481  1.00  0.00     0.092 C 
HETATM    3  O1  UNL     1      22.606   0.255  52.548  1.00  0.00    -0.279 OA
HETATM    4  C4  UNL     1      22.872   1.120  51.522  1.00  0.00     0.257 A 
HETATM    5  N2  UNL     1      21.881   1.329  50.701  1.00  0.00    -0.202 NA
HETATM    6  C5  UNL     1      22.111   2.234  49.602  1.00  0.00     0.235 A 
HETATM    7  N3  UNL     1      23.182   2.883  49.308  1.00  0.00    -0.237 NA
HETATM    8  C6  UNL     1      24.352   2.747  50.128  1.00  0.00     0.322 A 
HETATM    9  N6  UNL     1      24.063   1.832  51.208  1.00  0.00    -0.281 N 
HETATM   10  C12 UNL     1      25.272   1.741  51.991  1.00  0.00     0.098 C 
HETATM   11  C13 UNL     1      25.599   0.842  52.914  1.00  0.00     0.034 C 
HETATM   12  C14 UNL     1      24.970  -0.347  53.517  1.00  0.00     0.251 C 
HETATM   13  F1  UNL     1      25.417  -0.559  54.803  1.00  0.00    -0.238 F 
ENDROOT
BRANCH   8  14
HETATM   14  N4  UNL     1      24.596   4.082  50.698  1.00  0.00    -0.350 N 
HETATM   15  H8  UNL     1      24.139   4.388  51.584  1.00  0.00     0.163 HD
BRANCH  14  16
HETATM   16  C7  UNL     1      25.467   5.001  50.057  1.00  0.00     0.035 A 
HETATM   17  C8  UNL     1      26.512   4.572  49.235  1.00  0.00     0.048 A 
HETATM   18  C9  UNL     1      27.375   5.438  48.598  1.00  0.00     0.120 A 
HETATM   19  N5  UNL     1      27.193   6.741  48.784  1.00  0.00    -0.253 NA
HETATM   20  C10 UNL     1      26.211   7.237  49.561  1.00  0.00     0.104 A 
HETATM   21 BR1  UNL     1      26.008   9.135  49.785  1.00  0.00    -0.029 Br
HETATM   22  C11 UNL     1      25.346   6.364  50.199  1.00  0.00     0.068 A 
ENDBRANCH  14  16
ENDBRANCH   8  14
BRANCH   1  23
HETATM   23  C1  UNL     1      21.418  -1.009  54.610  1.00  0.00     0.296 C 
BRANCH  23  24
HETATM   24  N1  UNL     1      20.803   0.240  54.959  1.00  0.00     0.081 N 
HETATM   25  H1  UNL     1      20.963   0.993  54.241  1.00  0.00     0.313 HD
HETATM   26  H2  UNL     1      21.099   0.527  55.911  1.00  0.00     0.313 HD
ENDBRANCH  23  24
ENDBRANCH   1  23
TORSDOF 4
ENDMDL
MODEL 2
REMARK VINA RESULT:      -7.4      3.744      7.607
REMARK  4 active torsions:
REMARK  status: ('A' for Active; 'I' for Inactive)
REMARK    1  A    between atoms: N1_1  and  C1_2 
REMARK    2  A    between atoms: C1_2  and  C2_3 
REMARK    3  A    between atoms: C6_10  and  N4_11 
REMARK    4  A    between atoms: N4_11  and  C7_12 
ROOT
HETATM    1  C2  UNL     1      25.090   6.055  48.873  1.00  0.00     0.039 C 
HETATM    2  C3  UNL     1      24.819   4.819  49.265  1.00  0.00     0.092 C 
HETATM    3  O1  UNL     1      25.791   4.264  50.114  1.00  0.00    -0.279 OA
HETATM    4  C4  UNL     1      25.744   3.116  50.856  1.00  0.00     0.257 A 
HETATM    5  N2  UNL     1      26.876   2.757  51.395  1.00  0.00    -0.202 NA
HETATM    6  C5  UNL     1      26.877   1.552  52.188  1.00  0.00     0.235 A 
HETATM    7  N3  UNL     1      25.898   0.760  52.447  1.00  0.00    -0.237 NA
HETATM    8  C6  UNL     1      24.592   1.035  51.917  1.00  0.00     0.322 A 
HETATM    9  N6  UNL     1      24.652   2.248  51.134  1.00  0.00    -0.281 N 
HETATM   10  C12 UNL     1      23.316   2.468  50.634  1.00  0.00     0.098 C 
HETATM   11  C13 UNL     1      22.915   3.284  49.664  1.00  0.00     0.034 C 
HETATM   12  C14 UNL     1      23.553   4.243  48.743  1.00  0.00     0.251 C 
HETATM   13  F1  UNL     1      22.683   5.246  48.376  1.00  0.00    -0.238 F 
ENDROOT
BRANCH   8  14
HETATM   14  N4  UNL     1      23.729   1.272  53.085  1.00  0.00    -0.350 N 
HETATM   15  H8  UNL     1      23.807   2.145  53.651  1.00  0.00     0.163 HD
BRANCH  14  16
HETATM   16  C7  UNL     1      22.758   0.317  53.481  1.00  0.00     0.035 A 
HETATM   17  C8  UNL     1      23.070  -0.729  54.352  1.00  0.00     0.048 A 
HETATM   18  C9  UNL     1      22.150  -1.673  54.757  1.00  0.00     0.120 A 
HETATM   19  N5  UNL     1      20.911  -1.571  54.287  1.00  0.00    -0.253 NA
HETATM   20  C10 UNL     1      20.529  -0.593  53.444  1.00  0.00     0.104 A 
HETATM   21 BR1  UNL     1      18.719  -0.507  52.805  1.00  0.00    -0.029 Br
HETATM   22  C11 UNL     1      21.455   0.354  53.040  1.00  0.00     0.068 A 
ENDBRANCH  14  16
ENDBRANCH   8  14
BRANCH   1  23
HETATM   23  C1  UNL     1      26.295   6.780  49.288  1.00  0.00     0.296 C 
BRANCH  23  24
HETATM   24  N1  UNL     1      26.204   7.350  50.602  1.00  0.00     0.081 N 
HETATM   25  H1  UNL     1      27.113   7.313  51.132  1.00  0.00     0.313 HD
HETATM   26  H2  UNL     1      25.420   6.915  51.123  1.00  0.00     0.313 HD
ENDBRANCH  23  24
ENDBRANCH   1  23
TORSDOF 4
ENDMDL
MODEL 3
REMARK VINA RESULT:      -7.4      5.066      7.360
REMARK  4 active torsions:
REMARK  status: ('A' for Active; 'I' for Inactive)
REMARK    1  A    between atoms: N1_1  and  C1_2 
REMARK    2  A    between atoms: C1_2  and  C2_3 
REMARK    3  A    between atoms: C6_10  and  N4_11 
REMARK    4  A    between atoms: N4_11  and  C7_12 
ROOT
HETATM    1  C2  UNL     1      28.231   1.076  53.443  1.00  0.00     0.039 C 
HETATM    2  C3  UNL     1      27.039   0.533  53.247  1.00  0.00     0.092 C 
HETATM    3  O1  UNL     1      26.501  -0.087  54.387  1.00  0.00    -0.279 OA
HETATM    4  C4  UNL     1      25.235  -0.560  54.604  1.00  0.00     0.257 A 
HETATM    5  N2  UNL     1      25.084  -1.262  55.691  1.00  0.00    -0.202 NA
HETATM    6  C5  UNL     1      23.767  -1.783  55.964  1.00  0.00     0.235 A 
HETATM    7  N3  UNL     1      22.692  -1.650  55.272  1.00  0.00    -0.237 NA
HETATM    8  C6  UNL     1      22.714  -0.899  54.048  1.00  0.00     0.322 A 
HETATM    9  N6  UNL     1      24.053  -0.405  53.828  1.00  0.00    -0.281 N 
HETATM   10  C12 UNL     1      24.007   0.338  52.590  1.00  0.00     0.098 C 
HETATM   11  C13 UNL     1      25.017   0.753  51.831  1.00  0.00     0.034 C 
HETATM   12  C14 UNL     1      26.488   0.671  51.874  1.00  0.00     0.251 C 
HETATM   13  F1  UNL     1      27.073   1.737  51.226  1.00  0.00    -0.238 F 
ENDROOT
BRANCH   8  14
HETATM   14  N4  UNL     1      21.820   0.250  54.270  1.00  0.00    -0.350 N 
HETATM   15  H8  UNL     1      22.027   0.968  54.997  1.00  0.00     0.163 HD
BRANCH  14  16
HETATM   16  C7  UNL     1      20.644   0.418  53.496  1.00  0.00     0.035 A 
HETATM   17  C8  UNL     1      20.444   1.548  52.699  1.00  0.00     0.048 A 
HETATM   18  C9  UNL     1      19.312   1.742  51.935  1.00  0.00     0.120 A 
HETATM   19  N5  UNL     1      18.375   0.801  51.968  1.00  0.00    -0.253 NA
HETATM   20  C10 UNL     1      18.490  -0.317  52.709  1.00  0.00     0.104 A 
HETATM   21 BR1  UNL     1      17.092  -1.636  52.708  1.00  0.00    -0.029 Br
HETATM   22  C11 UNL     1      19.627  -0.509  53.474  1.00  0.00     0.068 A 
ENDBRANCH  14  16
ENDBRANCH   8  14
BRANCH   1  23
HETATM   23  C1  UNL     1      28.927   1.035  54.734  1.00  0.00     0.296 C 
BRANCH  23  24
HETATM   24  N1  UNL     1      29.812   2.144  54.950  1.00  0.00     0.081 N 
HETATM   25  H1  UNL     1      29.377   2.912  55.523  1.00  0.00     0.313 HD
HETATM   26  H2  UNL     1      30.182   2.484  54.043  1.00  0.00     0.313 HD
ENDBRANCH  23  24
ENDBRANCH   1  23
TORSDOF 4
ENDMDL
MODEL 4
REMARK VINA RESULT:      -7.1      4.331      6.840
REMARK  4 active torsions:
REMARK  status: ('A' for Active; 'I' for Inactive)
REMARK    1  A    between atoms: N1_1  and  C1_2 
REMARK    2  A    between atoms: C1_2  and  C2_3 
REMARK    3  A    between atoms: C6_10  and  N4_11 
REMARK    4  A    between atoms: N4_11  and  C7_12 
ROOT
HETATM    1  C2  UNL     1      26.957   0.784  53.366  1.00  0.00     0.039 C 
HETATM    2  C3  UNL     1      25.642   0.917  53.450  1.00  0.00     0.092 C 
HETATM    3  O1  UNL     1      25.165   2.161  53.006  1.00  0.00    -0.279 OA
HETATM    4  C4  UNL     1      23.880   2.563  52.764  1.00  0.00     0.257 A 
HETATM    5  N2  UNL     1      23.729   3.840  52.548  1.00  0.00    -0.202 NA
HETATM    6  C5  UNL     1      22.392   4.313  52.286  1.00  0.00     0.235 A 
HETATM    7  N3  UNL     1      21.298   3.639  52.235  1.00  0.00    -0.237 NA
HETATM    8  C6  UNL     1      21.317   2.221  52.454  1.00  0.00     0.322 A 
HETATM    9  N6  UNL     1      22.677   1.806  52.709  1.00  0.00    -0.281 N 
HETATM   10  C12 UNL     1      22.627   0.378  52.919  1.00  0.00     0.098 C 
HETATM   11  C13 UNL     1      23.554  -0.418  53.443  1.00  0.00     0.034 C 
HETATM   12  C14 UNL     1      24.913  -0.258  53.993  1.00  0.00     0.251 C 
HETATM   13  F1  UNL     1      25.660  -1.404  53.837  1.00  0.00    -0.238 F 
ENDROOT
BRANCH   8  14
HETATM   14  N4  UNL     1      20.872   1.616  51.188  1.00  0.00    -0.350 N 
HETATM   15  H8  UNL     1      21.461   1.658  50.328  1.00  0.00     0.163 HD
BRANCH  14  16
HETATM   16  C7  UNL     1      19.622   0.952  51.096  1.00  0.00     0.035 A 
HETATM   17  C8  UNL     1      18.737   1.194  50.043  1.00  0.00     0.048 A 
HETATM   18  C9  UNL     1      17.515   0.566  49.924  1.00  0.00     0.120 A 
HETATM   19  N5  UNL     1      17.176  -0.309  50.864  1.00  0.00    -0.253 NA
HETATM   20  C10 UNL     1      17.971  -0.599  51.912  1.00  0.00     0.104 A 
HETATM   21 BR1  UNL     1      17.413  -1.877  53.236  1.00  0.00    -0.029 Br
HETATM   22  C11 UNL     1      19.196   0.033  52.028  1.00  0.00     0.068 A 
ENDBRANCH  14  16
ENDBRANCH   8  14
BRANCH   1  23
HETATM   23  C1  UNL     1      27.837   1.841  52.854  1.00  0.00     0.296 C 
BRANCH  23  24
HETATM   24  N1  UNL     1      28.218   2.808  53.845  1.00  0.00     0.081 N 
HETATM   25  H1  UNL     1      27.400   3.345  54.233  1.00  0.00     0.313 HD
HETATM   26  H2  UNL     1      28.959   3.427  53.468  1.00  0.00     0.313 HD
ENDBRANCH  23  24
ENDBRANCH   1  23
TORSDOF 4
ENDMDL
MODEL 5
REMARK VINA RESULT:      -7.0      4.286      7.542
REMARK  4 active torsions:
REMARK  status: ('A' for Active; 'I' for Inactive)
REMARK    1  A    between atoms: N1_1  and  C1_2 
REMARK    2  A    between atoms: C1_2  and  C2_3 
REMARK    3  A    between atoms: C6_10  and  N4_11 
REMARK    4  A    between atoms: N4_11  and  C7_12 
ROOT
HETATM    1  C2  UNL     1      26.333   1.317  52.245  1.00  0.00     0.039 C 
HETATM    2  C3  UNL     1      25.086   1.181  52.669  1.00  0.00     0.092 C 
HETATM    3  O1  UNL     1      24.252   2.264  52.344  1.00  0.00    -0.279 OA
HETATM    4  C4  UNL     1      22.892   2.373  52.442  1.00  0.00     0.257 A 
HETATM    5  N2  UNL     1      22.415   3.571  52.250  1.00  0.00    -0.202 NA
HETATM    6  C5  UNL     1      20.985   3.737  52.341  1.00  0.00     0.235 A 
HETATM    7  N3  UNL     1      20.089   2.850  52.591  1.00  0.00    -0.237 NA
HETATM    8  C6  UNL     1      20.473   1.487  52.822  1.00  0.00     0.322 A 
HETATM    9  N6  UNL     1      21.910   1.381  52.719  1.00  0.00    -0.281 N 
HETATM   10  C12 UNL     1      22.228  -0.006  52.960  1.00  0.00     0.098 C 
HETATM   11  C13 UNL     1      23.408  -0.553  53.235  1.00  0.00     0.034 C 
HETATM   12  C14 UNL     1      24.793  -0.075  53.406  1.00  0.00     0.251 C 
HETATM   13  F1  UNL     1      25.708  -1.051  53.079  1.00  0.00    -0.238 F 
ENDROOT
BRANCH   8  14
HETATM   14  N4  UNL     1      19.865   0.711  51.729  1.00  0.00    -0.350 N 
HETATM   15  H8  UNL     1      20.275   0.710  50.769  1.00  0.00     0.163 HD
BRANCH  14  16
HETATM   16  C7  UNL     1      18.698  -0.066  51.946  1.00  0.00     0.035 A 
HETATM   17  C8  UNL     1      18.568  -0.901  53.058  1.00  0.00     0.048 A 
HETATM   18  C9  UNL     1      17.447  -1.668  53.298  1.00  0.00     0.120 A 
HETATM   19  N5  UNL     1      16.451  -1.599  52.421  1.00  0.00    -0.253 NA
HETATM   20  C10 UNL     1      16.498  -0.820  51.324  1.00  0.00     0.104 A 
HETATM   21 BR1  UNL     1      15.018  -0.773  50.098  1.00  0.00    -0.029 Br
HETATM   22  C11 UNL     1      17.624  -0.052  51.086  1.00  0.00     0.068 A 
ENDBRANCH  14  16
ENDBRANCH   8  14
BRANCH   1  23
HETATM   23  C1  UNL     1      26.801   2.492  51.501  1.00  0.00     0.296 C 
BRANCH  23  24
HETATM   24  N1  UNL     1      26.174   2.655  50.220  1.00  0.00     0.081 N 
HETATM   25  H1  UNL     1      25.376   3.341  50.237  1.00  0.00     0.313 HD
HETATM   26  H2  UNL     1      25.898   1.730  49.842  1.00  0.00     0.313 HD
ENDBRANCH  23  24
ENDBRANCH   1  23
TORSDOF 4
ENDMDL
MODEL 6
REMARK VINA RESULT:      -6.9      4.174      7.404
REMARK  4 active torsions:
REMARK  status: ('A' for Active; 'I' for Inactive)
REMARK    1  A    between atoms: N1_1  and  C1_2 
REMARK    2  A    between atoms: C1_2  and  C2_3 
REMARK    3  A    between atoms: C6_10  and  N4_11 
REMARK    4  A    between atoms: N4_11  and  C7_12 
ROOT
HETATM    1  C2  UNL     1      23.677   8.484  49.715  1.00  0.00     0.039 C 
HETATM    2  C3  UNL     1      23.686   7.178  49.935  1.00  0.00     0.092 C 
HETATM    3  O1  UNL     1      24.875   6.541  49.544  1.00  0.00    -0.279 OA
HETATM    4  C4  UNL     1      25.305   5.268  49.800  1.00  0.00     0.257 A 
HETATM    5  N2  UNL     1      26.365   4.896  49.139  1.00  0.00    -0.202 NA
HETATM    6  C5  UNL     1      26.858   3.561  49.376  1.00  0.00     0.235 A 
HETATM    7  N3  UNL     1      26.390   2.662  50.166  1.00  0.00    -0.237 NA
HETATM    8  C6  UNL     1      25.223   2.936  50.957  1.00  0.00     0.322 A 
HETATM    9  N6  UNL     1      24.777   4.282  50.679  1.00  0.00    -0.281 N 
HETATM   10  C12 UNL     1      23.609   4.494  51.501  1.00  0.00     0.098 C 
HETATM   11  C13 UNL     1      22.694   5.454  51.414  1.00  0.00     0.034 C 
HETATM   12  C14 UNL     1      22.451   6.622  50.548  1.00  0.00     0.251 C 
HETATM   13  F1  UNL     1      21.757   7.609  51.213  1.00  0.00    -0.238 F 
ENDROOT
BRANCH   8  14
HETATM   14  N4  UNL     1      25.667   2.870  52.359  1.00  0.00    -0.350 N 
HETATM   15  H8  UNL     1      25.712   3.723  52.957  1.00  0.00     0.163 HD
BRANCH  14  16
HETATM   16  C7  UNL     1      26.051   1.636  52.945  1.00  0.00     0.035 A 
HETATM   17  C8  UNL     1      25.107   0.735  53.444  1.00  0.00     0.048 A 
HETATM   18  C9  UNL     1      25.447  -0.471  54.019  1.00  0.00     0.120 A 
HETATM   19  N5  UNL     1      26.737  -0.779  54.096  1.00  0.00    -0.253 NA
HETATM   20  C10 UNL     1      27.709   0.034  53.639  1.00  0.00     0.104 A 
HETATM   21 BR1  UNL     1      29.556  -0.477  53.785  1.00  0.00    -0.029 Br
HETATM   22  C11 UNL     1      27.365   1.244  53.062  1.00  0.00     0.068 A 
ENDBRANCH  14  16
ENDBRANCH   8  14
BRANCH   1  23
HETATM   23  C1  UNL     1      24.809   9.202  49.118  1.00  0.00     0.296 C 
BRANCH  23  24
HETATM   24  N1  UNL     1      25.966   9.266  49.965  1.00  0.00     0.081 N 
HETATM   25  H1  UNL     1      26.400   8.324  50.141  1.00  0.00     0.313 HD
HETATM   26  H2  UNL     1      25.735   9.770  50.841  1.00  0.00     0.313 HD
ENDBRANCH  23  24
ENDBRANCH   1  23
TORSDOF 4
ENDMDL
MODEL 7
REMARK VINA RESULT:      -6.7      3.428      5.639
REMARK  4 active torsions:
REMARK  status: ('A' for Active; 'I' for Inactive)
REMARK    1  A    between atoms: N1_1  and  C1_2 
REMARK    2  A    between atoms: C1_2  and  C2_3 
REMARK    3  A    between atoms: C6_10  and  N4_11 
REMARK    4  A    between atoms: N4_11  and  C7_12 
ROOT
HETATM    1  C2  UNL     1      27.938  -0.212  54.100  1.00  0.00     0.039 C 
HETATM    2  C3  UNL     1      26.924   0.510  53.648  1.00  0.00     0.092 C 
HETATM    3  O1  UNL     1      27.258   1.354  52.576  1.00  0.00    -0.279 OA
HETATM    4  C4  UNL     1      26.439   2.072  51.748  1.00  0.00     0.257 A 
HETATM    5  N2  UNL     1      27.047   2.921  50.967  1.00  0.00    -0.202 NA
HETATM    6  C5  UNL     1      26.226   3.703  50.074  1.00  0.00     0.235 A 
HETATM    7  N3  UNL     1      24.949   3.682  49.934  1.00  0.00    -0.237 NA
HETATM    8  C6  UNL     1      24.152   2.793  50.732  1.00  0.00     0.322 A 
HETATM    9  N6  UNL     1      25.024   2.040  51.603  1.00  0.00    -0.281 N 
HETATM   10  C12 UNL     1      24.167   1.170  52.373  1.00  0.00     0.098 C 
HETATM   11  C13 UNL     1      24.451   0.486  53.477  1.00  0.00     0.034 C 
HETATM   12  C14 UNL     1      25.628   0.303  54.346  1.00  0.00     0.251 C 
HETATM   13  F1  UNL     1      25.608  -0.923  54.973  1.00  0.00    -0.238 F 
ENDROOT
BRANCH   8  14
HETATM   14  N4  UNL     1      23.520   1.863  49.782  1.00  0.00    -0.350 N 
HETATM   15  H8  UNL     1      24.073   1.126  49.291  1.00  0.00     0.163 HD
BRANCH  14  16
HETATM   16  C7  UNL     1      22.132   1.937  49.502  1.00  0.00     0.035 A 
HETATM   17  C8  UNL     1      21.633   2.728  48.464  1.00  0.00     0.048 A 
HETATM   18  C9  UNL     1      20.290   2.822  48.166  1.00  0.00     0.120 A 
HETATM   19  N5  UNL     1      19.441   2.121  48.909  1.00  0.00    -0.253 NA
HETATM   20  C10 UNL     1      19.839   1.336  49.928  1.00  0.00     0.104 A 
HETATM   21 BR1  UNL     1      18.553   0.351  50.962  1.00  0.00    -0.029 Br
HETATM   22  C11 UNL     1      21.188   1.243  50.225  1.00  0.00     0.068 A 
ENDBRANCH  14  16
ENDBRANCH   8  14
BRANCH   1  23
HETATM   23  C1  UNL     1      29.288  -0.138  53.532  1.00  0.00     0.296 C 
BRANCH  23  24
HETATM   24  N1  UNL     1      29.888   1.163  53.631  1.00  0.00     0.081 N 
HETATM   25  H1  UNL     1      30.419   1.439  52.766  1.00  0.00     0.313 HD
HETATM   26  H2  UNL     1      30.466   1.222  54.490  1.00  0.00     0.313 HD
ENDBRANCH  23  24
ENDBRANCH   1  23
TORSDOF 4
ENDMDL
MODEL 8
REMARK VINA RESULT:      -6.7      4.272      5.895
REMARK  4 active torsions:
REMARK  status: ('A' for Active; 'I' for Inactive)
REMARK    1  A    between atoms: N1_1  and  C1_2 
REMARK    2  A    between atoms: C1_2  and  C2_3 
REMARK    3  A    between atoms: C6_10  and  N4_11 
REMARK    4  A    between atoms: N4_11  and  C7_12 
ROOT
HETATM    1  C2  UNL     1      19.453   1.479  50.210  1.00  0.00     0.039 C 
HETATM    2  C3  UNL     1      20.510   1.459  51.008  1.00  0.00     0.092 C 
HETATM    3  O1  UNL     1      20.458   0.464  51.998  1.00  0.00    -0.279 OA
HETATM    4  C4  UNL     1      21.440   0.029  52.845  1.00  0.00     0.257 A 
HETATM    5  N2  UNL     1      21.042  -0.774  53.792  1.00  0.00    -0.202 NA
HETATM    6  C5  UNL     1      22.041  -1.260  54.711  1.00  0.00     0.235 A 
HETATM    7  N3  UNL     1      23.302  -1.009  54.732  1.00  0.00    -0.237 NA
HETATM    8  C6  UNL     1      23.878  -0.139  53.746  1.00  0.00     0.322 A 
HETATM    9  N6  UNL     1      22.834   0.315  52.857  1.00  0.00    -0.281 N 
HETATM   10  C12 UNL     1      23.476   1.180  51.895  1.00  0.00     0.098 C 
HETATM   11  C13 UNL     1      22.918   2.041  51.050  1.00  0.00     0.034 C 
HETATM   12  C14 UNL     1      21.550   2.480  50.720  1.00  0.00     0.251 C 
HETATM   13  F1  UNL     1      21.457   2.907  49.413  1.00  0.00    -0.238 F 
ENDROOT
BRANCH   8  14
HETATM   14  N4  UNL     1      24.818  -0.973  52.980  1.00  0.00    -0.350 N 
HETATM   15  H8  UNL     1      24.481  -1.725  52.339  1.00  0.00     0.163 HD
BRANCH  14  16
HETATM   16  C7  UNL     1      26.219  -0.779  53.086  1.00  0.00     0.035 A 
HETATM   17  C8  UNL     1      27.120  -1.835  52.933  1.00  0.00     0.048 A 
HETATM   18  C9  UNL     1      28.487  -1.681  53.030  1.00  0.00     0.120 A 
HETATM   19  N5  UNL     1      28.956  -0.463  53.280  1.00  0.00    -0.253 NA
HETATM   20  C10 UNL     1      28.155   0.608  53.441  1.00  0.00     0.104 A 
HETATM   21 BR1  UNL     1      28.904   2.341  53.803  1.00  0.00    -0.029 Br
HETATM   22  C11 UNL     1      26.784   0.449  53.343  1.00  0.00     0.068 A 
ENDBRANCH  14  16
ENDBRANCH   8  14
BRANCH   1  23
HETATM   23  C1  UNL     1      18.329   0.545  50.347  1.00  0.00     0.296 C 
BRANCH  23  24
HETATM   24  N1  UNL     1      17.497   0.805  51.488  1.00  0.00     0.081 N 
HETATM   25  H1  UNL     1      16.862   1.633  51.355  1.00  0.00     0.313 HD
HETATM   26  H2  UNL     1      18.081   0.882  52.342  1.00  0.00     0.313 HD
ENDBRANCH  23  24
ENDBRANCH   1  23
TORSDOF 4
ENDMDL
MODEL 9
REMARK VINA RESULT:      -6.7      4.102      7.676
REMARK  4 active torsions:
REMARK  status: ('A' for Active; 'I' for Inactive)
REMARK    1  A    between atoms: N1_1  and  C1_2 
REMARK    2  A    between atoms: C1_2  and  C2_3 
REMARK    3  A    between atoms: C6_10  and  N4_11 
REMARK    4  A    between atoms: N4_11  and  C7_12 
ROOT
HETATM    1  C2  UNL     1      24.585   8.721  49.741  1.00  0.00     0.039 C 
HETATM    2  C3  UNL     1      24.297   7.441  49.926  1.00  0.00     0.092 C 
HETATM    3  O1  UNL     1      25.387   6.577  49.728  1.00  0.00    -0.279 OA
HETATM    4  C4  UNL     1      25.506   5.247  50.022  1.00  0.00     0.257 A 
HETATM    5  N2  UNL     1      26.569   4.665  49.543  1.00  0.00    -0.202 NA
HETATM    6  C5  UNL     1      26.740   3.261  49.828  1.00  0.00     0.235 A 
HETATM    7  N3  UNL     1      25.975   2.480  50.504  1.00  0.00    -0.237 NA
HETATM    8  C6  UNL     1      24.767   2.989  51.090  1.00  0.00     0.322 A 
HETATM    9  N6  UNL     1      24.649   4.393  50.773  1.00  0.00    -0.281 N 
HETATM   10  C12 UNL     1      23.422   4.841  51.388  1.00  0.00     0.098 C 
HETATM   11  C13 UNL     1      22.744   5.963  51.169  1.00  0.00     0.034 C 
HETATM   12  C14 UNL     1      22.890   7.148  50.304  1.00  0.00     0.251 C 
HETATM   13  F1  UNL     1      22.301   8.260  50.865  1.00  0.00    -0.238 F 
ENDROOT
BRANCH   8  14
HETATM   14  N4  UNL     1      24.940   2.849  52.544  1.00  0.00    -0.350 N 
HETATM   15  H8  UNL     1      25.150   3.672  53.149  1.00  0.00     0.163 HD
BRANCH  14  16
HETATM   16  C7  UNL     1      24.826   1.583  53.175  1.00  0.00     0.035 A 
HETATM   17  C8  UNL     1      25.913   0.977  53.808  1.00  0.00     0.048 A 
HETATM   18  C9  UNL     1      25.835  -0.252  54.429  1.00  0.00     0.120 A 
HETATM   19  N5  UNL     1      24.663  -0.877  54.418  1.00  0.00    -0.253 NA
HETATM   20  C10 UNL     1      23.566  -0.362  53.830  1.00  0.00     0.104 A 
HETATM   21 BR1  UNL     1      21.903  -1.325  53.852  1.00  0.00    -0.029 Br
HETATM   22  C11 UNL     1      23.648   0.871  53.207  1.00  0.00     0.068 A 
ENDBRANCH  14  16
ENDBRANCH   8  14
BRANCH   1  23
HETATM   23  C1  UNL     1      25.922   9.193  49.364  1.00  0.00     0.296 C 
BRANCH  23  24
HETATM   24  N1  UNL     1      26.889   9.098  50.420  1.00  0.00     0.081 N 
HETATM   25  H1  UNL     1      27.088   8.105  50.708  1.00  0.00     0.313 HD
HETATM   26  H2  UNL     1      26.602   9.695  51.218  1.00  0.00     0.313 HD
ENDBRANCH  23  24
ENDBRANCH   1  23
TORSDOF 4
ENDMDL
