MODEL 1
REMARK VINA RESULT:      -8.6      0.000      0.000
REMARK  8 active torsions:
REMARK  status: ('A' for Active; 'I' for Inactive)
REMARK    1  A    between atoms: C2_2  and  C3_3 
REMARK       I    between atoms: C3_3  and  N1_5 
REMARK    2  A    between atoms: N1_5  and  C4_6 
REMARK    3  A    between atoms: C8_10  and  C9_11 
REMARK    4  A    between atoms: C9_11  and  C10_12 
REMARK    5  A    between atoms: C12_14  and  N2_15 
REMARK    6  A    between atoms: N2_15  and  C13_16 
REMARK    7  A    between atoms: C18_21  and  C19_22 
REMARK    8  A    between atoms: C19_22  and  O2_23 
ROOT
HETATM    1  C10 UNL     1      25.157   3.134  50.354  1.00  0.00     0.114 A 
HETATM    2  C11 UNL     1      24.739   4.134  49.320  1.00  0.00     0.046 A 
HETATM    3  C12 UNL     1      25.518   5.115  49.792  1.00  0.00     0.100 A 
HETATM    4  N3  UNL     1      25.975   4.238  50.811  1.00  0.00    -0.368 N 
HETATM    5  H20 UNL     1      26.671   4.411  51.593  1.00  0.00     0.161 HD
ENDROOT
BRANCH   1   6
HETATM    6  C9  UNL     1      23.969   2.783  51.194  1.00  0.00     0.068 C 
BRANCH   6   7
HETATM    7  C8  UNL     1      24.249   1.581  52.001  1.00  0.00    -0.054 A 
HETATM    8  C7  UNL     1      23.224   0.925  52.638  1.00  0.00     0.007 A 
HETATM    9  C6  UNL     1      23.539  -0.190  53.380  1.00  0.00     0.003 A 
HETATM   10  C5  UNL     1      24.846  -0.586  53.447  1.00  0.00     0.029 A 
HETATM   11  C4  UNL     1      25.898   0.039  52.828  1.00  0.00     0.035 A 
HETATM   12  C20 UNL     1      25.554   1.147  52.095  1.00  0.00     0.036 A 
BRANCH  11  13
HETATM   13  N1  UNL     1      27.263  -0.322  52.865  1.00  0.00    -0.324 N 
HETATM   14  C3  UNL     1      28.258   0.091  53.775  1.00  0.00     0.241 C 
HETATM   15  O1  UNL     1      27.984   0.881  54.706  1.00  0.00    -0.269 OA
HETATM   16  H4  UNL     1      27.666  -0.976  52.163  1.00  0.00     0.169 HD
BRANCH  14  17
HETATM   17  C2  UNL     1      29.654  -0.317  53.760  1.00  0.00     0.048 C 
HETATM   18  C1  UNL     1      29.471  -1.589  53.363  1.00  0.00     0.037 C 
ENDBRANCH  14  17
ENDBRANCH  11  13
ENDBRANCH   6   7
ENDBRANCH   1   6
BRANCH   3  19
HETATM   19  N2  UNL     1      25.718   6.473  49.346  1.00  0.00    -0.342 N 
HETATM   20  H12 UNL     1      24.846   7.037  49.344  1.00  0.00     0.167 HD
BRANCH  19  21
HETATM   21  C13 UNL     1      27.019   6.908  48.968  1.00  0.00     0.042 A 
HETATM   22  C14 UNL     1      27.825   6.053  48.225  1.00  0.00     0.030 A 
HETATM   23  C15 UNL     1      29.099   6.370  47.806  1.00  0.00     0.002 A 
HETATM   24  C16 UNL     1      29.552   7.621  48.173  1.00  0.00     0.001 A 
HETATM   25  C17 UNL     1      28.817   8.532  48.911  1.00  0.00     0.011 A 
HETATM   26  C18 UNL     1      27.537   8.147  49.302  1.00  0.00    -0.008 A 
BRANCH  26  27
HETATM   27  C19 UNL     1      26.680   9.067  50.094  1.00  0.00     0.205 C 
BRANCH  27  28
HETATM   28  O2  UNL     1      27.486   9.618  51.103  1.00  0.00    -0.396 OA
HETATM   29  H19 UNL     1      27.049  10.503  51.302  1.00  0.00     0.209 HD
ENDBRANCH  27  28
ENDBRANCH  26  27
ENDBRANCH  19  21
ENDBRANCH   3  19
TORSDOF 8
ENDMDL
MODEL 2
REMARK VINA RESULT:      -8.4      1.973      2.915
REMARK  8 active torsions:
REMARK  status: ('A' for Active; 'I' for Inactive)
REMARK    1  A    between atoms: C2_2  and  C3_3 
REMARK       I    between atoms: C3_3  and  N1_5 
REMARK    2  A    between atoms: N1_5  and  C4_6 
REMARK    3  A    between atoms: C8_10  and  C9_11 
REMARK    4  A    between atoms: C9_11  and  C10_12 
REMARK    5  A    between atoms: C12_14  and  N2_15 
REMARK    6  A    between atoms: N2_15  and  C13_16 
REMARK    7  A    between atoms: C18_21  and  C19_22 
REMARK    8  A    between atoms: C19_22  and  O2_23 
ROOT
HETATM    1  C10 UNL     1      21.952   2.070  52.167  1.00  0.00     0.114 A 
HETATM    2  C11 UNL     1      23.101   2.898  52.655  1.00  0.00     0.046 A 
HETATM    3  C12 UNL     1      23.063   3.757  51.630  1.00  0.00     0.100 A 
HETATM    4  N3  UNL     1      21.967   3.035  51.087  1.00  0.00    -0.368 N 
HETATM    5  H20 UNL     1      21.412   3.208  50.199  1.00  0.00     0.161 HD
ENDROOT
BRANCH   1   6
HETATM    6  C9  UNL     1      22.450   0.695  51.849  1.00  0.00     0.068 C 
BRANCH   6   7
HETATM    7  C8  UNL     1      22.949   0.035  53.070  1.00  0.00    -0.054 A 
HETATM    8  C7  UNL     1      22.066  -0.409  54.023  1.00  0.00     0.007 A 
HETATM    9  C6  UNL     1      22.582  -1.016  55.144  1.00  0.00     0.003 A 
HETATM   10  C5  UNL     1      23.939  -1.145  55.254  1.00  0.00     0.029 A 
HETATM   11  C4  UNL     1      24.855  -0.716  54.329  1.00  0.00     0.035 A 
HETATM   12  C20 UNL     1      24.311  -0.115  53.222  1.00  0.00     0.036 A 
BRANCH  11  13
HETATM   13  N1  UNL     1      26.263  -0.819  54.392  1.00  0.00    -0.324 N 
HETATM   14  C3  UNL     1      27.208   0.193  54.657  1.00  0.00     0.241 C 
HETATM   15  O1  UNL     1      26.840   1.369  54.880  1.00  0.00    -0.269 OA
HETATM   16  H4  UNL     1      26.743  -1.728  54.232  1.00  0.00     0.169 HD
BRANCH  14  17
HETATM   17  C2  UNL     1      28.651   0.024  54.707  1.00  0.00     0.048 C 
HETATM   18  C1  UNL     1      28.978   0.944  53.783  1.00  0.00     0.037 C 
ENDBRANCH  14  17
ENDBRANCH  11  13
ENDBRANCH   6   7
ENDBRANCH   1   6
BRANCH   3  19
HETATM   19  N2  UNL     1      23.871   4.913  51.322  1.00  0.00    -0.342 N 
HETATM   20  H12 UNL     1      23.528   5.784  51.770  1.00  0.00     0.167 HD
BRANCH  19  21
HETATM   21  C13 UNL     1      25.009   4.776  50.479  1.00  0.00     0.042 A 
HETATM   22  C14 UNL     1      25.458   3.500  50.157  1.00  0.00     0.030 A 
HETATM   23  C15 UNL     1      26.548   3.250  49.352  1.00  0.00     0.002 A 
HETATM   24  C16 UNL     1      27.195   4.367  48.863  1.00  0.00     0.001 A 
HETATM   25  C17 UNL     1      26.816   5.670  49.134  1.00  0.00     0.011 A 
HETATM   26  C18 UNL     1      25.706   5.850  49.956  1.00  0.00    -0.008 A 
BRANCH  26  27
HETATM   27  C19 UNL     1      25.229   7.217  50.293  1.00  0.00     0.205 C 
BRANCH  27  28
HETATM   28  O2  UNL     1      26.336   7.933  50.778  1.00  0.00    -0.396 OA
HETATM   29  H19 UNL     1      26.028   8.273  51.673  1.00  0.00     0.209 HD
ENDBRANCH  27  28
ENDBRANCH  26  27
ENDBRANCH  19  21
ENDBRANCH   3  19
TORSDOF 8
ENDMDL
MODEL 3
REMARK VINA RESULT:      -8.2      1.961      7.977
REMARK  8 active torsions:
REMARK  status: ('A' for Active; 'I' for Inactive)
REMARK    1  A    between atoms: C2_2  and  C3_3 
REMARK       I    between atoms: C3_3  and  N1_5 
REMARK    2  A    between atoms: N1_5  and  C4_6 
REMARK    3  A    between atoms: C8_10  and  C9_11 
REMARK    4  A    between atoms: C9_11  and  C10_12 
REMARK    5  A    between atoms: C12_14  and  N2_15 
REMARK    6  A    between atoms: N2_15  and  C13_16 
REMARK    7  A    between atoms: C18_21  and  C19_22 
REMARK    8  A    between atoms: C19_22  and  O2_23 
ROOT
HETATM    1  C10 UNL     1      25.720   3.181  50.956  1.00  0.00     0.114 A 
HETATM    2  C11 UNL     1      25.310   1.798  51.358  1.00  0.00     0.046 A 
HETATM    3  C12 UNL     1      26.033   1.789  52.483  1.00  0.00     0.100 A 
HETATM    4  N3  UNL     1      26.478   3.105  52.187  1.00  0.00    -0.368 N 
HETATM    5  H20 UNL     1      27.135   3.738  52.729  1.00  0.00     0.161 HD
ENDROOT
BRANCH   1   6
HETATM    6  C9  UNL     1      26.497   3.102  49.679  1.00  0.00     0.068 C 
BRANCH   6   7
HETATM    7  C8  UNL     1      26.697   4.451  49.116  1.00  0.00    -0.054 A 
HETATM    8  C7  UNL     1      25.637   5.318  49.016  1.00  0.00     0.007 A 
HETATM    9  C6  UNL     1      25.875   6.563  48.482  1.00  0.00     0.003 A 
HETATM   10  C5  UNL     1      27.145   6.874  48.081  1.00  0.00     0.029 A 
HETATM   11  C4  UNL     1      28.230   6.039  48.163  1.00  0.00     0.035 A 
HETATM   12  C20 UNL     1      27.962   4.804  48.699  1.00  0.00     0.036 A 
BRANCH  11  13
HETATM   13  N1  UNL     1      29.558   6.303  47.762  1.00  0.00    -0.324 N 
HETATM   14  C3  UNL     1      30.429   7.315  48.214  1.00  0.00     0.241 C 
HETATM   15  O1  UNL     1      30.060   8.133  49.087  1.00  0.00    -0.269 OA
HETATM   16  H4  UNL     1      30.028   5.718  47.041  1.00  0.00     0.169 HD
BRANCH  14  17
HETATM   17  C2  UNL     1      31.792   7.538  47.758  1.00  0.00     0.048 C 
HETATM   18  C1  UNL     1      32.430   7.080  48.850  1.00  0.00     0.037 C 
ENDBRANCH  14  17
ENDBRANCH  11  13
ENDBRANCH   6   7
ENDBRANCH   1   6
BRANCH   3  19
HETATM   19  N2  UNL     1      26.202   0.781  53.502  1.00  0.00    -0.342 N 
HETATM   20  H12 UNL     1      25.548   0.890  54.300  1.00  0.00     0.167 HD
BRANCH  19  21
HETATM   21  C13 UNL     1      27.194  -0.227  53.341  1.00  0.00     0.042 A 
HETATM   22  C14 UNL     1      26.823  -1.457  52.810  1.00  0.00     0.030 A 
HETATM   23  C15 UNL     1      27.699  -2.503  52.611  1.00  0.00     0.002 A 
HETATM   24  C16 UNL     1      29.007  -2.262  52.980  1.00  0.00     0.001 A 
HETATM   25  C17 UNL     1      29.460  -1.069  53.516  1.00  0.00     0.011 A 
HETATM   26  C18 UNL     1      28.522  -0.054  53.690  1.00  0.00    -0.008 A 
BRANCH  26  27
HETATM   27  C19 UNL     1      28.926   1.259  54.256  1.00  0.00     0.205 C 
BRANCH  27  28
HETATM   28  O2  UNL     1      29.233   2.099  53.173  1.00  0.00    -0.396 OA
HETATM   29  H19 UNL     1      30.016   2.639  53.503  1.00  0.00     0.209 HD
ENDBRANCH  27  28
ENDBRANCH  26  27
ENDBRANCH  19  21
ENDBRANCH   3  19
TORSDOF 8
ENDMDL
MODEL 4
REMARK VINA RESULT:      -8.2      1.241      1.924
REMARK  8 active torsions:
REMARK  status: ('A' for Active; 'I' for Inactive)
REMARK    1  A    between atoms: C2_2  and  C3_3 
REMARK       I    between atoms: C3_3  and  N1_5 
REMARK    2  A    between atoms: N1_5  and  C4_6 
REMARK    3  A    between atoms: C8_10  and  C9_11 
REMARK    4  A    between atoms: C9_11  and  C10_12 
REMARK    5  A    between atoms: C12_14  and  N2_15 
REMARK    6  A    between atoms: N2_15  and  C13_16 
REMARK    7  A    between atoms: C18_21  and  C19_22 
REMARK    8  A    between atoms: C19_22  and  O2_23 
ROOT
HETATM    1  C10 UNL     1      25.357   3.274  51.273  1.00  0.00     0.114 A 
HETATM    2  C11 UNL     1      25.947   3.429  49.905  1.00  0.00     0.046 A 
HETATM    3  C12 UNL     1      25.630   4.723  49.791  1.00  0.00     0.100 A 
HETATM    4  N3  UNL     1      25.044   4.675  51.084  1.00  0.00    -0.368 N 
HETATM    5  H20 UNL     1      24.567   5.441  51.642  1.00  0.00     0.161 HD
ENDROOT
BRANCH   1   6
HETATM    6  C9  UNL     1      24.213   2.312  51.199  1.00  0.00     0.068 C 
BRANCH   6   7
HETATM    7  C8  UNL     1      24.439   1.176  52.112  1.00  0.00    -0.054 A 
HETATM    8  C7  UNL     1      23.401   0.680  52.863  1.00  0.00     0.007 A 
HETATM    9  C6  UNL     1      23.665  -0.379  53.700  1.00  0.00     0.003 A 
HETATM   10  C5  UNL     1      24.936  -0.882  53.743  1.00  0.00     0.029 A 
HETATM   11  C4  UNL     1      25.999  -0.417  53.011  1.00  0.00     0.035 A 
HETATM   12  C20 UNL     1      25.706   0.639  52.186  1.00  0.00     0.036 A 
BRANCH  11  13
HETATM   13  N1  UNL     1      27.329  -0.892  53.019  1.00  0.00    -0.324 N 
HETATM   14  C3  UNL     1      28.420  -0.440  53.788  1.00  0.00     0.241 C 
HETATM   15  O1  UNL     1      28.283   0.502  54.600  1.00  0.00    -0.269 OA
HETATM   16  H4  UNL     1      27.622  -1.677  52.402  1.00  0.00     0.169 HD
BRANCH  14  17
HETATM   17  C2  UNL     1      29.773  -0.973  53.749  1.00  0.00     0.048 C 
HETATM   18  C1  UNL     1      29.476  -2.201  53.290  1.00  0.00     0.037 C 
ENDBRANCH  14  17
ENDBRANCH  11  13
ENDBRANCH   6   7
ENDBRANCH   1   6
BRANCH   3  19
HETATM   19  N2  UNL     1      25.854   5.671  48.726  1.00  0.00    -0.342 N 
HETATM   20  H12 UNL     1      25.545   5.326  47.797  1.00  0.00     0.167 HD
BRANCH  19  21
HETATM   21  C13 UNL     1      26.444   6.933  49.016  1.00  0.00     0.042 A 
HETATM   22  C14 UNL     1      25.669   7.916  49.620  1.00  0.00     0.030 A 
HETATM   23  C15 UNL     1      26.136   9.172  49.944  1.00  0.00     0.002 A 
HETATM   24  C16 UNL     1      27.457   9.415  49.627  1.00  0.00     0.001 A 
HETATM   25  C17 UNL     1      28.298   8.495  49.026  1.00  0.00     0.011 A 
HETATM   26  C18 UNL     1      27.761   7.245  48.725  1.00  0.00    -0.008 A 
BRANCH  26  27
HETATM   27  C19 UNL     1      28.596   6.198  48.082  1.00  0.00     0.205 C 
BRANCH  27  28
HETATM   28  O2  UNL     1      28.973   5.293  49.088  1.00  0.00    -0.396 OA
HETATM   29  H19 UNL     1      28.254   5.397  49.784  1.00  0.00     0.209 HD
ENDBRANCH  27  28
ENDBRANCH  26  27
ENDBRANCH  19  21
ENDBRANCH   3  19
TORSDOF 8
ENDMDL
MODEL 5
REMARK VINA RESULT:      -8.1      2.373      8.007
REMARK  8 active torsions:
REMARK  status: ('A' for Active; 'I' for Inactive)
REMARK    1  A    between atoms: C2_2  and  C3_3 
REMARK       I    between atoms: C3_3  and  N1_5 
REMARK    2  A    between atoms: N1_5  and  C4_6 
REMARK    3  A    between atoms: C8_10  and  C9_11 
REMARK    4  A    between atoms: C9_11  and  C10_12 
REMARK    5  A    between atoms: C12_14  and  N2_15 
REMARK    6  A    between atoms: N2_15  and  C13_16 
REMARK    7  A    between atoms: C18_21  and  C19_22 
REMARK    8  A    between atoms: C19_22  and  O2_23 
ROOT
HETATM    1  C10 UNL     1      25.694   3.687  50.736  1.00  0.00     0.114 A 
HETATM    2  C11 UNL     1      25.027   2.386  51.060  1.00  0.00     0.046 A 
HETATM    3  C12 UNL     1      25.986   1.973  51.896  1.00  0.00     0.100 A 
HETATM    4  N3  UNL     1      26.694   3.180  51.652  1.00  0.00    -0.368 N 
HETATM    5  H20 UNL     1      27.622   3.514  52.043  1.00  0.00     0.161 HD
ENDROOT
BRANCH   1   6
HETATM    6  C9  UNL     1      26.054   3.696  49.283  1.00  0.00     0.068 C 
BRANCH   6   7
HETATM    7  C8  UNL     1      26.797   4.925  48.947  1.00  0.00    -0.054 A 
HETATM    8  C7  UNL     1      26.195   6.152  49.078  1.00  0.00     0.007 A 
HETATM    9  C6  UNL     1      26.931   7.267  48.749  1.00  0.00     0.003 A 
HETATM   10  C5  UNL     1      28.216   7.100  48.313  1.00  0.00     0.029 A 
HETATM   11  C4  UNL     1      28.855   5.895  48.169  1.00  0.00     0.035 A 
HETATM   12  C20 UNL     1      28.096   4.802  48.503  1.00  0.00     0.036 A 
BRANCH  11  13
HETATM   13  N1  UNL     1      30.174   5.663  47.720  1.00  0.00    -0.324 N 
HETATM   14  C3  UNL     1      31.346   5.488  48.485  1.00  0.00     0.241 C 
HETATM   15  O1  UNL     1      31.304   5.526  49.736  1.00  0.00    -0.269 OA
HETATM   16  H4  UNL     1      30.393   5.600  46.705  1.00  0.00     0.169 HD
BRANCH  14  17
HETATM   17  C2  UNL     1      32.682   5.253  47.962  1.00  0.00     0.048 C 
HETATM   18  C1  UNL     1      32.964   6.516  47.597  1.00  0.00     0.037 C 
ENDBRANCH  14  17
ENDBRANCH  11  13
ENDBRANCH   6   7
ENDBRANCH   1   6
BRANCH   3  19
HETATM   19  N2  UNL     1      26.122   0.764  52.671  1.00  0.00    -0.342 N 
HETATM   20  H12 UNL     1      25.214   0.308  52.883  1.00  0.00     0.167 HD
BRANCH  19  21
HETATM   21  C13 UNL     1      27.415   0.315  53.062  1.00  0.00     0.042 A 
HETATM   22  C14 UNL     1      28.324   1.240  53.563  1.00  0.00     0.030 A 
HETATM   23  C15 UNL     1      29.601   0.918  53.970  1.00  0.00     0.002 A 
HETATM   24  C16 UNL     1      29.945  -0.414  53.851  1.00  0.00     0.001 A 
HETATM   25  C17 UNL     1      29.103  -1.398  53.363  1.00  0.00     0.011 A 
HETATM   26  C18 UNL     1      27.827  -1.002  52.969  1.00  0.00    -0.008 A 
BRANCH  26  27
HETATM   27  C19 UNL     1      26.858  -1.996  52.437  1.00  0.00     0.205 C 
BRANCH  27  28
HETATM   28  O2  UNL     1      27.498  -3.247  52.454  1.00  0.00    -0.396 OA
HETATM   29  H19 UNL     1      26.853  -3.852  51.974  1.00  0.00     0.209 HD
ENDBRANCH  27  28
ENDBRANCH  26  27
ENDBRANCH  19  21
ENDBRANCH   3  19
TORSDOF 8
ENDMDL
MODEL 6
REMARK VINA RESULT:      -8.0      2.396      8.107
REMARK  8 active torsions:
REMARK  status: ('A' for Active; 'I' for Inactive)
REMARK    1  A    between atoms: C2_2  and  C3_3 
REMARK       I    between atoms: C3_3  and  N1_5 
REMARK    2  A    between atoms: N1_5  and  C4_6 
REMARK    3  A    between atoms: C8_10  and  C9_11 
REMARK    4  A    between atoms: C9_11  and  C10_12 
REMARK    5  A    between atoms: C12_14  and  N2_15 
REMARK    6  A    between atoms: N2_15  and  C13_16 
REMARK    7  A    between atoms: C18_21  and  C19_22 
REMARK    8  A    between atoms: C19_22  and  O2_23 
ROOT
HETATM    1  C10 UNL     1      24.492   2.736  52.224  1.00  0.00     0.114 A 
HETATM    2  C11 UNL     1      24.612   1.443  52.969  1.00  0.00     0.046 A 
HETATM    3  C12 UNL     1      25.760   1.768  53.575  1.00  0.00     0.100 A 
HETATM    4  N3  UNL     1      25.733   3.024  52.912  1.00  0.00    -0.368 N 
HETATM    5  H20 UNL     1      26.420   3.832  52.960  1.00  0.00     0.161 HD
ENDROOT
BRANCH   1   6
HETATM    6  C9  UNL     1      24.583   2.459  50.757  1.00  0.00     0.068 C 
BRANCH   6   7
HETATM    7  C8  UNL     1      25.275   3.564  50.068  1.00  0.00    -0.054 A 
HETATM    8  C7  UNL     1      26.561   3.395  49.615  1.00  0.00     0.007 A 
HETATM    9  C6  UNL     1      27.162   4.457  48.980  1.00  0.00     0.003 A 
HETATM   10  C5  UNL     1      26.456   5.619  48.833  1.00  0.00     0.029 A 
HETATM   11  C4  UNL     1      25.173   5.830  49.270  1.00  0.00     0.035 A 
HETATM   12  C20 UNL     1      24.600   4.753  49.898  1.00  0.00     0.036 A 
BRANCH  11  13
HETATM   13  N1  UNL     1      24.399   7.005  49.149  1.00  0.00    -0.324 N 
HETATM   14  C3  UNL     1      23.538   7.388  48.101  1.00  0.00     0.241 C 
HETATM   15  O1  UNL     1      23.375   6.648  47.105  1.00  0.00    -0.269 OA
HETATM   16  H4  UNL     1      24.412   7.735  49.891  1.00  0.00     0.169 HD
BRANCH  14  17
HETATM   17  C2  UNL     1      22.766   8.619  48.035  1.00  0.00     0.048 C 
HETATM   18  C1  UNL     1      22.582   8.794  49.355  1.00  0.00     0.037 C 
ENDBRANCH  14  17
ENDBRANCH  11  13
ENDBRANCH   6   7
ENDBRANCH   1   6
BRANCH   3  19
HETATM   19  N2  UNL     1      26.587   1.040  54.506  1.00  0.00    -0.342 N 
HETATM   20  H12 UNL     1      26.376   1.255  55.499  1.00  0.00     0.167 HD
BRANCH  19  21
HETATM   21  C13 UNL     1      27.572   0.135  54.019  1.00  0.00     0.042 A 
HETATM   22  C14 UNL     1      27.170  -1.117  53.568  1.00  0.00     0.030 A 
HETATM   23  C15 UNL     1      28.036  -2.071  53.077  1.00  0.00     0.002 A 
HETATM   24  C16 UNL     1      29.368  -1.710  53.056  1.00  0.00     0.001 A 
HETATM   25  C17 UNL     1      29.853  -0.488  53.486  1.00  0.00     0.011 A 
HETATM   26  C18 UNL     1      28.923   0.429  53.970  1.00  0.00    -0.008 A 
BRANCH  26  27
HETATM   27  C19 UNL     1      29.359   1.767  54.449  1.00  0.00     0.205 C 
BRANCH  27  28
HETATM   28  O2  UNL     1      29.064   2.687  53.430  1.00  0.00    -0.396 OA
HETATM   29  H19 UNL     1      28.058   2.728  53.427  1.00  0.00     0.209 HD
ENDBRANCH  27  28
ENDBRANCH  26  27
ENDBRANCH  19  21
ENDBRANCH   3  19
TORSDOF 8
ENDMDL
MODEL 7
REMARK VINA RESULT:      -7.8      2.487      3.228
REMARK  8 active torsions:
REMARK  status: ('A' for Active; 'I' for Inactive)
REMARK    1  A    between atoms: C2_2  and  C3_3 
REMARK       I    between atoms: C3_3  and  N1_5 
REMARK    2  A    between atoms: N1_5  and  C4_6 
REMARK    3  A    between atoms: C8_10  and  C9_11 
REMARK    4  A    between atoms: C9_11  and  C10_12 
REMARK    5  A    between atoms: C12_14  and  N2_15 
REMARK    6  A    between atoms: N2_15  and  C13_16 
REMARK    7  A    between atoms: C18_21  and  C19_22 
REMARK    8  A    between atoms: C19_22  and  O2_23 
ROOT
HETATM    1  C10 UNL     1      22.567   2.825  52.262  1.00  0.00     0.114 A 
HETATM    2  C11 UNL     1      23.734   3.611  52.775  1.00  0.00     0.046 A 
HETATM    3  C12 UNL     1      23.582   4.618  51.907  1.00  0.00     0.100 A 
HETATM    4  N3  UNL     1      22.459   3.947  51.353  1.00  0.00    -0.368 N 
HETATM    5  H20 UNL     1      21.821   4.235  50.555  1.00  0.00     0.161 HD
ENDROOT
BRANCH   1   6
HETATM    6  C9  UNL     1      23.067   1.537  51.688  1.00  0.00     0.068 C 
BRANCH   6   7
HETATM    7  C8  UNL     1      23.482   0.621  52.767  1.00  0.00    -0.054 A 
HETATM    8  C7  UNL     1      22.545   0.102  53.626  1.00  0.00     0.007 A 
HETATM    9  C6  UNL     1      22.984  -0.746  54.617  1.00  0.00     0.003 A 
HETATM   10  C5  UNL     1      24.319  -1.027  54.697  1.00  0.00     0.029 A 
HETATM   11  C4  UNL     1      25.287  -0.531  53.861  1.00  0.00     0.035 A 
HETATM   12  C20 UNL     1      24.820   0.311  52.883  1.00  0.00     0.036 A 
BRANCH  11  13
HETATM   13  N1  UNL     1      26.676  -0.783  53.899  1.00  0.00    -0.324 N 
HETATM   14  C3  UNL     1      27.708   0.048  54.382  1.00  0.00     0.241 C 
HETATM   15  O1  UNL     1      27.449   1.175  54.861  1.00  0.00    -0.269 OA
HETATM   16  H4  UNL     1      27.070  -1.676  53.540  1.00  0.00     0.169 HD
BRANCH  14  17
HETATM   17  C2  UNL     1      29.127  -0.269  54.392  1.00  0.00     0.048 C 
HETATM   18  C1  UNL     1      29.125  -1.163  53.388  1.00  0.00     0.037 C 
ENDBRANCH  14  17
ENDBRANCH  11  13
ENDBRANCH   6   7
ENDBRANCH   1   6
BRANCH   3  19
HETATM   19  N2  UNL     1      24.329   5.837  51.718  1.00  0.00    -0.342 N 
HETATM   20  H12 UNL     1      24.964   6.056  52.510  1.00  0.00     0.167 HD
BRANCH  19  21
HETATM   21  C13 UNL     1      24.149   6.601  50.531  1.00  0.00     0.042 A 
HETATM   22  C14 UNL     1      23.391   7.765  50.589  1.00  0.00     0.030 A 
HETATM   23  C15 UNL     1      23.150   8.580  49.503  1.00  0.00     0.002 A 
HETATM   24  C16 UNL     1      23.718   8.168  48.314  1.00  0.00     0.001 A 
HETATM   25  C17 UNL     1      24.485   7.026  48.168  1.00  0.00     0.011 A 
HETATM   26  C18 UNL     1      24.687   6.248  49.306  1.00  0.00    -0.008 A 
BRANCH  26  27
HETATM   27  C19 UNL     1      25.501   5.007  49.238  1.00  0.00     0.205 C 
BRANCH  27  28
HETATM   28  O2  UNL     1      26.696   5.257  49.933  1.00  0.00    -0.396 OA
HETATM   29  H19 UNL     1      27.409   5.149  49.230  1.00  0.00     0.209 HD
ENDBRANCH  27  28
ENDBRANCH  26  27
ENDBRANCH  19  21
ENDBRANCH   3  19
TORSDOF 8
ENDMDL
MODEL 8
REMARK VINA RESULT:      -7.7      2.612      8.275
REMARK  8 active torsions:
REMARK  status: ('A' for Active; 'I' for Inactive)
REMARK    1  A    between atoms: C2_2  and  C3_3 
REMARK       I    between atoms: C3_3  and  N1_5 
REMARK    2  A    between atoms: N1_5  and  C4_6 
REMARK    3  A    between atoms: C8_10  and  C9_11 
REMARK    4  A    between atoms: C9_11  and  C10_12 
REMARK    5  A    between atoms: C12_14  and  N2_15 
REMARK    6  A    between atoms: N2_15  and  C13_16 
REMARK    7  A    between atoms: C18_21  and  C19_22 
REMARK    8  A    between atoms: C19_22  and  O2_23 
ROOT
HETATM    1  C10 UNL     1      25.626   4.572  49.587  1.00  0.00     0.114 A 
HETATM    2  C11 UNL     1      24.789   3.339  49.443  1.00  0.00     0.046 A 
HETATM    3  C12 UNL     1      24.575   3.195  50.756  1.00  0.00     0.100 A 
HETATM    4  N3  UNL     1      25.355   4.358  50.993  1.00  0.00    -0.368 N 
HETATM    5  H20 UNL     1      25.603   4.835  51.908  1.00  0.00     0.161 HD
ENDROOT
BRANCH   1   6
HETATM    6  C9  UNL     1      27.013   4.272  49.114  1.00  0.00     0.068 C 
BRANCH   6   7
HETATM    7  C8  UNL     1      27.625   5.475  48.519  1.00  0.00    -0.054 A 
HETATM    8  C7  UNL     1      26.845   6.563  48.211  1.00  0.00     0.007 A 
HETATM    9  C6  UNL     1      27.463   7.659  47.657  1.00  0.00     0.003 A 
HETATM   10  C5  UNL     1      28.812   7.613  47.441  1.00  0.00     0.029 A 
HETATM   11  C4  UNL     1      29.627   6.549  47.733  1.00  0.00     0.035 A 
HETATM   12  C20 UNL     1      28.983   5.470  48.285  1.00  0.00     0.036 A 
BRANCH  11  13
HETATM   13  N1  UNL     1      31.021   6.444  47.528  1.00  0.00    -0.324 N 
HETATM   14  C3  UNL     1      32.067   6.796  48.405  1.00  0.00     0.241 C 
HETATM   15  O1  UNL     1      31.821   7.270  49.537  1.00  0.00    -0.269 OA
HETATM   16  H4  UNL     1      31.406   6.067  46.639  1.00  0.00     0.169 HD
BRANCH  14  17
HETATM   17  C2  UNL     1      33.490   6.664  48.135  1.00  0.00     0.048 C 
HETATM   18  C1  UNL     1      33.871   7.887  48.547  1.00  0.00     0.037 C 
ENDBRANCH  14  17
ENDBRANCH  11  13
ENDBRANCH   6   7
ENDBRANCH   1   6
BRANCH   3  19
HETATM   19  N2  UNL     1      23.830   2.208  51.500  1.00  0.00    -0.342 N 
HETATM   20  H12 UNL     1      22.804   2.363  51.474  1.00  0.00     0.167 HD
BRANCH  19  21
HETATM   21  C13 UNL     1      24.519   1.160  52.171  1.00  0.00     0.042 A 
HETATM   22  C14 UNL     1      25.866   0.955  51.894  1.00  0.00     0.030 A 
HETATM   23  C15 UNL     1      26.631  -0.029  52.484  1.00  0.00     0.002 A 
HETATM   24  C16 UNL     1      25.970  -0.830  53.394  1.00  0.00     0.001 A 
HETATM   25  C17 UNL     1      24.634  -0.695  53.728  1.00  0.00     0.011 A 
HETATM   26  C18 UNL     1      23.921   0.320  53.093  1.00  0.00    -0.008 A 
BRANCH  26  27
HETATM   27  C19 UNL     1      22.482   0.535  53.396  1.00  0.00     0.205 C 
BRANCH  27  28
HETATM   28  O2  UNL     1      21.751   0.063  52.293  1.00  0.00    -0.396 OA
HETATM   29  H19 UNL     1      20.802   0.044  52.625  1.00  0.00     0.209 HD
ENDBRANCH  27  28
ENDBRANCH  26  27
ENDBRANCH  19  21
ENDBRANCH   3  19
TORSDOF 8
ENDMDL
MODEL 9
REMARK VINA RESULT:      -7.7      1.397      7.835
REMARK  8 active torsions:
REMARK  status: ('A' for Active; 'I' for Inactive)
REMARK    1  A    between atoms: C2_2  and  C3_3 
REMARK       I    between atoms: C3_3  and  N1_5 
REMARK    2  A    between atoms: N1_5  and  C4_6 
REMARK    3  A    between atoms: C8_10  and  C9_11 
REMARK    4  A    between atoms: C9_11  and  C10_12 
REMARK    5  A    between atoms: C12_14  and  N2_15 
REMARK    6  A    between atoms: N2_15  and  C13_16 
REMARK    7  A    between atoms: C18_21  and  C19_22 
REMARK    8  A    between atoms: C19_22  and  O2_23 
ROOT
HETATM    1  C10 UNL     1      24.788   3.045  51.844  1.00  0.00     0.114 A 
HETATM    2  C11 UNL     1      24.433   1.772  52.550  1.00  0.00     0.046 A 
HETATM    3  C12 UNL     1      25.586   1.694  53.225  1.00  0.00     0.100 A 
HETATM    4  N3  UNL     1      26.010   2.899  52.605  1.00  0.00    -0.368 N 
HETATM    5  H20 UNL     1      26.919   3.436  52.716  1.00  0.00     0.161 HD
ENDROOT
BRANCH   1   6
HETATM    6  C9  UNL     1      24.871   2.775  50.375  1.00  0.00     0.068 C 
BRANCH   6   7
HETATM    7  C8  UNL     1      24.638   4.015  49.611  1.00  0.00    -0.054 A 
HETATM    8  C7  UNL     1      23.379   4.313  49.151  1.00  0.00     0.007 A 
HETATM    9  C6  UNL     1      23.214   5.481  48.442  1.00  0.00     0.003 A 
HETATM   10  C5  UNL     1      24.303   6.281  48.234  1.00  0.00     0.029 A 
HETATM   11  C4  UNL     1      25.575   6.022  48.676  1.00  0.00     0.035 A 
HETATM   12  C20 UNL     1      25.709   4.851  49.379  1.00  0.00     0.036 A 
BRANCH  11  13
HETATM   13  N1  UNL     1      26.734   6.807  48.487  1.00  0.00    -0.324 N 
HETATM   14  C3  UNL     1      27.200   7.888  49.262  1.00  0.00     0.241 C 
HETATM   15  O1  UNL     1      26.566   8.271  50.271  1.00  0.00    -0.269 OA
HETATM   16  H4  UNL     1      27.382   6.627  47.693  1.00  0.00     0.169 HD
BRANCH  14  17
HETATM   17  C2  UNL     1      28.406   8.662  49.015  1.00  0.00     0.048 C 
HETATM   18  C1  UNL     1      29.077   7.737  48.304  1.00  0.00     0.037 C 
ENDBRANCH  14  17
ENDBRANCH  11  13
ENDBRANCH   6   7
ENDBRANCH   1   6
BRANCH   3  19
HETATM   19  N2  UNL     1      26.072   0.721  54.172  1.00  0.00    -0.342 N 
HETATM   20  H12 UNL     1      25.658   0.825  55.118  1.00  0.00     0.167 HD
BRANCH  19  21
HETATM   21  C13 UNL     1      27.027  -0.252  53.761  1.00  0.00     0.042 A 
HETATM   22  C14 UNL     1      26.598  -1.340  53.009  1.00  0.00     0.030 A 
HETATM   23  C15 UNL     1      27.433  -2.340  52.559  1.00  0.00     0.002 A 
HETATM   24  C16 UNL     1      28.763  -2.203  52.902  1.00  0.00     0.001 A 
HETATM   25  C17 UNL     1      29.274  -1.154  53.646  1.00  0.00     0.011 A 
HETATM   26  C18 UNL     1      28.374  -0.179  54.069  1.00  0.00    -0.008 A 
BRANCH  26  27
HETATM   27  C19 UNL     1      28.840   0.984  54.870  1.00  0.00     0.205 C 
BRANCH  27  28
HETATM   28  O2  UNL     1      28.725   2.121  54.053  1.00  0.00    -0.396 OA
HETATM   29  H19 UNL     1      27.732   2.251  53.961  1.00  0.00     0.209 HD
ENDBRANCH  27  28
ENDBRANCH  26  27
ENDBRANCH  19  21
ENDBRANCH   3  19
TORSDOF 8
ENDMDL
