MODEL 1
REMARK VINA RESULT:      -7.4      0.000      0.000
REMARK  4 active torsions:
REMARK  status: ('A' for Active; 'I' for Inactive)
REMARK    1  A    between atoms: C2_2  and  C3_3 
REMARK    2  A    between atoms: N2_9  and  C8_10 
REMARK    3  A    between atoms: N3_16  and  N4_17 
REMARK    4  A    between atoms: C14_18  and  N5_19 
ROOT
HETATM    1  C3  UNL     1      25.201   4.235  50.567  1.00  0.00     0.253 C 
HETATM    2  N1  UNL     1      24.099   5.077  50.129  1.00  0.00     0.097 N 
HETATM    3  C4  UNL     1      23.142   4.054  49.754  1.00  0.00     0.327 C 
HETATM    4  C5  UNL     1      23.266   3.074  50.872  1.00  0.00     0.043 C 
HETATM    5  C6  UNL     1      24.508   3.170  51.379  1.00  0.00    -0.003 C 
HETATM    6  C7  UNL     1      25.270   2.547  52.451  1.00  0.00     0.190 C 
HETATM    7  N2  UNL     1      25.031   1.218  52.834  1.00  0.00    -0.266 N 
HETATM    8  N3  UNL     1      23.927   0.366  53.038  1.00  0.00    -0.180 N 
HETATM    9  C15 UNL     1      22.655   0.224  52.420  1.00  0.00     0.156 C 
HETATM   10  C16 UNL     1      21.930   0.993  51.659  1.00  0.00     0.109 C 
HETATM   11  N6  UNL     1      22.102   2.312  51.117  1.00  0.00    -0.366 N 
HETATM   12  H7  UNL     1      23.740   5.614  50.941  1.00  0.00     0.317 HD
HETATM   13  H22 UNL     1      21.195   2.763  50.869  1.00  0.00     0.165 HD
ENDROOT
BRANCH   7  14
HETATM   14  C8  UNL     1      26.245   0.480  53.136  1.00  0.00     0.053 A 
HETATM   15  C9  UNL     1      27.048   1.004  54.157  1.00  0.00     0.031 A 
HETATM   16  C10 UNL     1      28.233   0.426  54.541  1.00  0.00     0.002 A 
HETATM   17  C11 UNL     1      28.670  -0.720  53.907  1.00  0.00     0.000 A 
HETATM   18  C12 UNL     1      27.899  -1.251  52.903  1.00  0.00     0.002 A 
HETATM   19  C13 UNL     1      26.722  -0.661  52.535  1.00  0.00     0.031 A 
ENDBRANCH   7  14
BRANCH   8  20
HETATM   20  N4  UNL     1      24.120  -0.550  54.104  1.00  0.00    -0.148 NA
HETATM   21  C14 UNL     1      23.073  -0.920  54.743  1.00  0.00     0.224 C 
BRANCH  21  22
HETATM   22  N5  UNL     1      23.327  -1.833  55.794  1.00  0.00    -0.392 N 
HETATM   23  H18 UNL     1      23.379  -2.690  56.374  1.00  0.00     0.157 HD
HETATM   24  H19 UNL     1      23.793  -1.690  56.737  1.00  0.00     0.157 HD
ENDBRANCH  21  22
ENDBRANCH   8  20
BRANCH   1  25
HETATM   25  C2  UNL     1      25.898   3.713  49.363  1.00  0.00     0.036 C 
HETATM   26  C1  UNL     1      27.152   4.407  48.963  1.00  0.00     0.007 C 
ENDBRANCH   1  25
TORSDOF 4
ENDMDL
MODEL 2
REMARK VINA RESULT:      -7.4      1.764      5.270
REMARK  4 active torsions:
REMARK  status: ('A' for Active; 'I' for Inactive)
REMARK    1  A    between atoms: C2_2  and  C3_3 
REMARK    2  A    between atoms: N2_9  and  C8_10 
REMARK    3  A    between atoms: N3_16  and  N4_17 
REMARK    4  A    between atoms: C14_18  and  N5_19 
ROOT
HETATM    1  C3  UNL     1      21.261   0.831  52.523  1.00  0.00     0.253 C 
HETATM    2  N1  UNL     1      20.609  -0.008  53.516  1.00  0.00     0.097 N 
HETATM    3  C4  UNL     1      21.628  -1.027  53.683  1.00  0.00     0.327 C 
HETATM    4  C5  UNL     1      22.882  -0.221  53.724  1.00  0.00     0.043 C 
HETATM    5  C6  UNL     1      22.679   0.910  53.028  1.00  0.00    -0.003 C 
HETATM    6  C7  UNL     1      23.442   2.103  52.689  1.00  0.00     0.190 C 
HETATM    7  N2  UNL     1      24.836   2.052  52.528  1.00  0.00    -0.266 N 
HETATM    8  N3  UNL     1      25.942   1.443  53.154  1.00  0.00    -0.180 N 
HETATM    9  C15 UNL     1      26.155   0.197  53.803  1.00  0.00     0.156 C 
HETATM   10  C16 UNL     1      25.363  -0.700  54.318  1.00  0.00     0.109 C 
HETATM   11  N6  UNL     1      23.938  -0.816  54.452  1.00  0.00    -0.366 N 
HETATM   12  H7  UNL     1      20.503   0.531  54.397  1.00  0.00     0.317 HD
HETATM   13  H22 UNL     1      23.661  -1.457  55.226  1.00  0.00     0.165 HD
ENDROOT
BRANCH   7  14
HETATM   14  C8  UNL     1      25.317   2.862  51.425  1.00  0.00     0.053 A 
HETATM   15  C9  UNL     1      24.672   4.092  51.235  1.00  0.00     0.031 A 
HETATM   16  C10 UNL     1      25.006   4.957  50.222  1.00  0.00     0.002 A 
HETATM   17  C11 UNL     1      26.015   4.621  49.342  1.00  0.00     0.000 A 
HETATM   18  C12 UNL     1      26.660   3.420  49.509  1.00  0.00     0.002 A 
HETATM   19  C13 UNL     1      26.314   2.572  50.524  1.00  0.00     0.031 A 
ENDBRANCH   7  14
BRANCH   8  20
HETATM   20  N4  UNL     1      27.105   2.257  53.142  1.00  0.00    -0.148 NA
HETATM   21  C14 UNL     1      28.156   1.768  53.689  1.00  0.00     0.224 C 
BRANCH  21  22
HETATM   22  N5  UNL     1      29.282   2.624  53.647  1.00  0.00    -0.392 N 
HETATM   23  H18 UNL     1      30.251   2.992  53.663  1.00  0.00     0.157 HD
HETATM   24  H19 UNL     1      29.348   3.674  53.505  1.00  0.00     0.157 HD
ENDBRANCH  21  22
ENDBRANCH   8  20
BRANCH   1  25
HETATM   25  C2  UNL     1      21.131   0.172  51.197  1.00  0.00     0.036 C 
HETATM   26  C1  UNL     1      21.210   1.054  50.001  1.00  0.00     0.007 C 
ENDBRANCH   1  25
TORSDOF 4
ENDMDL
MODEL 3
REMARK VINA RESULT:      -6.8      1.899      2.414
REMARK  4 active torsions:
REMARK  status: ('A' for Active; 'I' for Inactive)
REMARK    1  A    between atoms: C2_2  and  C3_3 
REMARK    2  A    between atoms: N2_9  and  C8_10 
REMARK    3  A    between atoms: N3_16  and  N4_17 
REMARK    4  A    between atoms: C14_18  and  N5_19 
ROOT
HETATM    1  C3  UNL     1      23.717   6.216  51.483  1.00  0.00     0.253 C 
HETATM    2  N1  UNL     1      22.564   7.083  51.294  1.00  0.00     0.097 N 
HETATM    3  C4  UNL     1      21.655   6.148  50.659  1.00  0.00     0.327 C 
HETATM    4  C5  UNL     1      21.852   4.911  51.468  1.00  0.00     0.043 C 
HETATM    5  C6  UNL     1      23.096   4.934  51.978  1.00  0.00    -0.003 C 
HETATM    6  C7  UNL     1      23.910   4.088  52.838  1.00  0.00     0.190 C 
HETATM    7  N2  UNL     1      23.749   2.693  52.846  1.00  0.00    -0.266 N 
HETATM    8  N3  UNL     1      22.694   1.758  52.815  1.00  0.00    -0.180 N 
HETATM    9  C15 UNL     1      21.421   1.718  52.187  1.00  0.00     0.156 C 
HETATM   10  C16 UNL     1      20.642   2.623  51.665  1.00  0.00     0.109 C 
HETATM   11  N6  UNL     1      20.734   4.047  51.501  1.00  0.00    -0.366 N 
HETATM   12  H7  UNL     1      22.193   7.359  52.223  1.00  0.00     0.317 HD
HETATM   13  H22 UNL     1      19.800   4.496  51.389  1.00  0.00     0.165 HD
ENDROOT
BRANCH   7  14
HETATM   14  C8  UNL     1      25.005   1.971  52.931  1.00  0.00     0.053 A 
HETATM   15  C9  UNL     1      25.322   1.154  51.838  1.00  0.00     0.031 A 
HETATM   16  C10 UNL     1      26.466   0.397  51.783  1.00  0.00     0.002 A 
HETATM   17  C11 UNL     1      27.356   0.427  52.839  1.00  0.00     0.000 A 
HETATM   18  C12 UNL     1      27.065   1.221  53.921  1.00  0.00     0.002 A 
HETATM   19  C13 UNL     1      25.920   1.968  53.957  1.00  0.00     0.031 A 
ENDBRANCH   7  14
BRANCH   8  20
HETATM   20  N4  UNL     1      22.956   0.600  53.591  1.00  0.00    -0.148 NA
HETATM   21  C14 UNL     1      21.940   0.004  54.098  1.00  0.00     0.224 C 
BRANCH  21  22
HETATM   22  N5  UNL     1      22.262  -1.144  54.861  1.00  0.00    -0.392 N 
HETATM   23  H18 UNL     1      22.487  -2.113  55.150  1.00  0.00     0.157 HD
HETATM   24  H19 UNL     1      22.417  -1.259  55.904  1.00  0.00     0.157 HD
ENDBRANCH  21  22
ENDBRANCH   8  20
BRANCH   1  25
HETATM   25  C2  UNL     1      24.417   6.080  50.179  1.00  0.00     0.036 C 
HETATM   26  C1  UNL     1      25.698   6.823  50.028  1.00  0.00     0.007 C 
ENDBRANCH   1  25
TORSDOF 4
ENDMDL
MODEL 4
REMARK VINA RESULT:      -6.8      2.248      6.237
REMARK  4 active torsions:
REMARK  status: ('A' for Active; 'I' for Inactive)
REMARK    1  A    between atoms: C2_2  and  C3_3 
REMARK    2  A    between atoms: N2_9  and  C8_10 
REMARK    3  A    between atoms: N3_16  and  N4_17 
REMARK    4  A    between atoms: C14_18  and  N5_19 
ROOT
HETATM    1  C3  UNL     1      26.088   1.436  54.142  1.00  0.00     0.253 C 
HETATM    2  N1  UNL     1      27.478   1.850  54.258  1.00  0.00     0.097 N 
HETATM    3  C4  UNL     1      27.848   1.863  52.855  1.00  0.00     0.327 C 
HETATM    4  C5  UNL     1      26.663   2.507  52.217  1.00  0.00     0.043 C 
HETATM    5  C6  UNL     1      25.587   2.262  52.984  1.00  0.00    -0.003 C 
HETATM    6  C7  UNL     1      24.170   2.593  52.965  1.00  0.00     0.190 C 
HETATM    7  N2  UNL     1      23.480   2.767  51.755  1.00  0.00    -0.266 N 
HETATM    8  N3  UNL     1      23.703   3.365  50.498  1.00  0.00    -0.180 N 
HETATM    9  C15 UNL     1      24.840   3.528  49.663  1.00  0.00     0.156 C 
HETATM   10  C16 UNL     1      26.125   3.459  49.863  1.00  0.00     0.109 C 
HETATM   11  N6  UNL     1      26.945   3.189  51.012  1.00  0.00    -0.366 N 
HETATM   12  H7  UNL     1      27.513   2.815  54.639  1.00  0.00     0.317 HD
HETATM   13  H22 UNL     1      27.909   3.573  50.913  1.00  0.00     0.165 HD
ENDROOT
BRANCH   7  14
HETATM   14  C8  UNL     1      22.144   2.202  51.768  1.00  0.00     0.053 A 
HETATM   15  C9  UNL     1      21.988   0.972  51.116  1.00  0.00     0.031 A 
HETATM   16  C10 UNL     1      20.780   0.324  51.030  1.00  0.00     0.002 A 
HETATM   17  C11 UNL     1      19.659   0.892  51.604  1.00  0.00     0.000 A 
HETATM   18  C12 UNL     1      19.789   2.097  52.249  1.00  0.00     0.002 A 
HETATM   19  C13 UNL     1      21.000   2.727  52.323  1.00  0.00     0.031 A 
ENDBRANCH   7  14
BRANCH   8  20
HETATM   20  N4  UNL     1      22.531   3.942  49.943  1.00  0.00    -0.148 NA
HETATM   21  C14 UNL     1      22.640   5.132  49.477  1.00  0.00     0.224 C 
BRANCH  21  22
HETATM   22  N5  UNL     1      21.442   5.655  48.937  1.00  0.00    -0.392 N 
HETATM   23  H18 UNL     1      20.614   5.825  48.337  1.00  0.00     0.157 HD
HETATM   24  H19 UNL     1      20.821   6.448  49.270  1.00  0.00     0.157 HD
ENDBRANCH  21  22
ENDBRANCH   8  20
BRANCH   1  25
HETATM   25  C2  UNL     1      26.057  -0.028  53.894  1.00  0.00     0.036 C 
HETATM   26  C1  UNL     1      24.925  -0.785  54.496  1.00  0.00     0.007 C 
ENDBRANCH   1  25
TORSDOF 4
ENDMDL
MODEL 5
REMARK VINA RESULT:      -6.8      2.135      6.703
REMARK  4 active torsions:
REMARK  status: ('A' for Active; 'I' for Inactive)
REMARK    1  A    between atoms: C2_2  and  C3_3 
REMARK    2  A    between atoms: N2_9  and  C8_10 
REMARK    3  A    between atoms: N3_16  and  N4_17 
REMARK    4  A    between atoms: C14_18  and  N5_19 
ROOT
HETATM    1  C3  UNL     1      20.437   0.558  53.554  1.00  0.00     0.253 C 
HETATM    2  N1  UNL     1      20.652  -0.093  54.837  1.00  0.00     0.097 N 
HETATM    3  C4  UNL     1      21.834  -0.872  54.522  1.00  0.00     0.327 C 
HETATM    4  C5  UNL     1      22.658   0.096  53.742  1.00  0.00     0.043 C 
HETATM    5  C6  UNL     1      21.830   0.973  53.149  1.00  0.00    -0.003 C 
HETATM    6  C7  UNL     1      21.954   2.142  52.292  1.00  0.00     0.190 C 
HETATM    7  N2  UNL     1      23.011   2.262  51.376  1.00  0.00    -0.266 N 
HETATM    8  N3  UNL     1      24.396   2.003  51.332  1.00  0.00    -0.180 N 
HETATM    9  C15 UNL     1      25.238   1.007  51.895  1.00  0.00     0.156 C 
HETATM   10  C16 UNL     1      25.104   0.160  52.876  1.00  0.00     0.109 C 
HETATM   11  N6  UNL     1      24.051  -0.132  53.808  1.00  0.00    -0.366 N 
HETATM   12  H7  UNL     1      20.886   0.628  55.547  1.00  0.00     0.317 HD
HETATM   13  H22 UNL     1      24.403  -0.591  54.676  1.00  0.00     0.165 HD
ENDROOT
BRANCH   7  14
HETATM   14  C8  UNL     1      22.607   2.832  50.103  1.00  0.00     0.053 A 
HETATM   15  C9  UNL     1      22.500   1.935  49.032  1.00  0.00     0.031 A 
HETATM   16  C10 UNL     1      22.146   2.329  47.766  1.00  0.00     0.002 A 
HETATM   17  C11 UNL     1      21.879   3.661  47.515  1.00  0.00     0.000 A 
HETATM   18  C12 UNL     1      21.978   4.557  48.550  1.00  0.00     0.002 A 
HETATM   19  C13 UNL     1      22.332   4.145  49.805  1.00  0.00     0.031 A 
ENDBRANCH   7  14
BRANCH   8  20
HETATM   20  N4  UNL     1      25.115   2.952  50.561  1.00  0.00    -0.148 NA
HETATM   21  C14 UNL     1      26.368   3.064  50.807  1.00  0.00     0.224 C 
BRANCH  21  22
HETATM   22  N5  UNL     1      27.032   4.024  50.007  1.00  0.00    -0.392 N 
HETATM   23  H18 UNL     1      27.290   4.898  49.513  1.00  0.00     0.157 HD
HETATM   24  H19 UNL     1      27.920   3.949  49.431  1.00  0.00     0.157 HD
ENDBRANCH  21  22
ENDBRANCH   8  20
BRANCH   1  25
HETATM   25  C2  UNL     1      19.811  -0.424  52.631  1.00  0.00     0.036 C 
HETATM   26  C1  UNL     1      18.417  -0.840  52.943  1.00  0.00     0.007 C 
ENDBRANCH   1  25
TORSDOF 4
ENDMDL
MODEL 6
REMARK VINA RESULT:      -6.5      1.490      2.201
REMARK  4 active torsions:
REMARK  status: ('A' for Active; 'I' for Inactive)
REMARK    1  A    between atoms: C2_2  and  C3_3 
REMARK    2  A    between atoms: N2_9  and  C8_10 
REMARK    3  A    between atoms: N3_16  and  N4_17 
REMARK    4  A    between atoms: C14_18  and  N5_19 
ROOT
HETATM    1  C3  UNL     1      24.992   5.623  49.844  1.00  0.00     0.253 C 
HETATM    2  N1  UNL     1      24.079   6.434  49.053  1.00  0.00     0.097 N 
HETATM    3  C4  UNL     1      23.423   5.391  48.289  1.00  0.00     0.327 C 
HETATM    4  C5  UNL     1      23.187   4.338  49.319  1.00  0.00     0.043 C 
HETATM    5  C6  UNL     1      24.127   4.464  50.272  1.00  0.00    -0.003 C 
HETATM    6  C7  UNL     1      24.466   3.805  51.525  1.00  0.00     0.190 C 
HETATM    7  N2  UNL     1      24.206   2.440  51.722  1.00  0.00    -0.266 N 
HETATM    8  N3  UNL     1      23.179   1.517  51.440  1.00  0.00    -0.180 N 
HETATM    9  C15 UNL     1      22.257   1.351  50.372  1.00  0.00     0.156 C 
HETATM   10  C16 UNL     1      21.821   2.134  49.426  1.00  0.00     0.109 C 
HETATM   11  N6  UNL     1      22.082   3.497  49.056  1.00  0.00    -0.366 N 
HETATM   12  H7  UNL     1      23.394   6.888  49.688  1.00  0.00     0.317 HD
HETATM   13  H22 UNL     1      21.307   3.915  48.499  1.00  0.00     0.165 HD
ENDROOT
BRANCH   7  14
HETATM   14  C8  UNL     1      25.265   1.750  52.434  1.00  0.00     0.053 A 
HETATM   15  C9  UNL     1      26.041   0.862  51.677  1.00  0.00     0.031 A 
HETATM   16  C10 UNL     1      27.066   0.125  52.218  1.00  0.00     0.002 A 
HETATM   17  C11 UNL     1      27.362   0.249  53.561  1.00  0.00     0.000 A 
HETATM   18  C12 UNL     1      26.614   1.114  54.321  1.00  0.00     0.002 A 
HETATM   19  C13 UNL     1      25.597   1.839  53.766  1.00  0.00     0.031 A 
ENDBRANCH   7  14
BRANCH   8  20
HETATM   20  N4  UNL     1      23.021   0.535  52.452  1.00  0.00    -0.148 NA
HETATM   21  C14 UNL     1      21.882  -0.049  52.516  1.00  0.00     0.224 C 
BRANCH  21  22
HETATM   22  N5  UNL     1      21.783  -1.017  53.544  1.00  0.00    -0.392 N 
HETATM   23  H18 UNL     1      21.739  -1.912  54.064  1.00  0.00     0.157 HD
HETATM   24  H19 UNL     1      21.665  -0.903  54.592  1.00  0.00     0.157 HD
ENDBRANCH  21  22
ENDBRANCH   8  20
BRANCH   1  25
HETATM   25  C2  UNL     1      26.136   5.232  48.981  1.00  0.00     0.036 C 
HETATM   26  C1  UNL     1      26.850   3.977  49.344  1.00  0.00     0.007 C 
ENDBRANCH   1  25
TORSDOF 4
ENDMDL
MODEL 7
REMARK VINA RESULT:      -6.3      7.528     10.234
REMARK  4 active torsions:
REMARK  status: ('A' for Active; 'I' for Inactive)
REMARK    1  A    between atoms: C2_2  and  C3_3 
REMARK    2  A    between atoms: N2_9  and  C8_10 
REMARK    3  A    between atoms: N3_16  and  N4_17 
REMARK    4  A    between atoms: C14_18  and  N5_19 
ROOT
HETATM    1  C3  UNL     1      27.402   7.390  47.679  1.00  0.00     0.253 C 
HETATM    2  N1  UNL     1      26.620   8.501  48.199  1.00  0.00     0.097 N 
HETATM    3  C4  UNL     1      27.361   8.775  49.415  1.00  0.00     0.327 C 
HETATM    4  C5  UNL     1      28.778   8.678  48.957  1.00  0.00     0.043 C 
HETATM    5  C6  UNL     1      28.823   7.844  47.904  1.00  0.00    -0.003 C 
HETATM    6  C7  UNL     1      29.838   7.331  46.995  1.00  0.00     0.190 C 
HETATM    7  N2  UNL     1      31.163   7.143  47.418  1.00  0.00    -0.266 N 
HETATM    8  N3  UNL     1      32.117   7.814  48.209  1.00  0.00    -0.180 N 
HETATM    9  C15 UNL     1      32.050   8.617  49.379  1.00  0.00     0.156 C 
HETATM   10  C16 UNL     1      31.091   9.265  49.976  1.00  0.00     0.109 C 
HETATM   11  N6  UNL     1      29.692   9.450  49.709  1.00  0.00    -0.366 N 
HETATM   12  H7  UNL     1      26.703   9.306  47.548  1.00  0.00     0.317 HD
HETATM   13  H22 UNL     1      29.310  10.308  50.159  1.00  0.00     0.165 HD
ENDROOT
BRANCH   7  14
HETATM   14  C8  UNL     1      31.766   5.930  46.897  1.00  0.00     0.053 A 
HETATM   15  C9  UNL     1      31.730   4.811  47.740  1.00  0.00     0.031 A 
HETATM   16  C10 UNL     1      32.275   3.600  47.391  1.00  0.00     0.002 A 
HETATM   17  C11 UNL     1      32.889   3.457  46.162  1.00  0.00     0.000 A 
HETATM   18  C12 UNL     1      32.935   4.540  45.320  1.00  0.00     0.002 A 
HETATM   19  C13 UNL     1      32.387   5.738  45.685  1.00  0.00     0.031 A 
ENDBRANCH   7  14
BRANCH   8  20
HETATM   20  N4  UNL     1      33.443   7.665  47.725  1.00  0.00    -0.148 NA
HETATM   21  C14 UNL     1      34.387   8.041  48.507  1.00  0.00     0.224 C 
BRANCH  21  22
HETATM   22  N5  UNL     1      35.686   7.869  47.972  1.00  0.00    -0.392 N 
HETATM   23  H18 UNL     1      36.714   7.849  47.849  1.00  0.00     0.157 HD
HETATM   24  H19 UNL     1      36.001   7.512  47.023  1.00  0.00     0.157 HD
ENDBRANCH  21  22
ENDBRANCH   8  20
BRANCH   1  25
HETATM   25  C2  UNL     1      27.035   6.166  48.439  1.00  0.00     0.036 C 
HETATM   26  C1  UNL     1      28.039   5.068  48.462  1.00  0.00     0.007 C 
ENDBRANCH   1  25
TORSDOF 4
ENDMDL
MODEL 8
REMARK VINA RESULT:      -6.2      7.889     10.940
REMARK  4 active torsions:
REMARK  status: ('A' for Active; 'I' for Inactive)
REMARK    1  A    between atoms: C2_2  and  C3_3 
REMARK    2  A    between atoms: N2_9  and  C8_10 
REMARK    3  A    between atoms: N3_16  and  N4_17 
REMARK    4  A    between atoms: C14_18  and  N5_19 
ROOT
HETATM    1  C3  UNL     1      32.935   3.407  47.882  1.00  0.00     0.253 C 
HETATM    2  N1  UNL     1      34.378   3.220  47.869  1.00  0.00     0.097 N 
HETATM    3  C4  UNL     1      34.750   4.250  46.917  1.00  0.00     0.327 C 
HETATM    4  C5  UNL     1      33.895   5.398  47.336  1.00  0.00     0.043 C 
HETATM    5  C6  UNL     1      32.791   4.908  47.925  1.00  0.00    -0.003 C 
HETATM    6  C7  UNL     1      31.594   5.444  48.556  1.00  0.00     0.190 C 
HETATM    7  N2  UNL     1      31.037   6.663  48.139  1.00  0.00    -0.266 N 
HETATM    8  N3  UNL     1      31.484   7.942  47.750  1.00  0.00    -0.180 N 
HETATM    9  C15 UNL     1      32.616   8.426  47.042  1.00  0.00     0.156 C 
HETATM   10  C16 UNL     1      33.783   7.925  46.752  1.00  0.00     0.109 C 
HETATM   11  N6  UNL     1      34.427   6.670  47.025  1.00  0.00    -0.366 N 
HETATM   12  H7  UNL     1      34.758   3.455  48.806  1.00  0.00     0.317 HD
HETATM   13  H22 UNL     1      35.466   6.737  46.978  1.00  0.00     0.165 HD
ENDROOT
BRANCH   7  14
HETATM   14  C8  UNL     1      29.586   6.650  48.104  1.00  0.00     0.053 A 
HETATM   15  C9  UNL     1      28.969   5.472  48.546  1.00  0.00     0.031 A 
HETATM   16  C10 UNL     1      27.606   5.306  48.553  1.00  0.00     0.002 A 
HETATM   17  C11 UNL     1      26.791   6.329  48.111  1.00  0.00     0.000 A 
HETATM   18  C12 UNL     1      27.375   7.493  47.674  1.00  0.00     0.002 A 
HETATM   19  C13 UNL     1      28.734   7.639  47.673  1.00  0.00     0.031 A 
ENDBRANCH   7  14
BRANCH   8  20
HETATM   20  N4  UNL     1      30.616   8.984  48.167  1.00  0.00    -0.148 NA
HETATM   21  C14 UNL     1      31.125   9.897  48.909  1.00  0.00     0.224 C 
BRANCH  21  22
HETATM   22  N5  UNL     1      30.212  10.908  49.293  1.00  0.00    -0.392 N 
HETATM   23  H18 UNL     1      29.695  11.628  49.831  1.00  0.00     0.157 HD
HETATM   24  H19 UNL     1      29.429  11.374  48.750  1.00  0.00     0.157 HD
ENDBRANCH  21  22
ENDBRANCH   8  20
BRANCH   1  25
HETATM   25  C2  UNL     1      32.374   2.785  46.655  1.00  0.00     0.036 C 
HETATM   26  C1  UNL     1      32.229   1.303  46.663  1.00  0.00     0.007 C 
ENDBRANCH   1  25
TORSDOF 4
ENDMDL
MODEL 9
REMARK VINA RESULT:      -6.1      2.639      5.378
REMARK  4 active torsions:
REMARK  status: ('A' for Active; 'I' for Inactive)
REMARK    1  A    between atoms: C2_2  and  C3_3 
REMARK    2  A    between atoms: N2_9  and  C8_10 
REMARK    3  A    between atoms: N3_16  and  N4_17 
REMARK    4  A    between atoms: C14_18  and  N5_19 
ROOT
HETATM    1  C3  UNL     1      19.221   4.182  50.844  1.00  0.00     0.253 C 
HETATM    2  N1  UNL     1      18.072   3.561  51.484  1.00  0.00     0.097 N 
HETATM    3  C4  UNL     1      18.581   2.212  51.647  1.00  0.00     0.327 C 
HETATM    4  C5  UNL     1      19.977   2.452  52.116  1.00  0.00     0.043 C 
HETATM    5  C6  UNL     1      20.383   3.642  51.640  1.00  0.00    -0.003 C 
HETATM    6  C7  UNL     1      21.577   4.469  51.722  1.00  0.00     0.190 C 
HETATM    7  N2  UNL     1      22.851   3.895  51.850  1.00  0.00    -0.266 N 
HETATM    8  N3  UNL     1      23.459   2.835  52.554  1.00  0.00    -0.180 N 
HETATM    9  C15 UNL     1      23.035   1.542  52.963  1.00  0.00     0.156 C 
HETATM   10  C16 UNL     1      21.870   0.976  53.104  1.00  0.00     0.109 C 
HETATM   11  N6  UNL     1      20.516   1.414  52.909  1.00  0.00    -0.366 N 
HETATM   12  H7  UNL     1      17.927   3.997  52.415  1.00  0.00     0.317 HD
HETATM   13  H22 UNL     1      19.832   0.852  53.460  1.00  0.00     0.165 HD
ENDROOT
BRANCH   7  14
HETATM   14  C8  UNL     1      23.867   4.569  51.062  1.00  0.00     0.053 A 
HETATM   15  C9  UNL     1      24.029   5.939  51.306  1.00  0.00     0.031 A 
HETATM   16  C10 UNL     1      24.937   6.712  50.626  1.00  0.00     0.002 A 
HETATM   17  C11 UNL     1      25.735   6.136  49.658  1.00  0.00     0.000 A 
HETATM   18  C12 UNL     1      25.594   4.794  49.403  1.00  0.00     0.002 A 
HETATM   19  C13 UNL     1      24.684   4.040  50.090  1.00  0.00     0.031 A 
ENDBRANCH   7  14
BRANCH   8  20
HETATM   20  N4  UNL     1      24.789   3.124  52.953  1.00  0.00    -0.148 NA
HETATM   21  C14 UNL     1      25.446   2.171  53.503  1.00  0.00     0.224 C 
BRANCH  21  22
HETATM   22  N5  UNL     1      26.765   2.517  53.879  1.00  0.00    -0.392 N 
HETATM   23  H18 UNL     1      27.585   2.980  54.312  1.00  0.00     0.157 HD
HETATM   24  H19 UNL     1      27.697   2.090  53.605  1.00  0.00     0.157 HD
ENDBRANCH  21  22
ENDBRANCH   8  20
BRANCH   1  25
HETATM   25  C2  UNL     1      19.234   3.778  49.414  1.00  0.00     0.036 C 
HETATM   26  C1  UNL     1      20.155   4.526  48.515  1.00  0.00     0.007 C 
ENDBRANCH   1  25
TORSDOF 4
ENDMDL
