MODEL 1
REMARK VINA RESULT:      -8.5      0.000      0.000
REMARK  8 active torsions:
REMARK  status: ('A' for Active; 'I' for Inactive)
REMARK    1  A    between atoms: C4_4  and  N1_5 
REMARK    2  A    between atoms: C6_7  and  C7_8 
REMARK    3  A    between atoms: C7_8  and  C17_23 
REMARK    4  A    between atoms: C8_9  and  C9_10 
REMARK    5  A    between atoms: C12_15  and  N4_16 
REMARK    6  A    between atoms: N4_16  and  C13_17 
REMARK    7  A    between atoms: C14_18  and  C15_19 
REMARK    8  A    between atoms: C17_23  and  N5_24 
ROOT
HETATM    1  C7  UNL     1      25.403  -0.215  53.990  1.00  0.00    -0.022 C 
HETATM    2  C8  UNL     1      24.689   0.428  53.081  1.00  0.00     0.026 C 
ENDROOT
BRANCH   1   3
HETATM    3  C6  UNL     1      26.836  -0.097  53.823  1.00  0.00    -0.026 A 
HETATM    4  C5  UNL     1      27.568   1.047  54.423  1.00  0.00     0.097 A 
HETATM    5  C4  UNL     1      29.010   0.987  54.172  1.00  0.00     0.004 A 
HETATM    6  C3  UNL     1      29.723   0.099  53.507  1.00  0.00     0.008 A 
HETATM    7  C2  UNL     1      29.001  -1.033  52.896  1.00  0.00     0.051 A 
HETATM    8  C1  UNL     1      29.502  -2.290  53.614  1.00  0.00     0.020 C 
HETATM    9  C18 UNL     1      27.551  -0.965  53.168  1.00  0.00     0.026 A 
HETATM   10 CL2  UNL     1      26.865  -2.361  52.384  1.00  0.00    -0.088 Cl
BRANCH   5  11
HETATM   11  N1  UNL     1      29.693   2.083  54.764  1.00  0.00    -0.402 N 
HETATM   12  H6  UNL     1      30.534   2.659  54.548  1.00  0.00     0.156 HD
HETATM   13  H7  UNL     1      29.406   2.561  55.659  1.00  0.00     0.156 HD
ENDBRANCH   5  11
ENDBRANCH   1   3
BRANCH   1  14
HETATM   14  C17 UNL     1      24.596  -0.958  54.968  1.00  0.00     0.305 C 
BRANCH  14  15
HETATM   15  N5  UNL     1      25.266  -1.308  56.184  1.00  0.00     0.082 N 
HETATM   16  H19 UNL     1      24.616  -1.426  56.994  1.00  0.00     0.313 HD
HETATM   17  H20 UNL     1      25.747  -2.234  56.092  1.00  0.00     0.313 HD
ENDBRANCH  14  15
ENDBRANCH   1  14
BRANCH   2  18
HETATM   18  C9  UNL     1      23.265   0.574  52.881  1.00  0.00     0.028 A 
HETATM   19  C10 UNL     1      22.362  -0.493  52.920  1.00  0.00     0.133 A 
HETATM   20  N2  UNL     1      21.045  -0.310  52.701  1.00  0.00    -0.253 NA
HETATM   21  C11 UNL     1      20.534   0.903  52.435  1.00  0.00     0.234 A 
HETATM   22  N3  UNL     1      21.351   1.995  52.380  1.00  0.00    -0.224 NA
HETATM   23  C12 UNL     1      22.657   1.804  52.598  1.00  0.00     0.140 A 
BRANCH  23  24
HETATM   24  N4  UNL     1      23.544   2.910  52.555  1.00  0.00    -0.350 N 
HETATM   25  H13 UNL     1      23.804   3.532  53.348  1.00  0.00     0.166 HD
BRANCH  24  26
HETATM   26  C13 UNL     1      24.262   3.405  51.439  1.00  0.00     0.091 C 
HETATM   27  C14 UNL     1      25.127   3.088  50.500  1.00  0.00     0.043 C 
BRANCH  27  28
HETATM   28  C15 UNL     1      25.538   4.097  49.539  1.00  0.00     0.061 C 
HETATM   29 CL1  UNL     1      24.396   5.206  48.867  1.00  0.00    -0.082 Cl
HETATM   30  C16 UNL     1      26.833   4.010  49.303  1.00  0.00     0.424 C 
HETATM   31  F1  UNL     1      27.452   4.841  48.445  1.00  0.00    -0.429 F 
ENDBRANCH  27  28
ENDBRANCH  24  26
ENDBRANCH  23  24
ENDBRANCH   2  18
TORSDOF 8
ENDMDL
MODEL 2
REMARK VINA RESULT:      -8.4      2.256      6.040
REMARK  8 active torsions:
REMARK  status: ('A' for Active; 'I' for Inactive)
REMARK    1  A    between atoms: C4_4  and  N1_5 
REMARK    2  A    between atoms: C6_7  and  C7_8 
REMARK    3  A    between atoms: C7_8  and  C17_23 
REMARK    4  A    between atoms: C8_9  and  C9_10 
REMARK    5  A    between atoms: C12_15  and  N4_16 
REMARK    6  A    between atoms: N4_16  and  C13_17 
REMARK    7  A    between atoms: C14_18  and  C15_19 
REMARK    8  A    between atoms: C17_23  and  N5_24 
ROOT
HETATM    1  C7  UNL     1      23.822   1.748  53.003  1.00  0.00    -0.022 C 
HETATM    2  C8  UNL     1      24.819   0.880  53.020  1.00  0.00     0.026 C 
ENDROOT
BRANCH   1   3
HETATM    3  C6  UNL     1      22.554   1.199  52.572  1.00  0.00    -0.026 A 
HETATM    4  C5  UNL     1      21.653   0.538  53.551  1.00  0.00     0.097 A 
HETATM    5  C4  UNL     1      20.407   0.066  52.941  1.00  0.00     0.004 A 
HETATM    6  C3  UNL     1      19.991   0.134  51.691  1.00  0.00     0.008 A 
HETATM    7  C2  UNL     1      20.887   0.777  50.710  1.00  0.00     0.051 A 
HETATM    8  C1  UNL     1      20.152   2.031  50.226  1.00  0.00     0.020 C 
HETATM    9  C18 UNL     1      22.132   1.257  51.342  1.00  0.00     0.026 A 
HETATM   10 CL2  UNL     1      23.057   1.979  50.055  1.00  0.00    -0.088 Cl
BRANCH   5  11
HETATM   11  N1  UNL     1      19.555  -0.551  53.895  1.00  0.00    -0.402 N 
HETATM   12  H6  UNL     1      19.613  -1.353  54.559  1.00  0.00     0.156 HD
HETATM   13  H7  UNL     1      18.571  -0.241  54.115  1.00  0.00     0.156 HD
ENDBRANCH   5  11
ENDBRANCH   1   3
BRANCH   1  14
HETATM   14  C17 UNL     1      24.210   3.113  53.385  1.00  0.00     0.305 C 
BRANCH  14  15
HETATM   15  N5  UNL     1      23.931   4.129  52.416  1.00  0.00     0.082 N 
HETATM   16  H19 UNL     1      22.975   4.051  51.999  1.00  0.00     0.313 HD
HETATM   17  H20 UNL     1      23.953   5.080  52.855  1.00  0.00     0.313 HD
ENDBRANCH  14  15
ENDBRANCH   1  14
BRANCH   2  18
HETATM   18  C9  UNL     1      26.214   1.001  53.378  1.00  0.00     0.028 A 
HETATM   19  C10 UNL     1      26.715   0.727  54.655  1.00  0.00     0.133 A 
HETATM   20  N2  UNL     1      28.021   0.880  54.947  1.00  0.00    -0.253 NA
HETATM   21  C11 UNL     1      28.906   1.302  54.030  1.00  0.00     0.234 A 
HETATM   22  N3  UNL     1      28.495   1.589  52.761  1.00  0.00    -0.224 NA
HETATM   23  C12 UNL     1      27.197   1.435  52.479  1.00  0.00     0.140 A 
BRANCH  23  24
HETATM   24  N4  UNL     1      26.724   1.717  51.172  1.00  0.00    -0.350 N 
HETATM   25  H13 UNL     1      26.325   1.037  50.492  1.00  0.00     0.166 HD
BRANCH  24  26
HETATM   26  C13 UNL     1      26.691   2.970  50.512  1.00  0.00     0.091 C 
HETATM   27  C14 UNL     1      26.122   3.650  49.540  1.00  0.00     0.043 C 
BRANCH  27  28
HETATM   28  C15 UNL     1      26.524   5.025  49.302  1.00  0.00     0.061 C 
HETATM   29 CL1  UNL     1      25.623   6.344  49.962  1.00  0.00    -0.082 Cl
HETATM   30  C16 UNL     1      27.610   5.066  48.555  1.00  0.00     0.424 C 
HETATM   31  F1  UNL     1      28.177   6.233  48.198  1.00  0.00    -0.429 F 
ENDBRANCH  27  28
ENDBRANCH  24  26
ENDBRANCH  23  24
ENDBRANCH   2  18
TORSDOF 8
ENDMDL
MODEL 3
REMARK VINA RESULT:      -8.3      3.299      7.198
REMARK  8 active torsions:
REMARK  status: ('A' for Active; 'I' for Inactive)
REMARK    1  A    between atoms: C4_4  and  N1_5 
REMARK    2  A    between atoms: C6_7  and  C7_8 
REMARK    3  A    between atoms: C7_8  and  C17_23 
REMARK    4  A    between atoms: C8_9  and  C9_10 
REMARK    5  A    between atoms: C12_15  and  N4_16 
REMARK    6  A    between atoms: N4_16  and  C13_17 
REMARK    7  A    between atoms: C14_18  and  C15_19 
REMARK    8  A    between atoms: C17_23  and  N5_24 
ROOT
HETATM    1  C7  UNL     1      24.717   2.435  51.997  1.00  0.00    -0.022 C 
HETATM    2  C8  UNL     1      25.786   1.658  51.942  1.00  0.00     0.026 C 
ENDROOT
BRANCH   1   3
HETATM    3  C6  UNL     1      24.012   2.578  50.741  1.00  0.00    -0.026 A 
HETATM    4  C5  UNL     1      22.881   1.673  50.410  1.00  0.00     0.097 A 
HETATM    5  C4  UNL     1      22.274   1.980  49.113  1.00  0.00     0.004 A 
HETATM    6  C3  UNL     1      22.583   2.907  48.226  1.00  0.00     0.008 A 
HETATM    7  C2  UNL     1      23.713   3.801  48.541  1.00  0.00     0.051 A 
HETATM    8  C1  UNL     1      23.116   5.205  48.677  1.00  0.00     0.020 C 
HETATM    9  C18 UNL     1      24.307   3.486  49.857  1.00  0.00     0.026 A 
HETATM   10 CL2  UNL     1      25.609   4.624  50.063  1.00  0.00    -0.088 Cl
BRANCH   5  11
HETATM   11  N1  UNL     1      21.189   1.113  48.820  1.00  0.00    -0.402 N 
HETATM   12  H6  UNL     1      21.054   0.091  48.664  1.00  0.00     0.156 HD
HETATM   13  H7  UNL     1      20.187   1.419  48.698  1.00  0.00     0.156 HD
ENDBRANCH   5  11
ENDBRANCH   1   3
BRANCH   1  14
HETATM   14  C17 UNL     1      24.481   3.035  53.318  1.00  0.00     0.305 C 
BRANCH  14  15
HETATM   15  N5  UNL     1      24.123   4.421  53.312  1.00  0.00     0.082 N 
HETATM   16  H19 UNL     1      24.937   5.059  53.466  1.00  0.00     0.313 HD
HETATM   17  H20 UNL     1      23.737   4.704  52.380  1.00  0.00     0.313 HD
ENDBRANCH  14  15
ENDBRANCH   1  14
BRANCH   2  18
HETATM   18  C9  UNL     1      26.750   1.251  52.938  1.00  0.00     0.028 A 
HETATM   19  C10 UNL     1      27.803   2.062  53.376  1.00  0.00     0.133 A 
HETATM   20  N2  UNL     1      28.694   1.628  54.288  1.00  0.00    -0.253 NA
HETATM   21  C11 UNL     1      28.616   0.399  54.825  1.00  0.00     0.234 A 
HETATM   22  N3  UNL     1      27.616  -0.451  54.450  1.00  0.00    -0.224 NA
HETATM   23  C12 UNL     1      26.737  -0.013  53.543  1.00  0.00     0.140 A 
BRANCH  23  24
HETATM   24  N4  UNL     1      25.678  -0.859  53.125  1.00  0.00    -0.350 N 
HETATM   25  H13 UNL     1      25.755  -1.700  52.515  1.00  0.00     0.166 HD
BRANCH  24  26
HETATM   26  C13 UNL     1      24.302  -0.750  53.440  1.00  0.00     0.091 C 
HETATM   27  C14 UNL     1      23.442  -0.546  54.415  1.00  0.00     0.043 C 
BRANCH  27  28
HETATM   28  C15 UNL     1      22.020  -0.540  54.122  1.00  0.00     0.061 C 
HETATM   29 CL1  UNL     1      21.238   0.879  53.522  1.00  0.00    -0.082 Cl
HETATM   30  C16 UNL     1      21.491  -1.721  54.378  1.00  0.00     0.424 C 
HETATM   31  F1  UNL     1      20.182  -1.965  54.185  1.00  0.00    -0.429 F 
ENDBRANCH  27  28
ENDBRANCH  24  26
ENDBRANCH  23  24
ENDBRANCH   2  18
TORSDOF 8
ENDMDL
MODEL 4
REMARK VINA RESULT:      -7.8      3.356      5.243
REMARK  8 active torsions:
REMARK  status: ('A' for Active; 'I' for Inactive)
REMARK    1  A    between atoms: C4_4  and  N1_5 
REMARK    2  A    between atoms: C6_7  and  C7_8 
REMARK    3  A    between atoms: C7_8  and  C17_23 
REMARK    4  A    between atoms: C8_9  and  C9_10 
REMARK    5  A    between atoms: C12_15  and  N4_16 
REMARK    6  A    between atoms: N4_16  and  C13_17 
REMARK    7  A    between atoms: C14_18  and  C15_19 
REMARK    8  A    between atoms: C17_23  and  N5_24 
ROOT
HETATM    1  C7  UNL     1      25.662   2.584  51.900  1.00  0.00    -0.022 C 
HETATM    2  C8  UNL     1      24.550   3.035  52.456  1.00  0.00     0.026 C 
ENDROOT
BRANCH   1   3
HETATM    3  C6  UNL     1      26.520   1.836  52.795  1.00  0.00    -0.026 A 
HETATM    4  C5  UNL     1      27.810   2.413  53.251  1.00  0.00     0.097 A 
HETATM    5  C4  UNL     1      28.531   1.528  54.168  1.00  0.00     0.004 A 
HETATM    6  C3  UNL     1      28.213   0.331  54.623  1.00  0.00     0.008 A 
HETATM    7  C2  UNL     1      26.939  -0.255  54.164  1.00  0.00     0.051 A 
HETATM    8  C1  UNL     1      26.058  -0.379  55.410  1.00  0.00     0.020 C 
HETATM    9  C18 UNL     1      26.219   0.654  53.249  1.00  0.00     0.026 A 
HETATM   10 CL2  UNL     1      24.758  -0.188  52.813  1.00  0.00    -0.088 Cl
BRANCH   5  11
HETATM   11  N1  UNL     1      29.755   2.102  54.602  1.00  0.00    -0.402 N 
HETATM   12  H6  UNL     1      30.510   2.686  54.184  1.00  0.00     0.156 HD
HETATM   13  H7  UNL     1      30.153   2.012  55.574  1.00  0.00     0.156 HD
ENDBRANCH   5  11
ENDBRANCH   1   3
BRANCH   1  14
HETATM   14  C17 UNL     1      25.826   2.968  50.492  1.00  0.00     0.305 C 
BRANCH  14  15
HETATM   15  N5  UNL     1      26.683   4.090  50.253  1.00  0.00     0.082 N 
HETATM   16  H19 UNL     1      26.772   4.333  49.240  1.00  0.00     0.313 HD
HETATM   17  H20 UNL     1      26.300   4.955  50.701  1.00  0.00     0.313 HD
ENDBRANCH  14  15
ENDBRANCH   1  14
BRANCH   2  18
HETATM   18  C9  UNL     1      23.442   3.805  51.938  1.00  0.00     0.028 A 
HETATM   19  C10 UNL     1      23.398   5.203  51.943  1.00  0.00     0.133 A 
HETATM   20  N2  UNL     1      22.330   5.876  51.472  1.00  0.00    -0.253 NA
HETATM   21  C11 UNL     1      21.257   5.241  50.974  1.00  0.00     0.234 A 
HETATM   22  N3  UNL     1      21.224   3.877  50.934  1.00  0.00    -0.224 NA
HETATM   23  C12 UNL     1      22.288   3.217  51.404  1.00  0.00     0.140 A 
BRANCH  23  24
HETATM   24  N4  UNL     1      22.301   1.798  51.380  1.00  0.00    -0.350 N 
HETATM   25  H13 UNL     1      22.935   1.190  50.821  1.00  0.00     0.166 HD
BRANCH  24  26
HETATM   26  C13 UNL     1      21.466   0.909  52.099  1.00  0.00     0.091 C 
HETATM   27  C14 UNL     1      20.218   0.629  52.407  1.00  0.00     0.043 C 
BRANCH  27  28
HETATM   28  C15 UNL     1      19.933  -0.509  53.263  1.00  0.00     0.061 C 
HETATM   29 CL1  UNL     1      18.355  -1.211  53.318  1.00  0.00    -0.082 Cl
HETATM   30  C16 UNL     1      21.014  -0.869  53.927  1.00  0.00     0.424 C 
HETATM   31  F1  UNL     1      21.002  -1.904  54.788  1.00  0.00    -0.429 F 
ENDBRANCH  27  28
ENDBRANCH  24  26
ENDBRANCH  23  24
ENDBRANCH   2  18
TORSDOF 8
ENDMDL
MODEL 5
REMARK VINA RESULT:      -7.7      3.665      7.262
REMARK  8 active torsions:
REMARK  status: ('A' for Active; 'I' for Inactive)
REMARK    1  A    between atoms: C4_4  and  N1_5 
REMARK    2  A    between atoms: C6_7  and  C7_8 
REMARK    3  A    between atoms: C7_8  and  C17_23 
REMARK    4  A    between atoms: C8_9  and  C9_10 
REMARK    5  A    between atoms: C12_15  and  N4_16 
REMARK    6  A    between atoms: N4_16  and  C13_17 
REMARK    7  A    between atoms: C14_18  and  C15_19 
REMARK    8  A    between atoms: C17_23  and  N5_24 
ROOT
HETATM    1  C7  UNL     1      24.896   2.875  51.625  1.00  0.00    -0.022 C 
HETATM    2  C8  UNL     1      25.009   2.318  52.820  1.00  0.00     0.026 C 
ENDROOT
BRANCH   1   3
HETATM    3  C6  UNL     1      23.627   3.530  51.385  1.00  0.00    -0.026 A 
HETATM    4  C5  UNL     1      23.478   4.986  51.635  1.00  0.00     0.097 A 
HETATM    5  C4  UNL     1      22.136   5.479  51.314  1.00  0.00     0.004 A 
HETATM    6  C3  UNL     1      21.079   4.834  50.859  1.00  0.00     0.008 A 
HETATM    7  C2  UNL     1      21.215   3.385  50.622  1.00  0.00     0.051 A 
HETATM    8  C1  UNL     1      21.043   3.186  49.113  1.00  0.00     0.020 C 
HETATM    9  C18 UNL     1      22.576   2.906  50.939  1.00  0.00     0.026 A 
HETATM   10 CL2  UNL     1      22.557   1.197  50.604  1.00  0.00    -0.088 Cl
BRANCH   5  11
HETATM   11  N1  UNL     1      22.018   6.875  51.548  1.00  0.00    -0.402 N 
HETATM   12  H6  UNL     1      21.867   7.731  50.973  1.00  0.00     0.156 HD
HETATM   13  H7  UNL     1      22.072   7.334  52.495  1.00  0.00     0.156 HD
ENDBRANCH   5  11
ENDBRANCH   1   3
BRANCH   1  14
HETATM   14  C17 UNL     1      26.068   2.680  50.761  1.00  0.00     0.305 C 
BRANCH  14  15
HETATM   15  N5  UNL     1      26.783   3.870  50.411  1.00  0.00     0.082 N 
HETATM   16  H19 UNL     1      27.065   4.441  51.240  1.00  0.00     0.313 HD
HETATM   17  H20 UNL     1      27.683   3.638  49.929  1.00  0.00     0.313 HD
ENDBRANCH  14  15
ENDBRANCH   1  14
BRANCH   2  18
HETATM   18  C9  UNL     1      26.078   1.585  53.458  1.00  0.00     0.028 A 
HETATM   19  C10 UNL     1      27.172   2.193  54.083  1.00  0.00     0.133 A 
HETATM   20  N2  UNL     1      28.158   1.465  54.642  1.00  0.00    -0.253 NA
HETATM   21  C11 UNL     1      28.141   0.122  54.629  1.00  0.00     0.234 A 
HETATM   22  N3  UNL     1      27.107  -0.545  54.039  1.00  0.00    -0.224 NA
HETATM   23  C12 UNL     1      26.132   0.185  53.486  1.00  0.00     0.140 A 
BRANCH  23  24
HETATM   24  N4  UNL     1      25.035  -0.465  52.865  1.00  0.00    -0.350 N 
HETATM   25  H13 UNL     1      25.062  -1.045  52.000  1.00  0.00     0.166 HD
BRANCH  24  26
HETATM   26  C13 UNL     1      23.680  -0.467  53.277  1.00  0.00     0.091 C 
HETATM   27  C14 UNL     1      22.878  -0.337  54.311  1.00  0.00     0.043 C 
BRANCH  27  28
HETATM   28  C15 UNL     1      21.443  -0.444  54.119  1.00  0.00     0.061 C 
HETATM   29 CL1  UNL     1      20.488   0.944  53.736  1.00  0.00    -0.082 Cl
HETATM   30  C16 UNL     1      21.048  -1.693  54.277  1.00  0.00     0.424 C 
HETATM   31  F1  UNL     1      19.756  -2.047  54.148  1.00  0.00    -0.429 F 
ENDBRANCH  27  28
ENDBRANCH  24  26
ENDBRANCH  23  24
ENDBRANCH   2  18
TORSDOF 8
ENDMDL
MODEL 6
REMARK VINA RESULT:      -7.7      3.157      4.976
REMARK  8 active torsions:
REMARK  status: ('A' for Active; 'I' for Inactive)
REMARK    1  A    between atoms: C4_4  and  N1_5 
REMARK    2  A    between atoms: C6_7  and  C7_8 
REMARK    3  A    between atoms: C7_8  and  C17_23 
REMARK    4  A    between atoms: C8_9  and  C9_10 
REMARK    5  A    between atoms: C12_15  and  N4_16 
REMARK    6  A    between atoms: N4_16  and  C13_17 
REMARK    7  A    between atoms: C14_18  and  C15_19 
REMARK    8  A    between atoms: C17_23  and  N5_24 
ROOT
HETATM    1  C7  UNL     1      23.617   3.063  51.953  1.00  0.00    -0.022 C 
HETATM    2  C8  UNL     1      23.713   3.015  50.634  1.00  0.00     0.026 C 
ENDROOT
BRANCH   1   3
HETATM    3  C6  UNL     1      24.180   1.921  52.640  1.00  0.00    -0.026 A 
HETATM    4  C5  UNL     1      25.459   2.051  53.384  1.00  0.00     0.097 A 
HETATM    5  C4  UNL     1      25.861   0.801  54.035  1.00  0.00     0.004 A 
HETATM    6  C3  UNL     1      25.275  -0.381  54.046  1.00  0.00     0.008 A 
HETATM    7  C2  UNL     1      24.012  -0.521  53.297  1.00  0.00     0.051 A 
HETATM    8  C1  UNL     1      22.933  -0.819  54.342  1.00  0.00     0.020 C 
HETATM    9  C18 UNL     1      23.614   0.749  52.657  1.00  0.00     0.026 A 
HETATM   10 CL2  UNL     1      22.121   0.403  51.829  1.00  0.00    -0.088 Cl
BRANCH   5  11
HETATM   11  N1  UNL     1      27.079   0.949  54.751  1.00  0.00    -0.402 N 
HETATM   12  H6  UNL     1      27.827   0.321  55.115  1.00  0.00     0.156 HD
HETATM   13  H7  UNL     1      27.479   1.868  55.077  1.00  0.00     0.156 HD
ENDBRANCH   5  11
ENDBRANCH   1   3
BRANCH   1  14
HETATM   14  C17 UNL     1      22.917   4.253  52.457  1.00  0.00     0.305 C 
BRANCH  14  15
HETATM   15  N5  UNL     1      23.755   5.283  52.991  1.00  0.00     0.082 N 
HETATM   16  H19 UNL     1      24.357   4.958  53.782  1.00  0.00     0.313 HD
HETATM   17  H20 UNL     1      24.429   5.629  52.268  1.00  0.00     0.313 HD
ENDBRANCH  14  15
ENDBRANCH   1  14
BRANCH   2  18
HETATM   18  C9  UNL     1      23.296   3.922  49.590  1.00  0.00     0.028 A 
HETATM   19  C10 UNL     1      22.051   3.857  48.956  1.00  0.00     0.133 A 
HETATM   20  N2  UNL     1      21.718   4.710  47.968  1.00  0.00    -0.253 NA
HETATM   21  C11 UNL     1      22.562   5.665  47.544  1.00  0.00     0.234 A 
HETATM   22  N3  UNL     1      23.795   5.793  48.113  1.00  0.00    -0.224 NA
HETATM   23  C12 UNL     1      24.118   4.942  49.092  1.00  0.00     0.140 A 
BRANCH  23  24
HETATM   24  N4  UNL     1      25.388   5.039  49.717  1.00  0.00    -0.350 N 
HETATM   25  H13 UNL     1      25.606   4.858  50.719  1.00  0.00     0.166 HD
BRANCH  24  26
HETATM   26  C13 UNL     1      26.623   5.399  49.124  1.00  0.00     0.091 C 
HETATM   27  C14 UNL     1      27.721   4.928  48.574  1.00  0.00     0.043 C 
BRANCH  27  28
HETATM   28  C15 UNL     1      28.737   5.853  48.104  1.00  0.00     0.061 C 
HETATM   29 CL1  UNL     1      30.407   5.411  48.087  1.00  0.00    -0.082 Cl
HETATM   30  C16 UNL     1      28.186   6.991  47.728  1.00  0.00     0.424 C 
HETATM   31  F1  UNL     1      28.925   8.010  47.253  1.00  0.00    -0.429 F 
ENDBRANCH  27  28
ENDBRANCH  24  26
ENDBRANCH  23  24
ENDBRANCH   2  18
TORSDOF 8
ENDMDL
MODEL 7
REMARK VINA RESULT:      -7.6      2.437      3.186
REMARK  8 active torsions:
REMARK  status: ('A' for Active; 'I' for Inactive)
REMARK    1  A    between atoms: C4_4  and  N1_5 
REMARK    2  A    between atoms: C6_7  and  C7_8 
REMARK    3  A    between atoms: C7_8  and  C17_23 
REMARK    4  A    between atoms: C8_9  and  C9_10 
REMARK    5  A    between atoms: C12_15  and  N4_16 
REMARK    6  A    between atoms: N4_16  and  C13_17 
REMARK    7  A    between atoms: C14_18  and  C15_19 
REMARK    8  A    between atoms: C17_23  and  N5_24 
ROOT
HETATM    1  C7  UNL     1      24.565   0.639  52.686  1.00  0.00    -0.022 C 
HETATM    2  C8  UNL     1      24.569   1.389  51.597  1.00  0.00     0.026 C 
ENDROOT
BRANCH   1   3
HETATM    3  C6  UNL     1      25.864   0.131  53.072  1.00  0.00    -0.026 A 
HETATM    4  C5  UNL     1      26.253  -1.262  52.737  1.00  0.00     0.097 A 
HETATM    5  C4  UNL     1      27.609  -1.592  53.183  1.00  0.00     0.004 A 
HETATM    6  C3  UNL     1      28.497  -0.856  53.824  1.00  0.00     0.008 A 
HETATM    7  C2  UNL     1      28.113   0.525  54.172  1.00  0.00     0.051 A 
HETATM    8  C1  UNL     1      29.052   1.437  53.377  1.00  0.00     0.020 C 
HETATM    9  C18 UNL     1      26.749   0.845  53.706  1.00  0.00     0.026 A 
HETATM   10 CL2  UNL     1      26.466   2.493  54.195  1.00  0.00    -0.088 Cl
BRANCH   5  11
HETATM   11  N1  UNL     1      27.966  -2.924  52.844  1.00  0.00    -0.402 N 
HETATM   12  H6  UNL     1      27.694  -3.884  53.146  1.00  0.00     0.156 HD
HETATM   13  H7  UNL     1      28.678  -3.190  52.112  1.00  0.00     0.156 HD
ENDBRANCH   5  11
ENDBRANCH   1   3
BRANCH   1  14
HETATM   14  C17 UNL     1      23.230   0.434  53.265  1.00  0.00     0.305 C 
BRANCH  14  15
HETATM   15  N5  UNL     1      22.808  -0.929  53.379  1.00  0.00     0.082 N 
HETATM   16  H19 UNL     1      22.377  -1.303  52.503  1.00  0.00     0.313 HD
HETATM   17  H20 UNL     1      23.624  -1.559  53.564  1.00  0.00     0.313 HD
ENDBRANCH  14  15
ENDBRANCH   1  14
BRANCH   2  18
HETATM   18  C9  UNL     1      23.520   2.080  50.882  1.00  0.00     0.028 A 
HETATM   19  C10 UNL     1      22.320   1.479  50.491  1.00  0.00     0.133 A 
HETATM   20  N2  UNL     1      21.382   2.158  49.804  1.00  0.00    -0.253 NA
HETATM   21  C11 UNL     1      21.551   3.445  49.459  1.00  0.00     0.234 A 
HETATM   22  N3  UNL     1      22.696   4.103  49.805  1.00  0.00    -0.224 NA
HETATM   23  C12 UNL     1      23.622   3.421  50.487  1.00  0.00     0.140 A 
BRANCH  23  24
HETATM   24  N4  UNL     1      24.826   4.064  50.872  1.00  0.00    -0.350 N 
HETATM   25  H13 UNL     1      25.171   4.213  51.843  1.00  0.00     0.166 HD
BRANCH  24  26
HETATM   26  C13 UNL     1      25.811   4.638  50.032  1.00  0.00     0.091 C 
HETATM   27  C14 UNL     1      26.748   4.371  49.148  1.00  0.00     0.043 C 
BRANCH  27  28
HETATM   28  C15 UNL     1      27.510   5.462  48.566  1.00  0.00     0.061 C 
HETATM   29 CL1  UNL     1      29.192   5.285  48.212  1.00  0.00    -0.082 Cl
HETATM   30  C16 UNL     1      26.739   6.515  48.377  1.00  0.00     0.424 C 
HETATM   31  F1  UNL     1      27.218   7.655  47.847  1.00  0.00    -0.429 F 
ENDBRANCH  27  28
ENDBRANCH  24  26
ENDBRANCH  23  24
ENDBRANCH   2  18
TORSDOF 8
ENDMDL
MODEL 8
REMARK VINA RESULT:      -7.6      2.685      6.615
REMARK  8 active torsions:
REMARK  status: ('A' for Active; 'I' for Inactive)
REMARK    1  A    between atoms: C4_4  and  N1_5 
REMARK    2  A    between atoms: C6_7  and  C7_8 
REMARK    3  A    between atoms: C7_8  and  C17_23 
REMARK    4  A    between atoms: C8_9  and  C9_10 
REMARK    5  A    between atoms: C12_15  and  N4_16 
REMARK    6  A    between atoms: N4_16  and  C13_17 
REMARK    7  A    between atoms: C14_18  and  C15_19 
REMARK    8  A    between atoms: C17_23  and  N5_24 
ROOT
HETATM    1  C7  UNL     1      23.962   3.853  51.450  1.00  0.00    -0.022 C 
HETATM    2  C8  UNL     1      23.836   2.593  51.066  1.00  0.00     0.026 C 
ENDROOT
BRANCH   1   3
HETATM    3  C6  UNL     1      24.497   4.739  50.438  1.00  0.00    -0.026 A 
HETATM    4  C5  UNL     1      25.918   4.626  50.020  1.00  0.00     0.097 A 
HETATM    5  C4  UNL     1      26.275   5.585  48.972  1.00  0.00     0.004 A 
HETATM    6  C3  UNL     1      25.543   6.506  48.374  1.00  0.00     0.008 A 
HETATM    7  C2  UNL     1      24.134   6.633  48.794  1.00  0.00     0.051 A 
HETATM    8  C1  UNL     1      23.294   6.253  47.571  1.00  0.00     0.020 C 
HETATM    9  C18 UNL     1      23.787   5.652  49.842  1.00  0.00     0.026 A 
HETATM   10 CL2  UNL     1      22.110   5.942  50.211  1.00  0.00    -0.088 Cl
BRANCH   5  11
HETATM   11  N1  UNL     1      27.633   5.453  48.578  1.00  0.00    -0.402 N 
HETATM   12  H6  UNL     1      28.247   4.696  48.211  1.00  0.00     0.156 HD
HETATM   13  H7  UNL     1      28.345   6.231  48.599  1.00  0.00     0.156 HD
ENDBRANCH   5  11
ENDBRANCH   1   3
BRANCH   1  14
HETATM   14  C17 UNL     1      23.572   4.094  52.846  1.00  0.00     0.305 C 
BRANCH  14  15
HETATM   15  N5  UNL     1      23.852   5.405  53.348  1.00  0.00     0.082 N 
HETATM   16  H19 UNL     1      23.113   6.106  53.110  1.00  0.00     0.313 HD
HETATM   17  H20 UNL     1      23.891   5.404  54.394  1.00  0.00     0.313 HD
ENDBRANCH  14  15
ENDBRANCH   1  14
BRANCH   2  18
HETATM   18  C9  UNL     1      23.353   1.410  51.741  1.00  0.00     0.028 A 
HETATM   19  C10 UNL     1      22.054   0.911  51.600  1.00  0.00     0.133 A 
HETATM   20  N2  UNL     1      21.642  -0.182  52.271  1.00  0.00    -0.253 NA
HETATM   21  C11 UNL     1      22.456  -0.847  53.106  1.00  0.00     0.234 A 
HETATM   22  N3  UNL     1      23.739  -0.423  53.297  1.00  0.00    -0.224 NA
HETATM   23  C12 UNL     1      24.140   0.663  52.627  1.00  0.00     0.140 A 
BRANCH  23  24
HETATM   24  N4  UNL     1      25.466   1.139  52.790  1.00  0.00    -0.350 N 
HETATM   25  H13 UNL     1      25.780   2.132  52.765  1.00  0.00     0.166 HD
BRANCH  24  26
HETATM   26  C13 UNL     1      26.640   0.380  53.019  1.00  0.00     0.091 C 
HETATM   27  C14 UNL     1      27.306  -0.310  53.919  1.00  0.00     0.043 C 
BRANCH  27  28
HETATM   28  C15 UNL     1      28.572  -0.922  53.553  1.00  0.00     0.061 C 
HETATM   29 CL1  UNL     1      28.646  -2.559  53.005  1.00  0.00    -0.082 Cl
HETATM   30  C16 UNL     1      29.561  -0.064  53.707  1.00  0.00     0.424 C 
HETATM   31  F1  UNL     1      30.836  -0.398  53.431  1.00  0.00    -0.429 F 
ENDBRANCH  27  28
ENDBRANCH  24  26
ENDBRANCH  23  24
ENDBRANCH   2  18
TORSDOF 8
ENDMDL
MODEL 9
REMARK VINA RESULT:      -7.5      2.835      4.745
REMARK  8 active torsions:
REMARK  status: ('A' for Active; 'I' for Inactive)
REMARK    1  A    between atoms: C4_4  and  N1_5 
REMARK    2  A    between atoms: C6_7  and  C7_8 
REMARK    3  A    between atoms: C7_8  and  C17_23 
REMARK    4  A    between atoms: C8_9  and  C9_10 
REMARK    5  A    between atoms: C12_15  and  N4_16 
REMARK    6  A    between atoms: N4_16  and  C13_17 
REMARK    7  A    between atoms: C14_18  and  C15_19 
REMARK    8  A    between atoms: C17_23  and  N5_24 
ROOT
HETATM    1  C7  UNL     1      23.208   2.122  51.349  1.00  0.00    -0.022 C 
HETATM    2  C8  UNL     1      22.860   3.295  51.853  1.00  0.00     0.026 C 
ENDROOT
BRANCH   1   3
HETATM    3  C6  UNL     1      23.771   1.198  52.311  1.00  0.00    -0.026 A 
HETATM    4  C5  UNL     1      22.881   0.383  53.176  1.00  0.00     0.097 A 
HETATM    5  C4  UNL     1      23.625  -0.510  54.067  1.00  0.00     0.004 A 
HETATM    6  C3  UNL     1      24.925  -0.681  54.211  1.00  0.00     0.008 A 
HETATM    7  C2  UNL     1      25.816   0.135  53.365  1.00  0.00     0.051 A 
HETATM    8  C1  UNL     1      26.553  -0.852  52.454  1.00  0.00     0.020 C 
HETATM    9  C18 UNL     1      25.051   1.021  52.464  1.00  0.00     0.026 A 
HETATM   10 CL2  UNL     1      26.247   1.898  51.551  1.00  0.00    -0.088 Cl
BRANCH   5  11
HETATM   11  N1  UNL     1      22.756  -1.289  54.877  1.00  0.00    -0.402 N 
HETATM   12  H6  UNL     1      22.842  -1.884  55.728  1.00  0.00     0.156 HD
HETATM   13  H7  UNL     1      21.720  -1.403  54.715  1.00  0.00     0.156 HD
ENDBRANCH   5  11
ENDBRANCH   1   3
BRANCH   1  14
HETATM   14  C17 UNL     1      22.991   2.006  49.900  1.00  0.00     0.305 C 
BRANCH  14  15
HETATM   15  N5  UNL     1      21.838   1.254  49.506  1.00  0.00     0.082 N 
HETATM   16  H19 UNL     1      20.938   1.687  49.815  1.00  0.00     0.313 HD
HETATM   17  H20 UNL     1      21.765   1.203  48.463  1.00  0.00     0.313 HD
ENDBRANCH  14  15
ENDBRANCH   1  14
BRANCH   2  18
HETATM   18  C9  UNL     1      22.273   4.476  51.263  1.00  0.00     0.028 A 
HETATM   19  C10 UNL     1      20.902   4.627  51.027  1.00  0.00     0.133 A 
HETATM   20  N2  UNL     1      20.404   5.737  50.450  1.00  0.00    -0.253 NA
HETATM   21  C11 UNL     1      21.196   6.754  50.073  1.00  0.00     0.234 A 
HETATM   22  N3  UNL     1      22.545   6.683  50.269  1.00  0.00    -0.224 NA
HETATM   23  C12 UNL     1      23.031   5.577  50.842  1.00  0.00     0.140 A 
BRANCH  23  24
HETATM   24  N4  UNL     1      24.426   5.459  51.071  1.00  0.00    -0.350 N 
HETATM   25  H13 UNL     1      24.893   5.218  51.970  1.00  0.00     0.166 HD
BRANCH  24  26
HETATM   26  C13 UNL     1      25.477   5.640  50.139  1.00  0.00     0.091 C 
HETATM   27  C14 UNL     1      26.337   5.015  49.365  1.00  0.00     0.043 C 
BRANCH  27  28
HETATM   28  C15 UNL     1      27.262   5.790  48.555  1.00  0.00     0.061 C 
HETATM   29 CL1  UNL     1      28.862   5.222  48.237  1.00  0.00    -0.082 Cl
HETATM   30  C16 UNL     1      26.693   6.908  48.148  1.00  0.00     0.424 C 
HETATM   31  F1  UNL     1      27.351   7.796  47.380  1.00  0.00    -0.429 F 
ENDBRANCH  27  28
ENDBRANCH  24  26
ENDBRANCH  23  24
ENDBRANCH   2  18
TORSDOF 8
ENDMDL
