MODEL 1
REMARK VINA RESULT:      -8.6      0.000      0.000
REMARK  4 active torsions:
REMARK  status: ('A' for Active; 'I' for Inactive)
REMARK    1  A    between atoms: N1_1  and  S1_2 
REMARK    2  A    between atoms: S1_2  and  C1_5 
REMARK    3  A    between atoms: C4_8  and  N2_9 
REMARK    4  A    between atoms: N2_9  and  C5_10 
ROOT
HETATM    1  C5  UNL     1      23.866   2.280  51.203  1.00  0.00     0.210 C 
HETATM    2  C6  UNL     1      24.835   2.608  52.319  1.00  0.00     0.077 C 
HETATM    3  C7  UNL     1      26.094   1.786  52.149  1.00  0.00    -0.006 C 
HETATM    4  C8  UNL     1      26.569   0.907  53.033  1.00  0.00     0.007 C 
HETATM    5  S2  UNL     1      28.017  -0.189  53.090  1.00  0.00    -0.086 SA
HETATM    6  C9  UNL     1      28.263   0.058  54.854  1.00  0.00     0.161 C 
HETATM    7  N3  UNL     1      27.127   0.390  55.269  1.00  0.00    -0.282 NA
HETATM    8  C10 UNL     1      26.084   0.472  54.351  1.00  0.00     0.169 C 
HETATM    9  C11 UNL     1      25.210  -0.759  54.286  1.00  0.00     0.206 C 
HETATM   10  N4  UNL     1      24.118  -0.638  53.381  1.00  0.00    -0.190 NA
HETATM   11  N5  UNL     1      23.038  -0.027  53.711  1.00  0.00    -0.148 NA
HETATM   12  C12 UNL     1      21.925   0.118  52.838  1.00  0.00     0.258 C 
HETATM   13  N6  UNL     1      22.338   1.332  52.959  1.00  0.00    -0.234 NA
HETATM   14  C13 UNL     1      21.760   2.463  52.338  1.00  0.00     0.230 C 
HETATM   15  N7  UNL     1      22.582   2.922  51.437  1.00  0.00    -0.257 NA
ENDROOT
BRANCH   1  16
HETATM   16  N2  UNL     1      24.416   2.588  49.928  1.00  0.00    -0.367 N 
HETATM   17  H5  UNL     1      24.215   1.921  49.136  1.00  0.00     0.161 HD
BRANCH  16  18
HETATM   18  C4  UNL     1      25.219   3.674  49.512  1.00  0.00     0.029 A 
HETATM   19  C3  UNL     1      26.598   3.585  49.304  1.00  0.00     0.031 A 
HETATM   20  C2  UNL     1      27.366   4.635  48.885  1.00  0.00     0.027 A 
HETATM   21  C1  UNL     1      26.802   5.866  48.642  1.00  0.00     0.074 A 
HETATM   22  C15 UNL     1      25.450   6.015  48.828  1.00  0.00     0.027 A 
HETATM   23  C14 UNL     1      24.712   4.931  49.252  1.00  0.00     0.031 A 
BRANCH  21  24
HETATM   24  S1  UNL     1      27.826   7.173  48.109  1.00  0.00     0.239 S 
HETATM   25  O1  UNL     1      29.066   6.635  47.468  1.00  0.00    -0.206 OA
HETATM   26  O2  UNL     1      27.072   7.962  47.064  1.00  0.00    -0.206 OA
BRANCH  24  27
HETATM   27  N1  UNL     1      28.181   8.162  49.490  1.00  0.00    -0.225 NA
HETATM   28  H1  UNL     1      28.446   7.573  50.312  1.00  0.00     0.136 HD
HETATM   29  H2  UNL     1      28.998   8.780  49.232  1.00  0.00     0.136 HD
ENDBRANCH  24  27
ENDBRANCH  21  24
ENDBRANCH  16  18
ENDBRANCH   1  16
TORSDOF 4
ENDMDL
MODEL 2
REMARK VINA RESULT:      -7.8      4.359      7.318
REMARK  4 active torsions:
REMARK  status: ('A' for Active; 'I' for Inactive)
REMARK    1  A    between atoms: N1_1  and  S1_2 
REMARK    2  A    between atoms: S1_2  and  C1_5 
REMARK    3  A    between atoms: C4_8  and  N2_9 
REMARK    4  A    between atoms: N2_9  and  C5_10 
ROOT
HETATM    1  C5  UNL     1      23.164   3.874  50.907  1.00  0.00     0.210 C 
HETATM    2  C6  UNL     1      22.057   3.613  51.906  1.00  0.00     0.077 C 
HETATM    3  C7  UNL     1      21.093   2.596  51.334  1.00  0.00    -0.006 C 
HETATM    4  C8  UNL     1      19.794   2.803  51.109  1.00  0.00     0.007 C 
HETATM    5  S2  UNL     1      18.437   1.791  50.449  1.00  0.00    -0.086 SA
HETATM    6  C9  UNL     1      17.228   2.490  51.583  1.00  0.00     0.161 C 
HETATM    7  N3  UNL     1      17.712   3.607  51.882  1.00  0.00    -0.282 NA
HETATM    8  C10 UNL     1      18.930   3.975  51.317  1.00  0.00     0.169 C 
HETATM    9  C11 UNL     1      18.813   4.852  50.092  1.00  0.00     0.206 C 
HETATM   10  N4  UNL     1      20.067   5.260  49.559  1.00  0.00    -0.190 NA
HETATM   11  N5  UNL     1      20.722   6.244  50.062  1.00  0.00    -0.148 NA
HETATM   12  C12 UNL     1      21.978   6.685  49.562  1.00  0.00     0.258 C 
HETATM   13  N6  UNL     1      22.291   6.224  50.723  1.00  0.00    -0.234 NA
HETATM   14  C13 UNL     1      23.592   6.205  51.276  1.00  0.00     0.230 C 
HETATM   15  N7  UNL     1      24.006   4.972  51.354  1.00  0.00    -0.257 NA
ENDROOT
BRANCH   1  16
HETATM   16  N2  UNL     1      23.900   2.690  50.623  1.00  0.00    -0.367 N 
HETATM   17  H5  UNL     1      23.710   2.206  49.705  1.00  0.00     0.161 HD
BRANCH  16  18
HETATM   18  C4  UNL     1      24.882   2.016  51.383  1.00  0.00     0.029 A 
HETATM   19  C3  UNL     1      26.245   2.322  51.337  1.00  0.00     0.031 A 
HETATM   20  C2  UNL     1      27.187   1.676  52.088  1.00  0.00     0.027 A 
HETATM   21  C1  UNL     1      26.829   0.665  52.949  1.00  0.00     0.074 A 
HETATM   22  C15 UNL     1      25.503   0.320  53.038  1.00  0.00     0.027 A 
HETATM   23  C14 UNL     1      24.585   0.996  52.264  1.00  0.00     0.031 A 
BRANCH  21  24
HETATM   24  S1  UNL     1      28.070  -0.126  53.884  1.00  0.00     0.239 S 
HETATM   25  O1  UNL     1      27.701  -0.140  55.334  1.00  0.00    -0.206 OA
HETATM   26  O2  UNL     1      28.163  -1.560  53.419  1.00  0.00    -0.206 OA
BRANCH  24  27
HETATM   27  N1  UNL     1      29.562   0.712  53.597  1.00  0.00    -0.225 NA
HETATM   28  H1  UNL     1      30.280   0.068  53.195  1.00  0.00     0.136 HD
HETATM   29  H2  UNL     1      29.362   1.480  52.900  1.00  0.00     0.136 HD
ENDBRANCH  24  27
ENDBRANCH  21  24
ENDBRANCH  16  18
ENDBRANCH   1  16
TORSDOF 4
ENDMDL
MODEL 3
REMARK VINA RESULT:      -7.6      3.939      7.263
REMARK  4 active torsions:
REMARK  status: ('A' for Active; 'I' for Inactive)
REMARK    1  A    between atoms: N1_1  and  S1_2 
REMARK    2  A    between atoms: S1_2  and  C1_5 
REMARK    3  A    between atoms: C4_8  and  N2_9 
REMARK    4  A    between atoms: N2_9  and  C5_10 
ROOT
HETATM    1  C5  UNL     1      22.804   2.725  50.372  1.00  0.00     0.210 C 
HETATM    2  C6  UNL     1      23.242   2.878  48.931  1.00  0.00     0.077 C 
HETATM    3  C7  UNL     1      23.338   4.350  48.589  1.00  0.00    -0.006 C 
HETATM    4  C8  UNL     1      22.638   4.970  47.638  1.00  0.00     0.007 C 
HETATM    5  S2  UNL     1      22.552   6.679  47.026  1.00  0.00    -0.086 SA
HETATM    6  C9  UNL     1      22.335   6.164  45.317  1.00  0.00     0.161 C 
HETATM    7  N3  UNL     1      21.848   5.013  45.413  1.00  0.00    -0.282 NA
HETATM    8  C10 UNL     1      21.627   4.490  46.684  1.00  0.00     0.169 C 
HETATM    9  C11 UNL     1      20.212   4.646  47.188  1.00  0.00     0.206 C 
HETATM   10  N4  UNL     1      19.991   4.060  48.466  1.00  0.00    -0.190 NA
HETATM   11  N5  UNL     1      19.780   2.801  48.599  1.00  0.00    -0.148 NA
HETATM   12  C12 UNL     1      19.556   2.174  49.855  1.00  0.00     0.258 C 
HETATM   13  N6  UNL     1      20.691   1.679  49.500  1.00  0.00    -0.234 NA
HETATM   14  C13 UNL     1      21.451   0.748  50.245  1.00  0.00     0.230 C 
HETATM   15  N7  UNL     1      22.534   1.328  50.677  1.00  0.00    -0.257 NA
ENDROOT
BRANCH   1  16
HETATM   16  N2  UNL     1      23.737   3.318  51.267  1.00  0.00    -0.367 N 
HETATM   17  H5  UNL     1      23.607   4.339  51.500  1.00  0.00     0.161 HD
BRANCH  16  18
HETATM   18  C4  UNL     1      24.855   2.763  51.929  1.00  0.00     0.029 A 
HETATM   19  C3  UNL     1      24.896   2.509  53.303  1.00  0.00     0.031 A 
HETATM   20  C2  UNL     1      25.975   1.956  53.934  1.00  0.00     0.027 A 
HETATM   21  C1  UNL     1      27.104   1.611  53.227  1.00  0.00     0.074 A 
HETATM   22  C15 UNL     1      27.122   1.836  51.873  1.00  0.00     0.027 A 
HETATM   23  C14 UNL     1      26.013   2.397  51.275  1.00  0.00     0.031 A 
BRANCH  21  24
HETATM   24  S1  UNL     1      28.452   0.908  54.080  1.00  0.00     0.239 S 
HETATM   25  O1  UNL     1      27.966   0.006  55.170  1.00  0.00    -0.206 OA
HETATM   26  O2  UNL     1      29.237   0.066  53.102  1.00  0.00    -0.206 OA
BRANCH  24  27
HETATM   27  N1  UNL     1      29.425   2.208  54.693  1.00  0.00    -0.225 NA
HETATM   28  H1  UNL     1      29.137   3.119  54.270  1.00  0.00     0.136 HD
HETATM   29  H2  UNL     1      29.272   2.250  55.737  1.00  0.00     0.136 HD
ENDBRANCH  24  27
ENDBRANCH  21  24
ENDBRANCH  16  18
ENDBRANCH   1  16
TORSDOF 4
ENDMDL
MODEL 4
REMARK VINA RESULT:      -7.6      3.052      3.888
REMARK  4 active torsions:
REMARK  status: ('A' for Active; 'I' for Inactive)
REMARK    1  A    between atoms: N1_1  and  S1_2 
REMARK    2  A    between atoms: S1_2  and  C1_5 
REMARK    3  A    between atoms: C4_8  and  N2_9 
REMARK    4  A    between atoms: N2_9  and  C5_10 
ROOT
HETATM    1  C5  UNL     1      22.593   3.684  50.313  1.00  0.00     0.210 C 
HETATM    2  C6  UNL     1      22.197   3.522  51.766  1.00  0.00     0.077 C 
HETATM    3  C7  UNL     1      22.880   2.299  52.340  1.00  0.00    -0.006 C 
HETATM    4  C8  UNL     1      22.259   1.234  52.850  1.00  0.00     0.007 C 
HETATM    5  S2  UNL     1      22.811  -0.333  53.587  1.00  0.00    -0.086 SA
HETATM    6  C9  UNL     1      21.483  -0.348  54.799  1.00  0.00     0.161 C 
HETATM    7  N3  UNL     1      20.590   0.356  54.271  1.00  0.00    -0.282 NA
HETATM    8  C10 UNL     1      20.835   0.906  53.016  1.00  0.00     0.169 C 
HETATM    9  C11 UNL     1      20.269   0.112  51.862  1.00  0.00     0.206 C 
HETATM   10  N4  UNL     1      20.484   0.716  50.592  1.00  0.00    -0.190 NA
HETATM   11  N5  UNL     1      19.730   1.663  50.163  1.00  0.00    -0.148 NA
HETATM   12  C12 UNL     1      19.910   2.295  48.902  1.00  0.00     0.258 C 
HETATM   13  N6  UNL     1      20.188   3.244  49.726  1.00  0.00    -0.234 NA
HETATM   14  C13 UNL     1      20.568   4.559  49.368  1.00  0.00     0.230 C 
HETATM   15  N7  UNL     1      21.818   4.744  49.689  1.00  0.00    -0.257 NA
ENDROOT
BRANCH   1  16
HETATM   16  N2  UNL     1      23.996   3.865  50.173  1.00  0.00    -0.367 N 
HETATM   17  H5  UNL     1      24.604   3.003  50.197  1.00  0.00     0.161 HD
BRANCH  16  18
HETATM   18  C4  UNL     1      24.757   5.043  50.000  1.00  0.00     0.029 A 
HETATM   19  C3  UNL     1      24.565   6.208  50.748  1.00  0.00     0.031 A 
HETATM   20  C2  UNL     1      25.317   7.338  50.586  1.00  0.00     0.027 A 
HETATM   21  C1  UNL     1      26.327   7.385  49.653  1.00  0.00     0.074 A 
HETATM   22  C15 UNL     1      26.563   6.270  48.888  1.00  0.00     0.027 A 
HETATM   23  C14 UNL     1      25.782   5.151  49.082  1.00  0.00     0.031 A 
BRANCH  21  24
HETATM   24  S1  UNL     1      27.255   8.852  49.488  1.00  0.00     0.239 S 
HETATM   25  O1  UNL     1      28.521   8.585  48.736  1.00  0.00    -0.206 OA
HETATM   26  O2  UNL     1      26.438   9.833  48.680  1.00  0.00    -0.206 OA
BRANCH  24  27
HETATM   27  N1  UNL     1      27.558   9.467  51.081  1.00  0.00    -0.225 NA
HETATM   28  H1  UNL     1      27.228  10.455  51.168  1.00  0.00     0.136 HD
HETATM   29  H2  UNL     1      27.017   8.864  51.759  1.00  0.00     0.136 HD
ENDBRANCH  24  27
ENDBRANCH  21  24
ENDBRANCH  16  18
ENDBRANCH   1  16
TORSDOF 4
ENDMDL
MODEL 5
REMARK VINA RESULT:      -7.5      3.836      7.558
REMARK  4 active torsions:
REMARK  status: ('A' for Active; 'I' for Inactive)
REMARK    1  A    between atoms: N1_1  and  S1_2 
REMARK    2  A    between atoms: S1_2  and  C1_5 
REMARK    3  A    between atoms: C4_8  and  N2_9 
REMARK    4  A    between atoms: N2_9  and  C5_10 
ROOT
HETATM    1  C5  UNL     1      23.138   3.689  49.736  1.00  0.00     0.210 C 
HETATM    2  C6  UNL     1      24.551   3.995  49.287  1.00  0.00     0.077 C 
HETATM    3  C7  UNL     1      25.061   5.212  50.029  1.00  0.00    -0.006 C 
HETATM    4  C8  UNL     1      25.454   6.354  49.463  1.00  0.00     0.007 C 
HETATM    5  S2  UNL     1      26.094   7.935  50.092  1.00  0.00    -0.086 SA
HETATM    6  C9  UNL     1      27.231   8.139  48.714  1.00  0.00     0.161 C 
HETATM    7  N3  UNL     1      26.714   7.457  47.798  1.00  0.00    -0.282 NA
HETATM    8  C10 UNL     1      25.521   6.790  48.060  1.00  0.00     0.169 C 
HETATM    9  C11 UNL     1      24.281   7.524  47.606  1.00  0.00     0.206 C 
HETATM   10  N4  UNL     1      23.074   6.805  47.835  1.00  0.00    -0.190 NA
HETATM   11  N5  UNL     1      22.683   5.879  47.036  1.00  0.00    -0.148 NA
HETATM   12  C12 UNL     1      21.486   5.136  47.227  1.00  0.00     0.258 C 
HETATM   13  N6  UNL     1      22.395   4.240  47.399  1.00  0.00    -0.234 NA
HETATM   14  C13 UNL     1      22.162   2.879  47.700  1.00  0.00     0.230 C 
HETATM   15  N7  UNL     1      22.559   2.635  48.916  1.00  0.00    -0.257 NA
ENDROOT
BRANCH   1  16
HETATM   16  N2  UNL     1      23.084   3.402  51.128  1.00  0.00    -0.367 N 
HETATM   17  H5  UNL     1      22.346   3.894  51.699  1.00  0.00     0.161 HD
BRANCH  16  18
HETATM   18  C4  UNL     1      23.875   2.538  51.918  1.00  0.00     0.029 A 
HETATM   19  C3  UNL     1      24.875   2.980  52.789  1.00  0.00     0.031 A 
HETATM   20  C2  UNL     1      25.624   2.140  53.563  1.00  0.00     0.027 A 
HETATM   21  C1  UNL     1      25.425   0.779  53.522  1.00  0.00     0.074 A 
HETATM   22  C15 UNL     1      24.455   0.285  52.686  1.00  0.00     0.027 A 
HETATM   23  C14 UNL     1      23.722   1.167  51.921  1.00  0.00     0.031 A 
BRANCH  21  24
HETATM   24  S1  UNL     1      26.408  -0.249  54.531  1.00  0.00     0.239 S 
HETATM   25  O1  UNL     1      25.625  -0.721  55.715  1.00  0.00    -0.206 OA
HETATM   26  O2  UNL     1      26.797  -1.463  53.722  1.00  0.00    -0.206 OA
BRANCH  24  27
HETATM   27  N1  UNL     1      27.813   0.657  54.996  1.00  0.00    -0.225 NA
HETATM   28  H1  UNL     1      27.907   1.522  54.417  1.00  0.00     0.136 HD
HETATM   29  H2  UNL     1      27.689   0.933  56.008  1.00  0.00     0.136 HD
ENDBRANCH  24  27
ENDBRANCH  21  24
ENDBRANCH  16  18
ENDBRANCH   1  16
TORSDOF 4
ENDMDL
MODEL 6
REMARK VINA RESULT:      -7.5      3.868      7.308
REMARK  4 active torsions:
REMARK  status: ('A' for Active; 'I' for Inactive)
REMARK    1  A    between atoms: N1_1  and  S1_2 
REMARK    2  A    between atoms: S1_2  and  C1_5 
REMARK    3  A    between atoms: C4_8  and  N2_9 
REMARK    4  A    between atoms: N2_9  and  C5_10 
ROOT
HETATM    1  C5  UNL     1      23.462   3.326  49.896  1.00  0.00     0.210 C 
HETATM    2  C6  UNL     1      23.281   4.338  48.784  1.00  0.00     0.077 C 
HETATM    3  C7  UNL     1      24.106   5.570  49.086  1.00  0.00    -0.006 C 
HETATM    4  C8  UNL     1      23.624   6.804  49.245  1.00  0.00     0.007 C 
HETATM    5  S2  UNL     1      24.361   8.426  49.605  1.00  0.00    -0.086 SA
HETATM    6  C9  UNL     1      23.217   9.299  48.528  1.00  0.00     0.161 C 
HETATM    7  N3  UNL     1      22.220   8.540  48.475  1.00  0.00    -0.282 NA
HETATM    8  C10 UNL     1      22.258   7.346  49.188  1.00  0.00     0.169 C 
HETATM    9  C11 UNL     1      21.584   7.402  50.539  1.00  0.00     0.206 C 
HETATM   10  N4  UNL     1      21.586   6.159  51.232  1.00  0.00    -0.190 NA
HETATM   11  N5  UNL     1      20.727   5.242  50.967  1.00  0.00    -0.148 NA
HETATM   12  C12 UNL     1      20.694   3.986  51.633  1.00  0.00     0.258 C 
HETATM   13  N6  UNL     1      21.029   3.652  50.435  1.00  0.00    -0.234 NA
HETATM   14  C13 UNL     1      21.280   2.334  49.989  1.00  0.00     0.230 C 
HETATM   15  N7  UNL     1      22.549   2.208  49.721  1.00  0.00    -0.257 NA
ENDROOT
BRANCH   1  16
HETATM   16  N2  UNL     1      24.820   2.921  50.015  1.00  0.00    -0.367 N 
HETATM   17  H5  UNL     1      25.460   3.114  49.199  1.00  0.00     0.161 HD
BRANCH  16  18
HETATM   18  C4  UNL     1      25.496   2.277  51.075  1.00  0.00     0.029 A 
HETATM   19  C3  UNL     1      24.933   1.259  51.850  1.00  0.00     0.031 A 
HETATM   20  C2  UNL     1      25.600   0.628  52.864  1.00  0.00     0.027 A 
HETATM   21  C1  UNL     1      26.894   0.976  53.178  1.00  0.00     0.074 A 
HETATM   22  C15 UNL     1      27.500   1.969  52.451  1.00  0.00     0.027 A 
HETATM   23  C14 UNL     1      26.793   2.580  51.438  1.00  0.00     0.031 A 
BRANCH  21  24
HETATM   24  S1  UNL     1      27.698   0.140  54.480  1.00  0.00     0.239 S 
HETATM   25  O1  UNL     1      28.618   1.070  55.207  1.00  0.00    -0.206 OA
HETATM   26  O2  UNL     1      26.645  -0.325  55.459  1.00  0.00    -0.206 OA
BRANCH  24  27
HETATM   27  N1  UNL     1      28.543  -1.213  53.797  1.00  0.00    -0.225 NA
HETATM   28  H1  UNL     1      29.377  -0.895  53.254  1.00  0.00     0.136 HD
HETATM   29  H2  UNL     1      28.867  -1.819  54.599  1.00  0.00     0.136 HD
ENDBRANCH  24  27
ENDBRANCH  21  24
ENDBRANCH  16  18
ENDBRANCH   1  16
TORSDOF 4
ENDMDL
MODEL 7
REMARK VINA RESULT:      -7.5      4.565      7.792
REMARK  4 active torsions:
REMARK  status: ('A' for Active; 'I' for Inactive)
REMARK    1  A    between atoms: N1_1  and  S1_2 
REMARK    2  A    between atoms: S1_2  and  C1_5 
REMARK    3  A    between atoms: C4_8  and  N2_9 
REMARK    4  A    between atoms: N2_9  and  C5_10 
ROOT
HETATM    1  C5  UNL     1      21.833   3.051  51.512  1.00  0.00     0.210 C 
HETATM    2  C6  UNL     1      20.626   3.067  52.425  1.00  0.00     0.077 C 
HETATM    3  C7  UNL     1      19.580   2.110  51.892  1.00  0.00    -0.006 C 
HETATM    4  C8  UNL     1      18.344   2.445  51.520  1.00  0.00     0.007 C 
HETATM    5  S2  UNL     1      16.918   1.530  50.862  1.00  0.00    -0.086 SA
HETATM    6  C9  UNL     1      15.730   2.519  51.780  1.00  0.00     0.161 C 
HETATM    7  N3  UNL     1      16.336   3.597  51.985  1.00  0.00    -0.282 NA
HETATM    8  C10 UNL     1      17.633   3.732  51.499  1.00  0.00     0.169 C 
HETATM    9  C11 UNL     1      17.733   4.444  50.170  1.00  0.00     0.206 C 
HETATM   10  N4  UNL     1      19.069   4.618  49.714  1.00  0.00    -0.190 NA
HETATM   11  N5  UNL     1      19.809   5.572  50.153  1.00  0.00    -0.148 NA
HETATM   12  C12 UNL     1      21.149   5.782  49.725  1.00  0.00     0.258 C 
HETATM   13  N6  UNL     1      21.305   5.445  50.959  1.00  0.00    -0.234 NA
HETATM   14  C13 UNL     1      22.543   5.340  51.632  1.00  0.00     0.230 C 
HETATM   15  N7  UNL     1      22.779   4.087  51.900  1.00  0.00    -0.257 NA
ENDROOT
BRANCH   1  16
HETATM   16  N2  UNL     1      22.422   1.758  51.448  1.00  0.00    -0.367 N 
HETATM   17  H5  UNL     1      21.893   1.008  50.928  1.00  0.00     0.161 HD
BRANCH  16  18
HETATM   18  C4  UNL     1      23.639   1.276  51.979  1.00  0.00     0.029 A 
HETATM   19  C3  UNL     1      23.721   0.407  53.070  1.00  0.00     0.031 A 
HETATM   20  C2  UNL     1      24.902  -0.069  53.567  1.00  0.00     0.027 A 
HETATM   21  C1  UNL     1      26.102   0.295  53.000  1.00  0.00     0.074 A 
HETATM   22  C15 UNL     1      26.085   1.147  51.924  1.00  0.00     0.027 A 
HETATM   23  C14 UNL     1      24.873   1.604  51.454  1.00  0.00     0.031 A 
BRANCH  21  24
HETATM   24  S1  UNL     1      27.580  -0.341  53.673  1.00  0.00     0.239 S 
HETATM   25  O1  UNL     1      28.743   0.510  53.271  1.00  0.00    -0.206 OA
HETATM   26  O2  UNL     1      27.468  -0.288  55.178  1.00  0.00    -0.206 OA
BRANCH  24  27
HETATM   27  N1  UNL     1      27.747  -1.978  53.125  1.00  0.00    -0.225 NA
HETATM   28  H1  UNL     1      27.493  -2.652  53.883  1.00  0.00     0.136 HD
HETATM   29  H2  UNL     1      27.083  -2.108  52.314  1.00  0.00     0.136 HD
ENDBRANCH  24  27
ENDBRANCH  21  24
ENDBRANCH  16  18
ENDBRANCH   1  16
TORSDOF 4
ENDMDL
MODEL 8
REMARK VINA RESULT:      -7.3      4.435      8.071
REMARK  4 active torsions:
REMARK  status: ('A' for Active; 'I' for Inactive)
REMARK    1  A    between atoms: N1_1  and  S1_2 
REMARK    2  A    between atoms: S1_2  and  C1_5 
REMARK    3  A    between atoms: C4_8  and  N2_9 
REMARK    4  A    between atoms: N2_9  and  C5_10 
ROOT
HETATM    1  C5  UNL     1      23.833   4.296  50.069  1.00  0.00     0.210 C 
HETATM    2  C6  UNL     1      22.397   4.312  49.589  1.00  0.00     0.077 C 
HETATM    3  C7  UNL     1      22.329   3.739  48.189  1.00  0.00    -0.006 C 
HETATM    4  C8  UNL     1      21.891   4.388  47.109  1.00  0.00     0.007 C 
HETATM    5  S2  UNL     1      21.703   3.960  45.353  1.00  0.00    -0.086 SA
HETATM    6  C9  UNL     1      20.175   4.894  45.183  1.00  0.00     0.161 C 
HETATM    7  N3  UNL     1      20.247   5.749  46.098  1.00  0.00    -0.282 NA
HETATM    8  C10 UNL     1      21.371   5.750  46.918  1.00  0.00     0.169 C 
HETATM    9  C11 UNL     1      22.437   6.743  46.516  1.00  0.00     0.206 C 
HETATM   10  N4  UNL     1      23.556   6.767  47.395  1.00  0.00    -0.190 NA
HETATM   11  N5  UNL     1      23.526   7.418  48.502  1.00  0.00    -0.148 NA
HETATM   12  C12 UNL     1      24.620   7.469  49.409  1.00  0.00     0.258 C 
HETATM   13  N6  UNL     1      23.739   6.808  50.078  1.00  0.00    -0.234 NA
HETATM   14  C13 UNL     1      23.911   6.300  51.386  1.00  0.00     0.230 C 
HETATM   15  N7  UNL     1      23.954   4.999  51.337  1.00  0.00    -0.257 NA
ENDROOT
BRANCH   1  16
HETATM   16  N2  UNL     1      24.353   2.973  50.115  1.00  0.00    -0.367 N 
HETATM   17  H5  UNL     1      24.193   2.357  49.274  1.00  0.00     0.161 HD
BRANCH  16  18
HETATM   18  C4  UNL     1      25.077   2.306  51.129  1.00  0.00     0.029 A 
HETATM   19  C3  UNL     1      24.487   1.471  52.083  1.00  0.00     0.031 A 
HETATM   20  C2  UNL     1      25.196   0.815  53.050  1.00  0.00     0.027 A 
HETATM   21  C1  UNL     1      26.563   0.950  53.134  1.00  0.00     0.074 A 
HETATM   22  C15 UNL     1      27.198   1.757  52.224  1.00  0.00     0.027 A 
HETATM   23  C14 UNL     1      26.447   2.401  51.264  1.00  0.00     0.031 A 
BRANCH  21  24
HETATM   24  S1  UNL     1      27.419   0.091  54.388  1.00  0.00     0.239 S 
HETATM   25  O1  UNL     1      26.470  -0.354  55.456  1.00  0.00    -0.206 OA
HETATM   26  O2  UNL     1      28.032  -1.145  53.772  1.00  0.00    -0.206 OA
BRANCH  24  27
HETATM   27  N1  UNL     1      28.650   1.147  55.005  1.00  0.00    -0.225 NA
HETATM   28  H1  UNL     1      29.110   1.675  54.229  1.00  0.00     0.136 HD
HETATM   29  H2  UNL     1      28.178   1.833  55.655  1.00  0.00     0.136 HD
ENDBRANCH  24  27
ENDBRANCH  21  24
ENDBRANCH  16  18
ENDBRANCH   1  16
TORSDOF 4
ENDMDL
MODEL 9
REMARK VINA RESULT:      -7.3      3.254      4.529
REMARK  4 active torsions:
REMARK  status: ('A' for Active; 'I' for Inactive)
REMARK    1  A    between atoms: N1_1  and  S1_2 
REMARK    2  A    between atoms: S1_2  and  C1_5 
REMARK    3  A    between atoms: C4_8  and  N2_9 
REMARK    4  A    between atoms: N2_9  and  C5_10 
ROOT
HETATM    1  C5  UNL     1      25.437   1.884  52.681  1.00  0.00     0.210 C 
HETATM    2  C6  UNL     1      24.401   0.910  52.162  1.00  0.00     0.077 C 
HETATM    3  C7  UNL     1      23.090   1.138  52.884  1.00  0.00    -0.006 C 
HETATM    4  C8  UNL     1      22.449   0.234  53.627  1.00  0.00     0.007 C 
HETATM    5  S2  UNL     1      20.904   0.233  54.583  1.00  0.00    -0.086 SA
HETATM    6  C9  UNL     1      20.513  -1.466  54.143  1.00  0.00     0.161 C 
HETATM    7  N3  UNL     1      21.630  -1.967  53.872  1.00  0.00    -0.282 NA
HETATM    8  C10 UNL     1      22.760  -1.162  53.972  1.00  0.00     0.169 C 
HETATM    9  C11 UNL     1      23.514  -1.299  55.274  1.00  0.00     0.206 C 
HETATM   10  N4  UNL     1      24.695  -0.507  55.338  1.00  0.00    -0.190 NA
HETATM   11  N5  UNL     1      25.792  -0.893  54.793  1.00  0.00    -0.148 NA
HETATM   12  C12 UNL     1      26.993  -0.133  54.832  1.00  0.00     0.258 C 
HETATM   13  N6  UNL     1      26.689  -0.101  53.580  1.00  0.00    -0.234 NA
HETATM   14  C13 UNL     1      27.430   0.554  52.571  1.00  0.00     0.230 C 
HETATM   15  N7  UNL     1      26.748   1.574  52.133  1.00  0.00    -0.257 NA
ENDROOT
BRANCH   1  16
HETATM   16  N2  UNL     1      25.045   3.233  52.453  1.00  0.00    -0.367 N 
HETATM   17  H5  UNL     1      25.218   3.928  53.228  1.00  0.00     0.161 HD
BRANCH  16  18
HETATM   18  C4  UNL     1      24.439   3.835  51.328  1.00  0.00     0.029 A 
HETATM   19  C3  UNL     1      25.037   3.902  50.067  1.00  0.00     0.031 A 
HETATM   20  C2  UNL     1      24.437   4.471  48.979  1.00  0.00     0.027 A 
HETATM   21  C1  UNL     1      23.179   5.021  49.076  1.00  0.00     0.074 A 
HETATM   22  C15 UNL     1      22.541   4.985  50.290  1.00  0.00     0.027 A 
HETATM   23  C14 UNL     1      23.181   4.402  51.363  1.00  0.00     0.031 A 
BRANCH  21  24
HETATM   24  S1  UNL     1      22.459   5.735  47.657  1.00  0.00     0.239 S 
HETATM   25  O1  UNL     1      22.292   4.706  46.583  1.00  0.00    -0.206 OA
HETATM   26  O2  UNL     1      21.084   6.236  48.032  1.00  0.00    -0.206 OA
BRANCH  24  27
HETATM   27  N1  UNL     1      23.476   7.047  47.152  1.00  0.00    -0.225 NA
HETATM   28  H1  UNL     1      23.102   7.961  47.494  1.00  0.00     0.136 HD
HETATM   29  H2  UNL     1      24.430   6.887  47.576  1.00  0.00     0.136 HD
ENDBRANCH  24  27
ENDBRANCH  21  24
ENDBRANCH  16  18
ENDBRANCH   1  16
TORSDOF 4
ENDMDL
