MODEL 1
REMARK VINA RESULT:      -7.5      0.000      0.000
REMARK  8 active torsions:
REMARK  status: ('A' for Active; 'I' for Inactive)
REMARK    1  A    between atoms: O1_2  and  C2_3 
REMARK    2  A    between atoms: C3_4  and  O2_5 
REMARK    3  A    between atoms: C3_4  and  C5_7 
REMARK    4  A    between atoms: C5_7  and  O3_24 
REMARK    5  A    between atoms: C6_8  and  C7_9 
REMARK    6  A    between atoms: C7_9  and  C8_10 
REMARK    7  A    between atoms: C11_15  and  N3_16 
REMARK    8  A    between atoms: N3_16  and  C13_18 
ROOT
HETATM    1  C8  UNL     1      27.088   1.407  52.790  1.00  0.00     0.009 A 
HETATM    2  C9  UNL     1      28.057   2.313  53.234  1.00  0.00     0.129 A 
HETATM    3  N1  UNL     1      28.871   2.055  54.243  1.00  0.00    -0.253 NA
HETATM    4  C10 UNL     1      28.798   0.884  54.896  1.00  0.00     0.234 A 
HETATM    5  N2  UNL     1      27.878  -0.044  54.516  1.00  0.00    -0.224 NA
HETATM    6  C11 UNL     1      27.033   0.208  53.479  1.00  0.00     0.139 A 
ENDROOT
BRANCH   1   7
HETATM    7  C7  UNL     1      26.129   1.594  51.672  1.00  0.00     0.074 C 
BRANCH   7   8
HETATM    8  C6  UNL     1      26.560   2.784  50.876  1.00  0.00     0.018 C 
HETATM    9  C5  UNL     1      25.713   3.572  50.259  1.00  0.00     0.100 C 
BRANCH   9  10
HETATM   10  C3  UNL     1      26.291   4.686  49.529  1.00  0.00     0.123 C 
HETATM   11  C2  UNL     1      27.462   4.434  48.985  1.00  0.00     0.173 C 
BRANCH  11  12
HETATM   12  O1  UNL     1      28.528   4.884  48.235  1.00  0.00    -0.365 OA
HETATM   13  C1  UNL     1      28.851   6.271  48.232  1.00  0.00     0.209 C 
ENDBRANCH  11  12
BRANCH  10  14
HETATM   14  O2  UNL     1      25.721   5.923  49.377  1.00  0.00    -0.351 OA
HETATM   15  C4  UNL     1      25.165   6.704  50.413  1.00  0.00     0.210 C 
ENDBRANCH  10  14
ENDBRANCH   9  10
BRANCH   9  16
HETATM   16  O3  UNL     1      24.363   3.292  50.344  1.00  0.00    -0.353 OA
HETATM   17  C19 UNL     1      23.539   3.016  49.229  1.00  0.00     0.210 C 
ENDBRANCH   9  16
ENDBRANCH   7   8
ENDBRANCH   1   7
BRANCH   6  18
HETATM   18  N3  UNL     1      26.139  -0.867  53.215  1.00  0.00    -0.336 N 
HETATM   19  C12 UNL     1      26.567  -1.964  52.392  1.00  0.00     0.158 C 
BRANCH  18  20
HETATM   20  C13 UNL     1      24.828  -0.853  53.768  1.00  0.00     0.035 A 
HETATM   21  C14 UNL     1      23.722  -0.432  53.045  1.00  0.00     0.029 A 
HETATM   22  C15 UNL     1      22.462  -0.427  53.603  1.00  0.00     0.002 A 
HETATM   23  C16 UNL     1      22.232  -0.833  54.901  1.00  0.00     0.000 A 
HETATM   24  C17 UNL     1      23.336  -1.259  55.641  1.00  0.00     0.002 A 
HETATM   25  C18 UNL     1      24.586  -1.254  55.055  1.00  0.00     0.029 A 
ENDBRANCH  18  20
ENDBRANCH   6  18
TORSDOF 8
ENDMDL
MODEL 2
REMARK VINA RESULT:      -7.3      3.629      7.464
REMARK  8 active torsions:
REMARK  status: ('A' for Active; 'I' for Inactive)
REMARK    1  A    between atoms: O1_2  and  C2_3 
REMARK    2  A    between atoms: C3_4  and  O2_5 
REMARK    3  A    between atoms: C3_4  and  C5_7 
REMARK    4  A    between atoms: C5_7  and  O3_24 
REMARK    5  A    between atoms: C6_8  and  C7_9 
REMARK    6  A    between atoms: C7_9  and  C8_10 
REMARK    7  A    between atoms: C11_15  and  N3_16 
REMARK    8  A    between atoms: N3_16  and  C13_18 
ROOT
HETATM    1  C8  UNL     1      22.613   2.202  50.814  1.00  0.00     0.009 A 
HETATM    2  C9  UNL     1      21.961   1.050  50.364  1.00  0.00     0.129 A 
HETATM    3  N1  UNL     1      21.558   0.897  49.114  1.00  0.00    -0.253 NA
HETATM    4  C10 UNL     1      21.764   1.865  48.207  1.00  0.00     0.234 A 
HETATM    5  N2  UNL     1      22.393   3.013  48.578  1.00  0.00    -0.224 NA
HETATM    6  C11 UNL     1      22.814   3.186  49.861  1.00  0.00     0.139 A 
ENDROOT
BRANCH   1   7
HETATM    7  C7  UNL     1      23.107   2.475  52.188  1.00  0.00     0.074 C 
BRANCH   7   8
HETATM    8  C6  UNL     1      24.358   1.687  52.404  1.00  0.00     0.018 C 
HETATM    9  C5  UNL     1      24.387   0.573  53.094  1.00  0.00     0.100 C 
BRANCH   9  10
HETATM   10  C3  UNL     1      25.682  -0.074  53.211  1.00  0.00     0.123 C 
HETATM   11  C2  UNL     1      26.269   0.084  54.377  1.00  0.00     0.173 C 
BRANCH  11  12
HETATM   12  O1  UNL     1      27.354  -0.170  55.189  1.00  0.00    -0.365 OA
HETATM   13  C1  UNL     1      28.663   0.169  54.741  1.00  0.00     0.209 C 
ENDBRANCH  11  12
BRANCH  10  14
HETATM   14  O2  UNL     1      26.301  -0.804  52.230  1.00  0.00    -0.351 OA
HETATM   15  C4  UNL     1      26.811  -2.112  52.378  1.00  0.00     0.210 C 
ENDBRANCH  10  14
ENDBRANCH   9  10
BRANCH   9  16
HETATM   16  O3  UNL     1      23.212   0.105  53.649  1.00  0.00    -0.353 OA
HETATM   17  C19 UNL     1      22.599  -1.118  53.291  1.00  0.00     0.210 C 
ENDBRANCH   9  16
ENDBRANCH   7   8
ENDBRANCH   1   7
BRANCH   6  18
HETATM   18  N3  UNL     1      23.452   4.438  50.075  1.00  0.00    -0.336 N 
HETATM   19  C12 UNL     1      22.752   5.487  50.763  1.00  0.00     0.158 C 
BRANCH  18  20
HETATM   20  C13 UNL     1      24.781   4.648  49.609  1.00  0.00     0.035 A 
HETATM   21  C14 UNL     1      25.755   3.663  49.678  1.00  0.00     0.029 A 
HETATM   22  C15 UNL     1      27.035   3.890  49.221  1.00  0.00     0.002 A 
HETATM   23  C16 UNL     1      27.417   5.098  48.676  1.00  0.00     0.000 A 
HETATM   24  C17 UNL     1      26.447   6.099  48.600  1.00  0.00     0.002 A 
HETATM   25  C18 UNL     1      25.174   5.842  49.066  1.00  0.00     0.029 A 
ENDBRANCH  18  20
ENDBRANCH   6  18
TORSDOF 8
ENDMDL
MODEL 3
REMARK VINA RESULT:      -7.3      1.502      2.948
REMARK  8 active torsions:
REMARK  status: ('A' for Active; 'I' for Inactive)
REMARK    1  A    between atoms: O1_2  and  C2_3 
REMARK    2  A    between atoms: C3_4  and  O2_5 
REMARK    3  A    between atoms: C3_4  and  C5_7 
REMARK    4  A    between atoms: C5_7  and  O3_24 
REMARK    5  A    between atoms: C6_8  and  C7_9 
REMARK    6  A    between atoms: C7_9  and  C8_10 
REMARK    7  A    between atoms: C11_15  and  N3_16 
REMARK    8  A    between atoms: N3_16  and  C13_18 
ROOT
HETATM    1  C8  UNL     1      27.297   1.344  52.789  1.00  0.00     0.009 A 
HETATM    2  C9  UNL     1      28.256   2.238  53.278  1.00  0.00     0.129 A 
HETATM    3  N1  UNL     1      28.969   1.999  54.364  1.00  0.00    -0.253 NA
HETATM    4  C10 UNL     1      28.798   0.863  55.057  1.00  0.00     0.234 A 
HETATM    5  N2  UNL     1      27.882  -0.052  54.637  1.00  0.00    -0.224 NA
HETATM    6  C11 UNL     1      27.139   0.180  53.519  1.00  0.00     0.139 A 
ENDROOT
BRANCH   1   7
HETATM    7  C7  UNL     1      26.446   1.512  51.583  1.00  0.00     0.074 C 
BRANCH   7   8
HETATM    8  C6  UNL     1      25.391   2.525  51.888  1.00  0.00     0.018 C 
HETATM    9  C5  UNL     1      25.000   3.429  51.022  1.00  0.00     0.100 C 
BRANCH   9  10
HETATM   10  C3  UNL     1      23.964   4.341  51.473  1.00  0.00     0.123 C 
HETATM   11  C2  UNL     1      22.849   3.757  51.852  1.00  0.00     0.173 C 
BRANCH  11  12
HETATM   12  O1  UNL     1      21.567   3.883  52.343  1.00  0.00    -0.365 OA
HETATM   13  C1  UNL     1      20.497   4.177  51.451  1.00  0.00     0.209 C 
ENDBRANCH  11  12
BRANCH  10  14
HETATM   14  O2  UNL     1      24.071   5.706  51.526  1.00  0.00    -0.351 OA
HETATM   15  C4  UNL     1      23.337   6.619  50.738  1.00  0.00     0.210 C 
ENDBRANCH  10  14
ENDBRANCH   9  10
BRANCH   9  16
HETATM   16  O3  UNL     1      25.589   3.449  49.772  1.00  0.00    -0.353 OA
HETATM   17  C19 UNL     1      26.419   4.493  49.304  1.00  0.00     0.210 C 
ENDBRANCH   9  16
ENDBRANCH   7   8
ENDBRANCH   1   7
BRANCH   6  18
HETATM   18  N3  UNL     1      26.234  -0.876  53.224  1.00  0.00    -0.336 N 
HETATM   19  C12 UNL     1      26.657  -1.965  52.387  1.00  0.00     0.158 C 
BRANCH  18  20
HETATM   20  C13 UNL     1      24.915  -0.853  53.759  1.00  0.00     0.035 A 
HETATM   21  C14 UNL     1      23.819  -0.447  53.012  1.00  0.00     0.029 A 
HETATM   22  C15 UNL     1      22.551  -0.432  53.553  1.00  0.00     0.002 A 
HETATM   23  C16 UNL     1      22.304  -0.814  54.855  1.00  0.00     0.000 A 
HETATM   24  C17 UNL     1      23.398  -1.223  55.619  1.00  0.00     0.002 A 
HETATM   25  C18 UNL     1      24.655  -1.228  55.050  1.00  0.00     0.029 A 
ENDBRANCH  18  20
ENDBRANCH   6  18
TORSDOF 8
ENDMDL
MODEL 4
REMARK VINA RESULT:      -7.2      3.252      6.201
REMARK  8 active torsions:
REMARK  status: ('A' for Active; 'I' for Inactive)
REMARK    1  A    between atoms: O1_2  and  C2_3 
REMARK    2  A    between atoms: C3_4  and  O2_5 
REMARK    3  A    between atoms: C3_4  and  C5_7 
REMARK    4  A    between atoms: C5_7  and  O3_24 
REMARK    5  A    between atoms: C6_8  and  C7_9 
REMARK    6  A    between atoms: C7_9  and  C8_10 
REMARK    7  A    between atoms: C11_15  and  N3_16 
REMARK    8  A    between atoms: N3_16  and  C13_18 
ROOT
HETATM    1  C8  UNL     1      25.019   2.091  51.924  1.00  0.00     0.009 A 
HETATM    2  C9  UNL     1      24.372   2.670  50.827  1.00  0.00     0.129 A 
HETATM    3  N1  UNL     1      25.025   3.178  49.797  1.00  0.00    -0.253 NA
HETATM    4  C10 UNL     1      26.367   3.157  49.762  1.00  0.00     0.234 A 
HETATM    5  N2  UNL     1      27.060   2.608  50.796  1.00  0.00    -0.224 NA
HETATM    6  C11 UNL     1      26.401   2.080  51.865  1.00  0.00     0.139 A 
ENDROOT
BRANCH   1   7
HETATM    7  C7  UNL     1      24.385   1.492  53.126  1.00  0.00     0.074 C 
BRANCH   7   8
HETATM    8  C6  UNL     1      22.903   1.625  52.993  1.00  0.00     0.018 C 
HETATM    9  C5  UNL     1      22.076   0.630  53.209  1.00  0.00     0.100 C 
BRANCH   9  10
HETATM   10  C3  UNL     1      20.664   0.922  53.038  1.00  0.00     0.123 C 
HETATM   11  C2  UNL     1      20.399   2.172  52.723  1.00  0.00     0.173 C 
BRANCH  11  12
HETATM   12  O1  UNL     1      19.454   3.132  52.427  1.00  0.00    -0.365 OA
HETATM   13  C1  UNL     1      19.580   3.899  51.234  1.00  0.00     0.209 C 
ENDBRANCH  11  12
BRANCH  10  14
HETATM   14  O2  UNL     1      19.640   0.022  53.176  1.00  0.00    -0.351 OA
HETATM   15  C4  UNL     1      18.664  -0.268  52.198  1.00  0.00     0.210 C 
ENDBRANCH  10  14
ENDBRANCH   9  10
BRANCH   9  16
HETATM   16  O3  UNL     1      22.595  -0.596  53.576  1.00  0.00    -0.353 OA
HETATM   17  C19 UNL     1      22.486  -1.148  54.873  1.00  0.00     0.210 C 
ENDBRANCH   9  16
ENDBRANCH   7   8
ENDBRANCH   1   7
BRANCH   6  18
HETATM   18  N3  UNL     1      27.276   1.549  52.851  1.00  0.00    -0.336 N 
HETATM   19  C12 UNL     1      27.842   2.417  53.846  1.00  0.00     0.158 C 
BRANCH  18  20
HETATM   20  C13 UNL     1      27.586   0.159  52.852  1.00  0.00     0.035 A 
HETATM   21  C14 UNL     1      28.786  -0.333  53.341  1.00  0.00     0.029 A 
HETATM   22  C15 UNL     1      29.064  -1.683  53.330  1.00  0.00     0.002 A 
HETATM   23  C16 UNL     1      28.172  -2.612  52.835  1.00  0.00     0.000 A 
HETATM   24  C17 UNL     1      26.960  -2.130  52.338  1.00  0.00     0.002 A 
HETATM   25  C18 UNL     1      26.710  -0.774  52.363  1.00  0.00     0.029 A 
ENDBRANCH  18  20
ENDBRANCH   6  18
TORSDOF 8
ENDMDL
MODEL 5
REMARK VINA RESULT:      -7.1      1.678      2.271
REMARK  8 active torsions:
REMARK  status: ('A' for Active; 'I' for Inactive)
REMARK    1  A    between atoms: O1_2  and  C2_3 
REMARK    2  A    between atoms: C3_4  and  O2_5 
REMARK    3  A    between atoms: C3_4  and  C5_7 
REMARK    4  A    between atoms: C5_7  and  O3_24 
REMARK    5  A    between atoms: C6_8  and  C7_9 
REMARK    6  A    between atoms: C7_9  and  C8_10 
REMARK    7  A    between atoms: C11_15  and  N3_16 
REMARK    8  A    between atoms: N3_16  and  C13_18 
ROOT
HETATM    1  C8  UNL     1      27.159   1.347  52.806  1.00  0.00     0.009 A 
HETATM    2  C9  UNL     1      28.133   2.245  53.256  1.00  0.00     0.129 A 
HETATM    3  N1  UNL     1      28.916   1.992  54.290  1.00  0.00    -0.253 NA
HETATM    4  C10 UNL     1      28.806   0.836  54.964  1.00  0.00     0.234 A 
HETATM    5  N2  UNL     1      27.880  -0.083  54.579  1.00  0.00    -0.224 NA
HETATM    6  C11 UNL     1      27.065   0.162  53.515  1.00  0.00     0.139 A 
ENDROOT
BRANCH   1   7
HETATM    7  C7  UNL     1      26.232   1.529  51.660  1.00  0.00     0.074 C 
BRANCH   7   8
HETATM    8  C6  UNL     1      25.535   2.841  51.821  1.00  0.00     0.018 C 
HETATM    9  C5  UNL     1      24.454   3.160  51.152  1.00  0.00     0.100 C 
BRANCH   9  10
HETATM   10  C3  UNL     1      23.897   4.473  51.424  1.00  0.00     0.123 C 
HETATM   11  C2  UNL     1      24.538   5.468  50.851  1.00  0.00     0.173 C 
BRANCH  11  12
HETATM   12  O1  UNL     1      24.642   6.825  50.632  1.00  0.00    -0.365 OA
HETATM   13  C1  UNL     1      25.852   7.364  50.111  1.00  0.00     0.209 C 
ENDBRANCH  11  12
BRANCH  10  14
HETATM   14  O2  UNL     1      22.797   4.728  52.201  1.00  0.00    -0.351 OA
HETATM   15  C4  UNL     1      21.485   4.940  51.724  1.00  0.00     0.210 C 
ENDBRANCH  10  14
ENDBRANCH   9  10
BRANCH   9  16
HETATM   16  O3  UNL     1      23.935   2.246  50.255  1.00  0.00    -0.353 OA
HETATM   17  C19 UNL     1      22.629   1.710  50.336  1.00  0.00     0.210 C 
ENDBRANCH   9  16
ENDBRANCH   7   8
ENDBRANCH   1   7
BRANCH   6  18
HETATM   18  N3  UNL     1      26.160  -0.901  53.250  1.00  0.00    -0.336 N 
HETATM   19  C12 UNL     1      26.573  -2.001  52.423  1.00  0.00     0.158 C 
BRANCH  18  20
HETATM   20  C13 UNL     1      24.849  -0.875  53.806  1.00  0.00     0.035 A 
HETATM   21  C14 UNL     1      24.586  -1.283  55.104  1.00  0.00     0.029 A 
HETATM   22  C15 UNL     1      23.309  -1.249  55.620  1.00  0.00     0.002 A 
HETATM   23  C16 UNL     1      22.229  -0.812  54.880  1.00  0.00     0.000 A 
HETATM   24  C17 UNL     1      22.479  -0.399  53.571  1.00  0.00     0.002 A 
HETATM   25  C18 UNL     1      23.769  -0.444  53.082  1.00  0.00     0.029 A 
ENDBRANCH  18  20
ENDBRANCH   6  18
TORSDOF 8
ENDMDL
MODEL 6
REMARK VINA RESULT:      -7.0      2.693      5.459
REMARK  8 active torsions:
REMARK  status: ('A' for Active; 'I' for Inactive)
REMARK    1  A    between atoms: O1_2  and  C2_3 
REMARK    2  A    between atoms: C3_4  and  O2_5 
REMARK    3  A    between atoms: C3_4  and  C5_7 
REMARK    4  A    between atoms: C5_7  and  O3_24 
REMARK    5  A    between atoms: C6_8  and  C7_9 
REMARK    6  A    between atoms: C7_9  and  C8_10 
REMARK    7  A    between atoms: C11_15  and  N3_16 
REMARK    8  A    between atoms: N3_16  and  C13_18 
ROOT
HETATM    1  C8  UNL     1      23.538   0.096  53.260  1.00  0.00     0.009 A 
HETATM    2  C9  UNL     1      22.359  -0.546  53.652  1.00  0.00     0.129 A 
HETATM    3  N1  UNL     1      22.282  -1.306  54.730  1.00  0.00    -0.253 NA
HETATM    4  C10 UNL     1      23.357  -1.496  55.510  1.00  0.00     0.234 A 
HETATM    5  N2  UNL     1      24.537  -0.901  55.188  1.00  0.00    -0.224 NA
HETATM    6  C11 UNL     1      24.633  -0.114  54.080  1.00  0.00     0.139 A 
ENDROOT
BRANCH   1   7
HETATM    7  C7  UNL     1      23.734   0.970  52.075  1.00  0.00     0.074 C 
BRANCH   7   8
HETATM    8  C6  UNL     1      22.677   2.026  52.089  1.00  0.00     0.018 C 
HETATM    9  C5  UNL     1      22.933   3.292  51.867  1.00  0.00     0.100 C 
BRANCH   9  10
HETATM   10  C3  UNL     1      21.795   4.194  51.915  1.00  0.00     0.123 C 
HETATM   11  C2  UNL     1      20.627   3.595  51.989  1.00  0.00     0.173 C 
BRANCH  11  12
HETATM   12  O1  UNL     1      19.254   3.706  52.063  1.00  0.00    -0.365 OA
HETATM   13  C1  UNL     1      18.435   2.628  51.623  1.00  0.00     0.209 C 
ENDBRANCH  11  12
BRANCH  10  14
HETATM   14  O2  UNL     1      21.860   5.562  51.891  1.00  0.00    -0.351 OA
HETATM   15  C4  UNL     1      21.709   6.372  50.744  1.00  0.00     0.210 C 
ENDBRANCH  10  14
ENDBRANCH   9  10
BRANCH   9  16
HETATM   16  O3  UNL     1      24.236   3.671  51.609  1.00  0.00    -0.353 OA
HETATM   17  C19 UNL     1      24.740   3.950  50.318  1.00  0.00     0.210 C 
ENDBRANCH   9  16
ENDBRANCH   7   8
ENDBRANCH   1   7
BRANCH   6  18
HETATM   18  N3  UNL     1      25.934   0.429  53.893  1.00  0.00    -0.336 N 
HETATM   19  C12 UNL     1      26.132   1.850  53.977  1.00  0.00     0.158 C 
BRANCH  18  20
HETATM   20  C13 UNL     1      27.033  -0.435  53.627  1.00  0.00     0.035 A 
HETATM   21  C14 UNL     1      28.319  -0.157  54.066  1.00  0.00     0.029 A 
HETATM   22  C15 UNL     1      29.367  -1.008  53.795  1.00  0.00     0.002 A 
HETATM   23  C16 UNL     1      29.200  -2.173  53.076  1.00  0.00     0.000 A 
HETATM   24  C17 UNL     1      27.912  -2.466  52.626  1.00  0.00     0.002 A 
HETATM   25  C18 UNL     1      26.881  -1.594  52.914  1.00  0.00     0.029 A 
ENDBRANCH  18  20
ENDBRANCH   6  18
TORSDOF 8
ENDMDL
MODEL 7
REMARK VINA RESULT:      -7.0      3.268      5.258
REMARK  8 active torsions:
REMARK  status: ('A' for Active; 'I' for Inactive)
REMARK    1  A    between atoms: O1_2  and  C2_3 
REMARK    2  A    between atoms: C3_4  and  O2_5 
REMARK    3  A    between atoms: C3_4  and  C5_7 
REMARK    4  A    between atoms: C5_7  and  O3_24 
REMARK    5  A    between atoms: C6_8  and  C7_9 
REMARK    6  A    between atoms: C7_9  and  C8_10 
REMARK    7  A    between atoms: C11_15  and  N3_16 
REMARK    8  A    between atoms: N3_16  and  C13_18 
ROOT
HETATM    1  C8  UNL     1      23.655  -0.067  53.517  1.00  0.00     0.009 A 
HETATM    2  C9  UNL     1      22.524  -0.719  54.017  1.00  0.00     0.129 A 
HETATM    3  N1  UNL     1      22.548  -1.452  55.117  1.00  0.00    -0.253 NA
HETATM    4  C10 UNL     1      23.686  -1.602  55.813  1.00  0.00     0.234 A 
HETATM    5  N2  UNL     1      24.824  -0.994  55.383  1.00  0.00    -0.224 NA
HETATM    6  C11 UNL     1      24.816  -0.236  54.251  1.00  0.00     0.139 A 
ENDROOT
BRANCH   1   7
HETATM    7  C7  UNL     1      23.738   0.779  52.299  1.00  0.00     0.074 C 
BRANCH   7   8
HETATM    8  C6  UNL     1      22.793   1.926  52.456  1.00  0.00     0.018 C 
HETATM    9  C5  UNL     1      22.077   2.399  51.465  1.00  0.00     0.100 C 
BRANCH   9  10
HETATM   10  C3  UNL     1      21.206   3.517  51.781  1.00  0.00     0.123 C 
HETATM   11  C2  UNL     1      21.708   4.698  51.496  1.00  0.00     0.173 C 
BRANCH  11  12
HETATM   12  O1  UNL     1      21.550   6.068  51.486  1.00  0.00    -0.365 OA
HETATM   13  C1  UNL     1      22.107   6.833  50.422  1.00  0.00     0.209 C 
ENDBRANCH  11  12
BRANCH  10  14
HETATM   14  O2  UNL     1      19.954   3.422  52.331  1.00  0.00    -0.351 OA
HETATM   15  C4  UNL     1      18.782   3.036  51.645  1.00  0.00     0.210 C 
ENDBRANCH  10  14
ENDBRANCH   9  10
BRANCH   9  16
HETATM   16  O3  UNL     1      22.200   1.815  50.219  1.00  0.00    -0.353 OA
HETATM   17  C19 UNL     1      21.173   1.079  49.584  1.00  0.00     0.210 C 
ENDBRANCH   9  16
ENDBRANCH   7   8
ENDBRANCH   1   7
BRANCH   6  18
HETATM   18  N3  UNL     1      26.086   0.326  53.948  1.00  0.00    -0.336 N 
HETATM   19  C12 UNL     1      26.251   1.753  53.936  1.00  0.00     0.158 C 
BRANCH  18  20
HETATM   20  C13 UNL     1      27.190  -0.526  53.660  1.00  0.00     0.035 A 
HETATM   21  C14 UNL     1      27.050  -1.704  52.942  1.00  0.00     0.029 A 
HETATM   22  C15 UNL     1      28.133  -2.514  52.677  1.00  0.00     0.002 A 
HETATM   23  C16 UNL     1      29.405  -2.202  53.108  1.00  0.00     0.000 A 
HETATM   24  C17 UNL     1      29.561  -1.020  53.833  1.00  0.00     0.002 A 
HETATM   25  C18 UNL     1      28.458  -0.229  54.083  1.00  0.00     0.029 A 
ENDBRANCH  18  20
ENDBRANCH   6  18
TORSDOF 8
ENDMDL
MODEL 8
REMARK VINA RESULT:      -6.9      3.232      7.837
REMARK  8 active torsions:
REMARK  status: ('A' for Active; 'I' for Inactive)
REMARK    1  A    between atoms: O1_2  and  C2_3 
REMARK    2  A    between atoms: C3_4  and  O2_5 
REMARK    3  A    between atoms: C3_4  and  C5_7 
REMARK    4  A    between atoms: C5_7  and  O3_24 
REMARK    5  A    between atoms: C6_8  and  C7_9 
REMARK    6  A    between atoms: C7_9  and  C8_10 
REMARK    7  A    between atoms: C11_15  and  N3_16 
REMARK    8  A    between atoms: N3_16  and  C13_18 
ROOT
HETATM    1  C8  UNL     1      23.803   3.003  50.840  1.00  0.00     0.009 A 
HETATM    2  C9  UNL     1      23.055   1.895  50.429  1.00  0.00     0.129 A 
HETATM    3  N1  UNL     1      22.370   1.872  49.300  1.00  0.00    -0.253 NA
HETATM    4  C10 UNL     1      22.365   2.937  48.482  1.00  0.00     0.234 A 
HETATM    5  N2  UNL     1      23.071   4.050  48.820  1.00  0.00    -0.224 NA
HETATM    6  C11 UNL     1      23.783   4.089  49.981  1.00  0.00     0.139 A 
ENDROOT
BRANCH   1   7
HETATM    7  C7  UNL     1      24.607   3.134  52.082  1.00  0.00     0.074 C 
BRANCH   7   8
HETATM    8  C6  UNL     1      24.908   1.762  52.594  1.00  0.00     0.018 C 
HETATM    9  C5  UNL     1      26.129   1.331  52.800  1.00  0.00     0.100 C 
BRANCH   9  10
HETATM   10  C3  UNL     1      26.252  -0.027  53.301  1.00  0.00     0.123 C 
HETATM   11  C2  UNL     1      25.502  -0.292  54.348  1.00  0.00     0.173 C 
BRANCH  11  12
HETATM   12  O1  UNL     1      25.088  -1.208  55.293  1.00  0.00    -0.365 OA
HETATM   13  C1  UNL     1      23.697  -1.430  55.497  1.00  0.00     0.209 C 
ENDBRANCH  11  12
BRANCH  10  14
HETATM   14  O2  UNL     1      27.060  -1.001  52.777  1.00  0.00    -0.351 OA
HETATM   15  C4  UNL     1      28.357  -1.324  53.230  1.00  0.00     0.210 C 
ENDBRANCH  10  14
ENDBRANCH   9  10
BRANCH   9  16
HETATM   16  O3  UNL     1      27.186   2.178  52.530  1.00  0.00    -0.353 OA
HETATM   17  C19 UNL     1      28.268   2.400  53.413  1.00  0.00     0.210 C 
ENDBRANCH   9  16
ENDBRANCH   7   8
ENDBRANCH   1   7
BRANCH   6  18
HETATM   18  N3  UNL     1      24.462   5.322  50.177  1.00  0.00    -0.336 N 
HETATM   19  C12 UNL     1      23.900   6.315  51.050  1.00  0.00     0.158 C 
BRANCH  18  20
HETATM   20  C13 UNL     1      25.696   5.568  49.511  1.00  0.00     0.035 A 
HETATM   21  C14 UNL     1      26.060   6.830  49.065  1.00  0.00     0.029 A 
HETATM   22  C15 UNL     1      27.259   7.042  48.421  1.00  0.00     0.002 A 
HETATM   23  C16 UNL     1      28.157   6.022  48.184  1.00  0.00     0.000 A 
HETATM   24  C17 UNL     1      27.803   4.746  48.627  1.00  0.00     0.002 A 
HETATM   25  C18 UNL     1      26.596   4.564  49.269  1.00  0.00     0.029 A 
ENDBRANCH  18  20
ENDBRANCH   6  18
TORSDOF 8
ENDMDL
MODEL 9
REMARK VINA RESULT:      -6.6      3.236      5.678
REMARK  8 active torsions:
REMARK  status: ('A' for Active; 'I' for Inactive)
REMARK    1  A    between atoms: O1_2  and  C2_3 
REMARK    2  A    between atoms: C3_4  and  O2_5 
REMARK    3  A    between atoms: C3_4  and  C5_7 
REMARK    4  A    between atoms: C5_7  and  O3_24 
REMARK    5  A    between atoms: C6_8  and  C7_9 
REMARK    6  A    between atoms: C7_9  and  C8_10 
REMARK    7  A    between atoms: C11_15  and  N3_16 
REMARK    8  A    between atoms: N3_16  and  C13_18 
ROOT
HETATM    1  C8  UNL     1      22.665   2.810  50.357  1.00  0.00     0.009 A 
HETATM    2  C9  UNL     1      23.123   2.799  49.036  1.00  0.00     0.129 A 
HETATM    3  N1  UNL     1      22.538   2.097  48.081  1.00  0.00    -0.253 NA
HETATM    4  C10 UNL     1      21.456   1.349  48.349  1.00  0.00     0.234 A 
HETATM    5  N2  UNL     1      20.957   1.314  49.614  1.00  0.00    -0.224 NA
HETATM    6  C11 UNL     1      21.548   2.032  50.609  1.00  0.00     0.139 A 
ENDROOT
BRANCH   1   7
HETATM    7  C7  UNL     1      23.242   3.561  51.501  1.00  0.00     0.074 C 
BRANCH   7   8
HETATM    8  C6  UNL     1      24.181   2.657  52.232  1.00  0.00     0.018 C 
HETATM    9  C5  UNL     1      25.473   2.642  52.007  1.00  0.00     0.100 C 
BRANCH   9  10
HETATM   10  C3  UNL     1      26.249   1.706  52.801  1.00  0.00     0.123 C 
HETATM   11  C2  UNL     1      27.273   2.241  53.430  1.00  0.00     0.173 C 
BRANCH  11  12
HETATM   12  O1  UNL     1      28.354   2.070  54.269  1.00  0.00    -0.365 OA
HETATM   13  C1  UNL     1      29.307   1.049  53.991  1.00  0.00     0.209 C 
ENDBRANCH  11  12
BRANCH  10  14
HETATM   14  O2  UNL     1      25.994   0.366  52.932  1.00  0.00    -0.351 OA
HETATM   15  C4  UNL     1      26.655  -0.668  52.234  1.00  0.00     0.210 C 
ENDBRANCH  10  14
ENDBRANCH   9  10
BRANCH   9  16
HETATM   16  O3  UNL     1      25.991   3.496  51.053  1.00  0.00    -0.353 OA
HETATM   17  C19 UNL     1      26.550   3.068  49.827  1.00  0.00     0.210 C 
ENDBRANCH   9  16
ENDBRANCH   7   8
ENDBRANCH   1   7
BRANCH   6  18
HETATM   18  N3  UNL     1      20.899   1.883  51.865  1.00  0.00    -0.336 N 
HETATM   19  C12 UNL     1      19.867   2.806  52.249  1.00  0.00     0.158 C 
BRANCH  18  20
HETATM   20  C13 UNL     1      21.272   0.819  52.735  1.00  0.00     0.035 A 
HETATM   21  C14 UNL     1      20.718   0.665  53.997  1.00  0.00     0.029 A 
HETATM   22  C15 UNL     1      21.095  -0.372  54.822  1.00  0.00     0.002 A 
HETATM   23  C16 UNL     1      22.038  -1.305  54.444  1.00  0.00     0.000 A 
HETATM   24  C17 UNL     1      22.604  -1.162  53.176  1.00  0.00     0.002 A 
HETATM   25  C18 UNL     1      22.206  -0.114  52.373  1.00  0.00     0.029 A 
ENDBRANCH  18  20
ENDBRANCH   6  18
TORSDOF 8
ENDMDL
